MODEL 1
REMARK VINA RESULT:      -7.2      0.000      0.000
REMARK  Name = 
REMARK  10 active torsions:
REMARK  status: ('A' for Active; 'I' for Inactive)
REMARK    1  A    between atoms: C_2  and  O_22
REMARK    2  A    between atoms: N_3  and  C_4
REMARK    3  A    between atoms: C_4  and  N_5
REMARK    4  A    between atoms: C_4  and  C_18
REMARK    5  A    between atoms: C_6  and  S_7
REMARK    6  A    between atoms: N_8  and  C_9
REMARK    7  A    between atoms: C_13  and  C_14
REMARK    8  A    between atoms: C_14  and  O_16
REMARK    9  A    between atoms: O_22  and  C_23
REMARK   10  A    between atoms: C_23  and  C_24
REMARK                            x       y       z     vdW  Elec       q    Type
REMARK                         _______ _______ _______ _____ _____    ______ ____
ROOT
ATOM      1  C   UNL     1       0.894   9.969  19.915  0.00  0.00    +0.000 C 
ENDROOT
BRANCH   1   4
ATOM      2  O   UNL     1       2.376   9.778  17.536  0.00  0.00    +0.000 OA
ATOM      3  C   UNL     1       2.025   8.755  18.097  0.00  0.00    +0.000 C 
ATOM      4  N   UNL     1       1.226   8.751  19.196  0.00  0.00    +0.000 N 
ATOM      5  H   UNL     1       0.927   7.860  19.567  0.00  0.00    +0.000 HD
BRANCH   3   6
ATOM      6  O   UNL     1       2.393   7.498  17.772  0.00  0.00    +0.000 OA
BRANCH   6   7
ATOM      7  C   UNL     1       3.006   6.738  18.824  0.00  0.00    +0.000 C 
BRANCH   7   8
ATOM      8  C   UNL     1       2.246   5.459  19.087  0.00  0.00    +0.000 A 
ATOM      9  C   UNL     1       1.951   4.573  18.038  0.00  0.00    +0.000 A 
ATOM     10  C   UNL     1       1.291   3.368  18.288  0.00  0.00    +0.000 A 
ATOM     11  C   UNL     1       0.908   3.036  19.587  0.00  0.00    +0.000 A 
ATOM     12  C   UNL     1       1.180   3.914  20.634  0.00  0.00    +0.000 A 
ATOM     13  C   UNL     1       1.840   5.121  20.386  0.00  0.00    +0.000 A 
ENDBRANCH   7   8
ENDBRANCH   6   7
ENDBRANCH   3   6
ENDBRANCH   1   4
BRANCH   1  14
ATOM     14  N   UNL     1      -0.159  10.561  19.097  0.00  0.00    +0.000 NA
ATOM     15  C   UNL     1      -0.188  11.771  18.664  0.00  0.00    +0.000 C 
ATOM     16  N   UNL     1      -1.273  12.358  18.059  0.00  0.00    +0.000 N 
ATOM     17  H   UNL     1      -1.145  13.348  17.879  0.00  0.00    +0.000 HD
BRANCH  16  18
ATOM     18  C   UNL     1      -2.628  11.990  18.236  0.00  0.00    +0.000 A 
ATOM     19  C   UNL     1      -3.224  11.126  17.303  0.00  0.00    +0.000 A 
ATOM     20  C   UNL     1      -4.566  10.747  17.422  0.00  0.00    +0.000 A 
ATOM     21  C   UNL     1      -5.335  11.228  18.480  0.00  0.00    +0.000 A 
ATOM     22  C   UNL     1      -4.759  12.070  19.427  0.00  0.00    +0.000 A 
ATOM     23  C   UNL     1      -3.405  12.412  19.322  0.00  0.00    +0.000 A 
BRANCH  22  24
ATOM     24  C   UNL     1      -5.588  12.536  20.569  0.00  0.00    +0.000 C 
ATOM     25  O   UNL     1      -6.616  13.172  20.414  0.00  0.00    +0.000 OA
BRANCH  24  26
ATOM     26  O   UNL     1      -5.092  12.226  21.785  0.00  0.00    +0.000 OA
ATOM     27  H   UNL     1      -4.794  12.980  22.328  0.00  0.00    +0.000 HD
ENDBRANCH  24  26
ENDBRANCH  22  24
ENDBRANCH  16  18
BRANCH  15  28
ATOM     28  S   UNL     1       1.140  12.913  18.823  0.00  0.00    +0.000 S 
ATOM     29  H   UNL     1       2.148  12.063  18.591  0.00  0.00    +0.000 HD
ENDBRANCH  15  28
ENDBRANCH   1  14
BRANCH   1  30
ATOM     30  C   UNL     1       0.437   9.770  21.453  0.00  0.00    +0.000 C 
ATOM     31 CL   UNL     1       1.782   9.366  22.594  0.00  0.00    +0.000 Cl
ATOM     32 CL   UNL     1      -0.398  11.249  22.054  0.00  0.00    +0.000 Cl
ATOM     33 CL   UNL     1      -0.745   8.394  21.680  0.00  0.00    +0.000 Cl
ENDBRANCH   1  30
TORSDOF 10
ENDMDL
MODEL 2
REMARK VINA RESULT:      -7.1      6.201      8.595
REMARK  Name = 
REMARK  10 active torsions:
REMARK  status: ('A' for Active; 'I' for Inactive)
REMARK    1  A    between atoms: C_2  and  O_22
REMARK    2  A    between atoms: N_3  and  C_4
REMARK    3  A    between atoms: C_4  and  N_5
REMARK    4  A    between atoms: C_4  and  C_18
REMARK    5  A    between atoms: C_6  and  S_7
REMARK    6  A    between atoms: N_8  and  C_9
REMARK    7  A    between atoms: C_13  and  C_14
REMARK    8  A    between atoms: C_14  and  O_16
REMARK    9  A    between atoms: O_22  and  C_23
REMARK   10  A    between atoms: C_23  and  C_24
REMARK                            x       y       z     vdW  Elec       q    Type
REMARK                         _______ _______ _______ _____ _____    ______ ____
ROOT
ATOM      1  C   UNL     1       6.512   5.299  17.963  0.00  0.00    +0.000 C 
ENDROOT
BRANCH   1   4
ATOM      2  O   UNL     1       6.551   7.939  17.004  0.00  0.00    +0.000 OA
ATOM      3  C   UNL     1       7.437   7.569  17.754  0.00  0.00    +0.000 C 
ATOM      4  N   UNL     1       7.553   6.288  18.188  0.00  0.00    +0.000 N 
ATOM      5  H   UNL     1       8.350   6.046  18.759  0.00  0.00    +0.000 HD
BRANCH   3   6
ATOM      6  O   UNL     1       8.394   8.346  18.305  0.00  0.00    +0.000 OA
BRANCH   6   7
ATOM      7  C   UNL     1       8.339   9.738  17.961  0.00  0.00    +0.000 C 
BRANCH   7   8
ATOM      8  C   UNL     1       9.403  10.523  18.692  0.00  0.00    +0.000 A 
ATOM      9  C   UNL     1      10.476  11.098  17.992  0.00  0.00    +0.000 A 
ATOM     10  C   UNL     1      11.434  11.864  18.662  0.00  0.00    +0.000 A 
ATOM     11  C   UNL     1      11.338  12.057  20.039  0.00  0.00    +0.000 A 
ATOM     12  C   UNL     1      10.287  11.477  20.747  0.00  0.00    +0.000 A 
ATOM     13  C   UNL     1       9.328  10.711  20.080  0.00  0.00    +0.000 A 
ENDBRANCH   7   8
ENDBRANCH   6   7
ENDBRANCH   3   6
ENDBRANCH   1   4
BRANCH   1  14
ATOM     14  N   UNL     1       5.382   5.829  18.717  0.00  0.00    +0.000 NA
ATOM     15  C   UNL     1       4.477   5.134  19.309  0.00  0.00    +0.000 C 
ATOM     16  N   UNL     1       3.324   5.650  19.848  0.00  0.00    +0.000 N 
ATOM     17  H   UNL     1       2.682   4.938  20.180  0.00  0.00    +0.000 HD
BRANCH  16  18
ATOM     18  C   UNL     1       2.680   6.846  19.453  0.00  0.00    +0.000 A 
ATOM     19  C   UNL     1       2.797   7.272  18.120  0.00  0.00    +0.000 A 
ATOM     20  C   UNL     1       2.194   8.458  17.682  0.00  0.00    +0.000 A 
ATOM     21  C   UNL     1       1.464   9.238  18.576  0.00  0.00    +0.000 A 
ATOM     22  C   UNL     1       1.317   8.825  19.897  0.00  0.00    +0.000 A 
ATOM     23  C   UNL     1       1.890   7.618  20.315  0.00  0.00    +0.000 A 
BRANCH  22  24
ATOM     24  C   UNL     1       0.498   9.653  20.820  0.00  0.00    +0.000 C 
ATOM     25  O   UNL     1      -0.319   9.169  21.582  0.00  0.00    +0.000 OA
BRANCH  24  26
ATOM     26  O   UNL     1       0.712  10.982  20.718  0.00  0.00    +0.000 OA
ATOM     27  H   UNL     1       1.591  11.248  20.389  0.00  0.00    +0.000 HD
ENDBRANCH  24  26
ENDBRANCH  22  24
ENDBRANCH  16  18
BRANCH  15  28
ATOM     28  S   UNL     1       4.524   3.384  19.479  0.00  0.00    +0.000 S 
ATOM     29  H   UNL     1       5.728   3.175  18.933  0.00  0.00    +0.000 HD
ENDBRANCH  15  28
ENDBRANCH   1  14
BRANCH   1  30
ATOM     30  C   UNL     1       6.140   5.018  16.415  0.00  0.00    +0.000 C 
ATOM     31 CL   UNL     1       7.543   5.090  15.275  0.00  0.00    +0.000 Cl
ATOM     32 CL   UNL     1       5.348   3.408  16.245  0.00  0.00    +0.000 Cl
ATOM     33 CL   UNL     1       4.964   6.236  15.725  0.00  0.00    +0.000 Cl
ENDBRANCH   1  30
TORSDOF 10
ENDMDL
MODEL 3
REMARK VINA RESULT:      -7.0      4.730      6.605
REMARK  Name = 
REMARK  10 active torsions:
REMARK  status: ('A' for Active; 'I' for Inactive)
REMARK    1  A    between atoms: C_2  and  O_22
REMARK    2  A    between atoms: N_3  and  C_4
REMARK    3  A    between atoms: C_4  and  N_5
REMARK    4  A    between atoms: C_4  and  C_18
REMARK    5  A    between atoms: C_6  and  S_7
REMARK    6  A    between atoms: N_8  and  C_9
REMARK    7  A    between atoms: C_13  and  C_14
REMARK    8  A    between atoms: C_14  and  O_16
REMARK    9  A    between atoms: O_22  and  C_23
REMARK   10  A    between atoms: C_23  and  C_24
REMARK                            x       y       z     vdW  Elec       q    Type
REMARK                         _______ _______ _______ _____ _____    ______ ____
ROOT
ATOM      1  C   UNL     1       3.395   5.041  19.015  0.00  0.00    +0.000 C 
ENDROOT
BRANCH   1   4
ATOM      2  O   UNL     1       6.049   4.121  18.978  0.00  0.00    +0.000 OA
ATOM      3  C   UNL     1       5.437   4.200  17.927  0.00  0.00    +0.000 C 
ATOM      4  N   UNL     1       4.187   4.724  17.838  0.00  0.00    +0.000 N 
ATOM      5  H   UNL     1       3.769   4.813  16.922  0.00  0.00    +0.000 HD
BRANCH   3   6
ATOM      6  O   UNL     1       5.853   3.755  16.723  0.00  0.00    +0.000 OA
BRANCH   6   7
ATOM      7  C   UNL     1       5.059   4.164  15.600  0.00  0.00    +0.000 C 
BRANCH   7   8
ATOM      8  C   UNL     1       5.886   4.214  14.337  0.00  0.00    +0.000 A 
ATOM      9  C   UNL     1       5.522   3.456  13.213  0.00  0.00    +0.000 A 
ATOM     10  C   UNL     1       6.259   3.539  12.029  0.00  0.00    +0.000 A 
ATOM     11  C   UNL     1       7.374   4.373  11.956  0.00  0.00    +0.000 A 
ATOM     12  C   UNL     1       7.755   5.117  13.070  0.00  0.00    +0.000 A 
ATOM     13  C   UNL     1       7.019   5.036  14.255  0.00  0.00    +0.000 A 
ENDBRANCH   7   8
ENDBRANCH   6   7
ENDBRANCH   3   6
ENDBRANCH   1   4
BRANCH   1  14
ATOM     14  N   UNL     1       2.685   6.252  18.621  0.00  0.00    +0.000 NA
ATOM     15  C   UNL     1       3.195   7.261  18.010  0.00  0.00    +0.000 C 
ATOM     16  N   UNL     1       2.557   8.463  17.819  0.00  0.00    +0.000 N 
ATOM     17  H   UNL     1       3.154   9.174  17.408  0.00  0.00    +0.000 HD
BRANCH  16  18
ATOM     18  C   UNL     1       1.521   8.995  18.623  0.00  0.00    +0.000 A 
ATOM     19  C   UNL     1       0.451   9.658  18.000  0.00  0.00    +0.000 A 
ATOM     20  C   UNL     1      -0.589  10.219  18.751  0.00  0.00    +0.000 A 
ATOM     21  C   UNL     1      -0.573  10.125  20.141  0.00  0.00    +0.000 A 
ATOM     22  C   UNL     1       0.468   9.455  20.778  0.00  0.00    +0.000 A 
ATOM     23  C   UNL     1       1.482   8.863  20.017  0.00  0.00    +0.000 A 
BRANCH  22  24
ATOM     24  C   UNL     1       0.440   9.333  22.259  0.00  0.00    +0.000 C 
ATOM     25  O   UNL     1       1.422   9.536  22.950  0.00  0.00    +0.000 OA
BRANCH  24  26
ATOM     26  O   UNL     1      -0.750   8.948  22.766  0.00  0.00    +0.000 OA
ATOM     27  H   UNL     1      -1.356   8.506  22.143  0.00  0.00    +0.000 HD
ENDBRANCH  24  26
ENDBRANCH  22  24
ENDBRANCH  16  18
BRANCH  15  28
ATOM     28  S   UNL     1       4.829   7.305  17.361  0.00  0.00    +0.000 S 
ATOM     29  H   UNL     1       5.177   6.043  17.643  0.00  0.00    +0.000 HD
ENDBRANCH  15  28
ENDBRANCH   1  14
BRANCH   1  30
ATOM     30  C   UNL     1       2.392   3.876  19.515  0.00  0.00    +0.000 C 
ATOM     31 CL   UNL     1       1.511   3.017  18.189  0.00  0.00    +0.000 Cl
ATOM     32 CL   UNL     1       3.289   2.655  20.490  0.00  0.00    +0.000 Cl
ATOM     33 CL   UNL     1       1.049   4.495  20.590  0.00  0.00    +0.000 Cl
ENDBRANCH   1  30
TORSDOF 10
ENDMDL
MODEL 4
REMARK VINA RESULT:      -7.0      4.696      6.547
REMARK  Name = 
REMARK  10 active torsions:
REMARK  status: ('A' for Active; 'I' for Inactive)
REMARK    1  A    between atoms: C_2  and  O_22
REMARK    2  A    between atoms: N_3  and  C_4
REMARK    3  A    between atoms: C_4  and  N_5
REMARK    4  A    between atoms: C_4  and  C_18
REMARK    5  A    between atoms: C_6  and  S_7
REMARK    6  A    between atoms: N_8  and  C_9
REMARK    7  A    between atoms: C_13  and  C_14
REMARK    8  A    between atoms: C_14  and  O_16
REMARK    9  A    between atoms: O_22  and  C_23
REMARK   10  A    between atoms: C_23  and  C_24
REMARK                            x       y       z     vdW  Elec       q    Type
REMARK                         _______ _______ _______ _____ _____    ______ ____
ROOT
ATOM      1  C   UNL     1       3.378   5.143  19.061  0.00  0.00    +0.000 C 
ENDROOT
BRANCH   1   4
ATOM      2  O   UNL     1       5.971   4.063  19.125  0.00  0.00    +0.000 OA
ATOM      3  C   UNL     1       5.443   4.270  18.046  0.00  0.00    +0.000 C 
ATOM      4  N   UNL     1       4.235   4.877  17.917  0.00  0.00    +0.000 N 
ATOM      5  H   UNL     1       3.892   5.069  16.987  0.00  0.00    +0.000 HD
BRANCH   3   6
ATOM      6  O   UNL     1       5.920   3.902  16.838  0.00  0.00    +0.000 OA
BRANCH   6   7
ATOM      7  C   UNL     1       5.036   4.116  15.728  0.00  0.00    +0.000 C 
BRANCH   7   8
ATOM      8  C   UNL     1       5.803   4.207  14.429  0.00  0.00    +0.000 A 
ATOM      9  C   UNL     1       6.961   4.994  14.335  0.00  0.00    +0.000 A 
ATOM     10  C   UNL     1       7.697   5.040  13.148  0.00  0.00    +0.000 A 
ATOM     11  C   UNL     1       7.280   4.307  12.038  0.00  0.00    +0.000 A 
ATOM     12  C   UNL     1       6.123   3.534  12.114  0.00  0.00    +0.000 A 
ATOM     13  C   UNL     1       5.385   3.488  13.300  0.00  0.00    +0.000 A 
ENDBRANCH   7   8
ENDBRANCH   6   7
ENDBRANCH   3   6
ENDBRANCH   1   4
BRANCH   1  14
ATOM     14  N   UNL     1       2.644   6.336  18.656  0.00  0.00    +0.000 NA
ATOM     15  C   UNL     1       3.133   7.346  18.029  0.00  0.00    +0.000 C 
ATOM     16  N   UNL     1       2.473   8.533  17.826  0.00  0.00    +0.000 N 
ATOM     17  H   UNL     1       3.054   9.249  17.403  0.00  0.00    +0.000 HD
BRANCH  16  18
ATOM     18  C   UNL     1       1.433   9.058  18.630  0.00  0.00    +0.000 A 
ATOM     19  C   UNL     1       0.409   9.799  18.017  0.00  0.00    +0.000 A 
ATOM     20  C   UNL     1      -0.632  10.356  18.769  0.00  0.00    +0.000 A 
ATOM     21  C   UNL     1      -0.665  10.179  20.150  0.00  0.00    +0.000 A 
ATOM     22  C   UNL     1       0.328   9.431  20.776  0.00  0.00    +0.000 A 
ATOM     23  C   UNL     1       1.343   8.845  20.011  0.00  0.00    +0.000 A 
BRANCH  22  24
ATOM     24  C   UNL     1       0.248   9.222  22.245  0.00  0.00    +0.000 C 
ATOM     25  O   UNL     1       1.106   9.622  23.011  0.00  0.00    +0.000 OA
BRANCH  24  26
ATOM     26  O   UNL     1      -0.834   8.525  22.653  0.00  0.00    +0.000 OA
ATOM     27  H   UNL     1      -1.100   8.657  23.582  0.00  0.00    +0.000 HD
ENDBRANCH  24  26
ENDBRANCH  22  24
ENDBRANCH  16  18
BRANCH  15  28
ATOM     28  S   UNL     1       4.762   7.410  17.369  0.00  0.00    +0.000 S 
ATOM     29  H   UNL     1       5.007   8.705  17.601  0.00  0.00    +0.000 HD
ENDBRANCH  15  28
ENDBRANCH   1  14
BRANCH   1  30
ATOM     30  C   UNL     1       2.395   3.934  19.492  0.00  0.00    +0.000 C 
ATOM     31 CL   UNL     1       0.971   4.437  20.489  0.00  0.00    +0.000 Cl
ATOM     32 CL   UNL     1       1.792   3.068  18.031  0.00  0.00    +0.000 Cl
ATOM     33 CL   UNL     1       3.217   2.671  20.527  0.00  0.00    +0.000 Cl
ENDBRANCH   1  30
TORSDOF 10
ENDMDL
MODEL 5
REMARK VINA RESULT:      -6.9      4.736      6.500
REMARK  Name = 
REMARK  10 active torsions:
REMARK  status: ('A' for Active; 'I' for Inactive)
REMARK    1  A    between atoms: C_2  and  O_22
REMARK    2  A    between atoms: N_3  and  C_4
REMARK    3  A    between atoms: C_4  and  N_5
REMARK    4  A    between atoms: C_4  and  C_18
REMARK    5  A    between atoms: C_6  and  S_7
REMARK    6  A    between atoms: N_8  and  C_9
REMARK    7  A    between atoms: C_13  and  C_14
REMARK    8  A    between atoms: C_14  and  O_16
REMARK    9  A    between atoms: O_22  and  C_23
REMARK   10  A    between atoms: C_23  and  C_24
REMARK                            x       y       z     vdW  Elec       q    Type
REMARK                         _______ _______ _______ _____ _____    ______ ____
ROOT
ATOM      1  C   UNL     1       3.250   5.172  19.045  0.00  0.00    +0.000 C 
ENDROOT
BRANCH   1   4
ATOM      2  O   UNL     1       5.800   3.997  18.943  0.00  0.00    +0.000 OA
ATOM      3  C   UNL     1       5.214   4.229  17.900  0.00  0.00    +0.000 C 
ATOM      4  N   UNL     1       4.024   4.881  17.849  0.00  0.00    +0.000 N 
ATOM      5  H   UNL     1       3.631   5.091  16.943  0.00  0.00    +0.000 HD
BRANCH   3   6
ATOM      6  O   UNL     1       5.602   3.850  16.664  0.00  0.00    +0.000 OA
BRANCH   6   7
ATOM      7  C   UNL     1       6.740   4.542  16.130  0.00  0.00    +0.000 C 
BRANCH   7   8
ATOM      8  C   UNL     1       6.775   4.451  14.622  0.00  0.00    +0.000 A 
ATOM      9  C   UNL     1       7.664   5.243  13.879  0.00  0.00    +0.000 A 
ATOM     10  C   UNL     1       7.731   5.124  12.488  0.00  0.00    +0.000 A 
ATOM     11  C   UNL     1       6.904   4.220  11.823  0.00  0.00    +0.000 A 
ATOM     12  C   UNL     1       6.006   3.441  12.549  0.00  0.00    +0.000 A 
ATOM     13  C   UNL     1       5.938   3.558  13.939  0.00  0.00    +0.000 A 
ENDBRANCH   7   8
ENDBRANCH   6   7
ENDBRANCH   3   6
ENDBRANCH   1   4
BRANCH   1  14
ATOM     14  N   UNL     1       2.518   6.381  18.681  0.00  0.00    +0.000 NA
ATOM     15  C   UNL     1       2.997   7.390  18.046  0.00  0.00    +0.000 C 
ATOM     16  N   UNL     1       2.347   8.589  17.882  0.00  0.00    +0.000 N 
ATOM     17  H   UNL     1       2.922   9.301  17.444  0.00  0.00    +0.000 HD
BRANCH  16  18
ATOM     18  C   UNL     1       1.346   9.120  18.730  0.00  0.00    +0.000 A 
ATOM     19  C   UNL     1       0.265   9.807  18.156  0.00  0.00    +0.000 A 
ATOM     20  C   UNL     1      -0.742  10.367  18.952  0.00  0.00    +0.000 A 
ATOM     21  C   UNL     1      -0.681  10.247  20.339  0.00  0.00    +0.000 A 
ATOM     22  C   UNL     1       0.372   9.552  20.928  0.00  0.00    +0.000 A 
ATOM     23  C   UNL     1       1.352   8.962  20.122  0.00  0.00    +0.000 A 
BRANCH  22  24
ATOM     24  C   UNL     1       0.392   9.402  22.406  0.00  0.00    +0.000 C 
ATOM     25  O   UNL     1       1.371   9.673  23.078  0.00  0.00    +0.000 OA
BRANCH  24  26
ATOM     26  O   UNL     1      -0.749   8.911  22.934  0.00  0.00    +0.000 OA
ATOM     27  H   UNL     1      -0.999   8.013  22.647  0.00  0.00    +0.000 HD
ENDBRANCH  24  26
ENDBRANCH  22  24
ENDBRANCH  16  18
BRANCH  15  28
ATOM     28  S   UNL     1       4.601   7.439  17.325  0.00  0.00    +0.000 S 
ATOM     29  H   UNL     1       5.312   7.527  18.456  0.00  0.00    +0.000 HD
ENDBRANCH  15  28
ENDBRANCH   1  14
BRANCH   1  30
ATOM     30  C   UNL     1       2.270   3.989  19.547  0.00  0.00    +0.000 C 
ATOM     31 CL   UNL     1       3.087   2.681  20.494  0.00  0.00    +0.000 Cl
ATOM     32 CL   UNL     1       0.933   4.667  20.546  0.00  0.00    +0.000 Cl
ATOM     33 CL   UNL     1       1.469   3.087  18.174  0.00  0.00    +0.000 Cl
ENDBRANCH   1  30
TORSDOF 10
ENDMDL
MODEL 6
REMARK VINA RESULT:      -6.9      5.048      7.154
REMARK  Name = 
REMARK  10 active torsions:
REMARK  status: ('A' for Active; 'I' for Inactive)
REMARK    1  A    between atoms: C_2  and  O_22
REMARK    2  A    between atoms: N_3  and  C_4
REMARK    3  A    between atoms: C_4  and  N_5
REMARK    4  A    between atoms: C_4  and  C_18
REMARK    5  A    between atoms: C_6  and  S_7
REMARK    6  A    between atoms: N_8  and  C_9
REMARK    7  A    between atoms: C_13  and  C_14
REMARK    8  A    between atoms: C_14  and  O_16
REMARK    9  A    between atoms: O_22  and  C_23
REMARK   10  A    between atoms: C_23  and  C_24
REMARK                            x       y       z     vdW  Elec       q    Type
REMARK                         _______ _______ _______ _____ _____    ______ ____
ROOT
ATOM      1  C   UNL     1       3.794   3.990  18.611  0.00  0.00    +0.000 C 
ENDROOT
BRANCH   1   4
ATOM      2  O   UNL     1       6.457   4.497  19.350  0.00  0.00    +0.000 OA
ATOM      3  C   UNL     1       6.163   4.488  18.167  0.00  0.00    +0.000 C 
ATOM      4  N   UNL     1       4.888   4.348  17.722  0.00  0.00    +0.000 N 
ATOM      5  H   UNL     1       4.717   4.413  16.729  0.00  0.00    +0.000 HD
BRANCH   3   6
ATOM      6  O   UNL     1       7.023   4.561  17.129  0.00  0.00    +0.000 OA
BRANCH   6   7
ATOM      7  C   UNL     1       6.721   5.556  16.140  0.00  0.00    +0.000 C 
BRANCH   7   8
ATOM      8  C   UNL     1       6.752   4.968  14.749  0.00  0.00    +0.000 A 
ATOM      9  C   UNL     1       5.825   3.986  14.366  0.00  0.00    +0.000 A 
ATOM     10  C   UNL     1       5.823   3.477  13.064  0.00  0.00    +0.000 A 
ATOM     11  C   UNL     1       6.752   3.936  12.132  0.00  0.00    +0.000 A 
ATOM     12  C   UNL     1       7.688   4.899  12.505  0.00  0.00    +0.000 A 
ATOM     13  C   UNL     1       7.692   5.409  13.806  0.00  0.00    +0.000 A 
ENDBRANCH   7   8
ENDBRANCH   6   7
ENDBRANCH   3   6
ENDBRANCH   1   4
BRANCH   1  14
ATOM     14  N   UNL     1       3.415   5.268  19.202  0.00  0.00    +0.000 NA
ATOM     15  C   UNL     1       2.739   5.428  20.283  0.00  0.00    +0.000 C 
ATOM     16  N   UNL     1       2.233   6.629  20.717  0.00  0.00    +0.000 N 
ATOM     17  H   UNL     1       1.639   6.543  21.535  0.00  0.00    +0.000 HD
BRANCH  16  18
ATOM     18  C   UNL     1       1.909   7.742  19.904  0.00  0.00    +0.000 A 
ATOM     19  C   UNL     1       2.356   7.763  18.573  0.00  0.00    +0.000 A 
ATOM     20  C   UNL     1       2.080   8.848  17.733  0.00  0.00    +0.000 A 
ATOM     21  C   UNL     1       1.348   9.932  18.214  0.00  0.00    +0.000 A 
ATOM     22  C   UNL     1       0.877   9.923  19.524  0.00  0.00    +0.000 A 
ATOM     23  C   UNL     1       1.125   8.816  20.344  0.00  0.00    +0.000 A 
BRANCH  22  24
ATOM     24  C   UNL     1       0.064  11.072  20.000  0.00  0.00    +0.000 C 
ATOM     25  O   UNL     1       0.510  11.923  20.749  0.00  0.00    +0.000 OA
BRANCH  24  26
ATOM     26  O   UNL     1      -1.213  11.074  19.563  0.00  0.00    +0.000 OA
ATOM     27  H   UNL     1      -1.719  10.256  19.722  0.00  0.00    +0.000 HD
ENDBRANCH  24  26
ENDBRANCH  22  24
ENDBRANCH  16  18
BRANCH  15  28
ATOM     28  S   UNL     1       2.287   4.124  21.373  0.00  0.00    +0.000 S 
ATOM     29  H   UNL     1       1.243   3.653  20.679  0.00  0.00    +0.000 HD
ENDBRANCH  15  28
ENDBRANCH   1  14
BRANCH   1  30
ATOM     30  C   UNL     1       2.544   3.241  17.911  0.00  0.00    +0.000 C 
ATOM     31 CL   UNL     1       2.912   2.498  16.303  0.00  0.00    +0.000 Cl
ATOM     32 CL   UNL     1       1.896   1.959  18.999  0.00  0.00    +0.000 Cl
ATOM     33 CL   UNL     1       1.143   4.360  17.556  0.00  0.00    +0.000 Cl
ENDBRANCH   1  30
TORSDOF 10
ENDMDL
MODEL 7
REMARK VINA RESULT:      -6.9      5.008      7.035
REMARK  Name = 
REMARK  10 active torsions:
REMARK  status: ('A' for Active; 'I' for Inactive)
REMARK    1  A    between atoms: C_2  and  O_22
REMARK    2  A    between atoms: N_3  and  C_4
REMARK    3  A    between atoms: C_4  and  N_5
REMARK    4  A    between atoms: C_4  and  C_18
REMARK    5  A    between atoms: C_6  and  S_7
REMARK    6  A    between atoms: N_8  and  C_9
REMARK    7  A    between atoms: C_13  and  C_14
REMARK    8  A    between atoms: C_14  and  O_16
REMARK    9  A    between atoms: O_22  and  C_23
REMARK   10  A    between atoms: C_23  and  C_24
REMARK                            x       y       z     vdW  Elec       q    Type
REMARK                         _______ _______ _______ _____ _____    ______ ____
ROOT
ATOM      1  C   UNL     1       3.766   4.146  18.645  0.00  0.00    +0.000 C 
ENDROOT
BRANCH   1   4
ATOM      2  O   UNL     1       6.497   4.449  19.228  0.00  0.00    +0.000 OA
ATOM      3  C   UNL     1       6.120   4.581  18.076  0.00  0.00    +0.000 C 
ATOM      4  N   UNL     1       4.811   4.549  17.718  0.00  0.00    +0.000 N 
ATOM      5  H   UNL     1       4.574   4.728  16.753  0.00  0.00    +0.000 HD
BRANCH   3   6
ATOM      6  O   UNL     1       6.907   4.727  16.989  0.00  0.00    +0.000 OA
BRANCH   6   7
ATOM      7  C   UNL     1       6.393   5.585  15.960  0.00  0.00    +0.000 C 
BRANCH   7   8
ATOM      8  C   UNL     1       6.522   4.943  14.599  0.00  0.00    +0.000 A 
ATOM      9  C   UNL     1       5.571   4.010  14.155  0.00  0.00    +0.000 A 
ATOM     10  C   UNL     1       5.664   3.452  12.877  0.00  0.00    +0.000 A 
ATOM     11  C   UNL     1       6.712   3.812  12.031  0.00  0.00    +0.000 A 
ATOM     12  C   UNL     1       7.671   4.724  12.467  0.00  0.00    +0.000 A 
ATOM     13  C   UNL     1       7.580   5.283  13.744  0.00  0.00    +0.000 A 
ENDBRANCH   7   8
ENDBRANCH   6   7
ENDBRANCH   3   6
ENDBRANCH   1   4
BRANCH   1  14
ATOM     14  N   UNL     1       3.359   5.408  19.254  0.00  0.00    +0.000 NA
ATOM     15  C   UNL     1       2.677   5.538  20.335  0.00  0.00    +0.000 C 
ATOM     16  N   UNL     1       2.146   6.722  20.785  0.00  0.00    +0.000 N 
ATOM     17  H   UNL     1       1.552   6.613  21.600  0.00  0.00    +0.000 HD
BRANCH  16  18
ATOM     18  C   UNL     1       1.802   7.840  19.987  0.00  0.00    +0.000 A 
ATOM     19  C   UNL     1       2.260   7.895  18.662  0.00  0.00    +0.000 A 
ATOM     20  C   UNL     1       1.964   8.987  17.837  0.00  0.00    +0.000 A 
ATOM     21  C   UNL     1       1.202  10.044  18.329  0.00  0.00    +0.000 A 
ATOM     22  C   UNL     1       0.719  10.001  19.634  0.00  0.00    +0.000 A 
ATOM     23  C   UNL     1       0.988   8.887  20.438  0.00  0.00    +0.000 A 
BRANCH  22  24
ATOM     24  C   UNL     1      -0.126  11.121  20.121  0.00  0.00    +0.000 C 
ATOM     25  O   UNL     1      -0.756  11.061  21.163  0.00  0.00    +0.000 OA
BRANCH  24  26
ATOM     26  O   UNL     1      -0.164  12.192  19.301  0.00  0.00    +0.000 OA
ATOM     27  H   UNL     1      -0.604  12.055  18.442  0.00  0.00    +0.000 HD
ENDBRANCH  24  26
ENDBRANCH  22  24
ENDBRANCH  16  18
BRANCH  15  28
ATOM     28  S   UNL     1       2.249   4.209  21.404  0.00  0.00    +0.000 S 
ATOM     29  H   UNL     1       2.947   3.244  20.792  0.00  0.00    +0.000 HD
ENDBRANCH  15  28
ENDBRANCH   1  14
BRANCH   1  30
ATOM     30  C   UNL     1       2.520   3.350  17.990  0.00  0.00    +0.000 C 
ATOM     31 CL   UNL     1       1.846   2.024  19.019  0.00  0.00    +0.000 Cl
ATOM     32 CL   UNL     1       1.189   4.496  17.588  0.00  0.00    +0.000 Cl
ATOM     33 CL   UNL     1       2.949   2.504  16.427  0.00  0.00    +0.000 Cl
ENDBRANCH   1  30
TORSDOF 10
ENDMDL
MODEL 8
REMARK VINA RESULT:      -6.9      7.281      9.598
REMARK  Name = 
REMARK  10 active torsions:
REMARK  status: ('A' for Active; 'I' for Inactive)
REMARK    1  A    between atoms: C_2  and  O_22
REMARK    2  A    between atoms: N_3  and  C_4
REMARK    3  A    between atoms: C_4  and  N_5
REMARK    4  A    between atoms: C_4  and  C_18
REMARK    5  A    between atoms: C_6  and  S_7
REMARK    6  A    between atoms: N_8  and  C_9
REMARK    7  A    between atoms: C_13  and  C_14
REMARK    8  A    between atoms: C_14  and  O_16
REMARK    9  A    between atoms: O_22  and  C_23
REMARK   10  A    between atoms: C_23  and  C_24
REMARK                            x       y       z     vdW  Elec       q    Type
REMARK                         _______ _______ _______ _____ _____    ______ ____
ROOT
ATOM      1  C   UNL     1       5.564   6.434  17.166  0.00  0.00    +0.000 C 
ENDROOT
BRANCH   1   4
ATOM      2  O   UNL     1       5.092   3.831  16.220  0.00  0.00    +0.000 OA
ATOM      3  C   UNL     1       5.255   4.732  15.416  0.00  0.00    +0.000 C 
ATOM      4  N   UNL     1       5.584   5.999  15.779  0.00  0.00    +0.000 N 
ATOM      5  H   UNL     1       5.764   6.675  15.051  0.00  0.00    +0.000 HD
BRANCH   3   6
ATOM      6  O   UNL     1       5.096   4.648  14.078  0.00  0.00    +0.000 OA
BRANCH   6   7
ATOM      7  C   UNL     1       6.306   4.649  13.306  0.00  0.00    +0.000 C 
BRANCH   7   8
ATOM      8  C   UNL     1       6.355   3.466  12.368  0.00  0.00    +0.000 A 
ATOM      9  C   UNL     1       7.579   3.013  11.851  0.00  0.00    +0.000 A 
ATOM     10  C   UNL     1       7.629   1.889  11.022  0.00  0.00    +0.000 A 
ATOM     11  C   UNL     1       6.458   1.210  10.692  0.00  0.00    +0.000 A 
ATOM     12  C   UNL     1       5.235   1.661  11.185  0.00  0.00    +0.000 A 
ATOM     13  C   UNL     1       5.182   2.784  12.014  0.00  0.00    +0.000 A 
ENDBRANCH   7   8
ENDBRANCH   6   7
ENDBRANCH   3   6
ENDBRANCH   1   4
BRANCH   1  14
ATOM     14  N   UNL     1       4.360   5.803  17.695  0.00  0.00    +0.000 NA
ATOM     15  C   UNL     1       3.276   6.407  18.028  0.00  0.00    +0.000 C 
ATOM     16  N   UNL     1       2.230   5.820  18.698  0.00  0.00    +0.000 N 
ATOM     17  H   UNL     1       1.505   6.478  18.967  0.00  0.00    +0.000 HD
BRANCH  16  18
ATOM     18  C   UNL     1       2.311   4.695  19.552  0.00  0.00    +0.000 A 
ATOM     19  C   UNL     1       1.282   4.472  20.481  0.00  0.00    +0.000 A 
ATOM     20  C   UNL     1       1.324   3.384  21.362  0.00  0.00    +0.000 A 
ATOM     21  C   UNL     1       2.400   2.501  21.326  0.00  0.00    +0.000 A 
ATOM     22  C   UNL     1       3.422   2.691  20.399  0.00  0.00    +0.000 A 
ATOM     23  C   UNL     1       3.352   3.758  19.497  0.00  0.00    +0.000 A 
BRANCH  22  24
ATOM     24  C   UNL     1       4.538   1.711  20.354  0.00  0.00    +0.000 C 
ATOM     25  O   UNL     1       5.312   1.557  21.281  0.00  0.00    +0.000 OA
BRANCH  24  26
ATOM     26  O   UNL     1       4.640   1.033  19.191  0.00  0.00    +0.000 OA
ATOM     27  H   UNL     1       4.742   1.578  18.388  0.00  0.00    +0.000 HD
ENDBRANCH  24  26
ENDBRANCH  22  24
ENDBRANCH  16  18
BRANCH  15  28
ATOM     28  S   UNL     1       2.963   8.114  17.742  0.00  0.00    +0.000 S 
ATOM     29  H   UNL     1       2.166   8.337  18.794  0.00  0.00    +0.000 HD
ENDBRANCH  15  28
ENDBRANCH   1  14
BRANCH   1  30
ATOM     30  C   UNL     1       6.880   6.068  18.032  0.00  0.00    +0.000 C 
ATOM     31 CL   UNL     1       8.059   7.426  18.224  0.00  0.00    +0.000 Cl
ATOM     32 CL   UNL     1       6.408   5.484  19.669  0.00  0.00    +0.000 Cl
ATOM     33 CL   UNL     1       7.882   4.733  17.287  0.00  0.00    +0.000 Cl
ENDBRANCH   1  30
TORSDOF 10
ENDMDL
MODEL 9
REMARK VINA RESULT:      -6.9      4.693      6.511
REMARK  Name = 
REMARK  10 active torsions:
REMARK  status: ('A' for Active; 'I' for Inactive)
REMARK    1  A    between atoms: C_2  and  O_22
REMARK    2  A    between atoms: N_3  and  C_4
REMARK    3  A    between atoms: C_4  and  N_5
REMARK    4  A    between atoms: C_4  and  C_18
REMARK    5  A    between atoms: C_6  and  S_7
REMARK    6  A    between atoms: N_8  and  C_9
REMARK    7  A    between atoms: C_13  and  C_14
REMARK    8  A    between atoms: C_14  and  O_16
REMARK    9  A    between atoms: O_22  and  C_23
REMARK   10  A    between atoms: C_23  and  C_24
REMARK                            x       y       z     vdW  Elec       q    Type
REMARK                         _______ _______ _______ _____ _____    ______ ____
ROOT
ATOM      1  C   UNL     1       3.424   5.110  19.066  0.00  0.00    +0.000 C 
ENDROOT
BRANCH   1   4
ATOM      2  O   UNL     1       6.046   4.101  19.057  0.00  0.00    +0.000 OA
ATOM      3  C   UNL     1       5.457   4.226  17.998  0.00  0.00    +0.000 C 
ATOM      4  N   UNL     1       4.227   4.794  17.897  0.00  0.00    +0.000 N 
ATOM      5  H   UNL     1       3.831   4.919  16.976  0.00  0.00    +0.000 HD
BRANCH   3   6
ATOM      6  O   UNL     1       5.881   3.795  16.791  0.00  0.00    +0.000 OA
BRANCH   6   7
ATOM      7  C   UNL     1       5.058   4.163  15.674  0.00  0.00    +0.000 C 
BRANCH   7   8
ATOM      8  C   UNL     1       5.862   4.207  14.396  0.00  0.00    +0.000 A 
ATOM      9  C   UNL     1       5.460   3.470  13.271  0.00  0.00    +0.000 A 
ATOM     10  C   UNL     1       6.176   3.548  12.074  0.00  0.00    +0.000 A 
ATOM     11  C   UNL     1       7.308   4.356  11.988  0.00  0.00    +0.000 A 
ATOM     12  C   UNL     1       7.728   5.080  13.103  0.00  0.00    +0.000 A 
ATOM     13  C   UNL     1       7.013   5.003  14.301  0.00  0.00    +0.000 A 
ENDBRANCH   7   8
ENDBRANCH   6   7
ENDBRANCH   3   6
ENDBRANCH   1   4
BRANCH   1  14
ATOM     14  N   UNL     1       2.684   6.296  18.650  0.00  0.00    +0.000 NA
ATOM     15  C   UNL     1       3.158   7.284  17.978  0.00  0.00    +0.000 C 
ATOM     16  N   UNL     1       2.498   8.469  17.762  0.00  0.00    +0.000 N 
ATOM     17  H   UNL     1       3.069   9.169  17.300  0.00  0.00    +0.000 HD
BRANCH  16  18
ATOM     18  C   UNL     1       1.486   9.024  18.582  0.00  0.00    +0.000 A 
ATOM     19  C   UNL     1       0.384   9.645  17.974  0.00  0.00    +0.000 A 
ATOM     20  C   UNL     1      -0.634  10.226  18.740  0.00  0.00    +0.000 A 
ATOM     21  C   UNL     1      -0.564  10.193  20.131  0.00  0.00    +0.000 A 
ATOM     22  C   UNL     1       0.510   9.563  20.755  0.00  0.00    +0.000 A 
ATOM     23  C   UNL     1       1.503   8.952  19.981  0.00  0.00    +0.000 A 
BRANCH  22  24
ATOM     24  C   UNL     1       0.541   9.505  22.240  0.00  0.00    +0.000 C 
ATOM     25  O   UNL     1      -0.454   9.679  22.922  0.00  0.00    +0.000 OA
BRANCH  24  26
ATOM     26  O   UNL     1       1.763   9.279  22.766  0.00  0.00    +0.000 OA
ATOM     27  H   UNL     1       1.782   8.749  23.585  0.00  0.00    +0.000 HD
ENDBRANCH  24  26
ENDBRANCH  22  24
ENDBRANCH  16  18
BRANCH  15  28
ATOM     28  S   UNL     1       4.766   7.319  17.266  0.00  0.00    +0.000 S 
ATOM     29  H   UNL     1       4.923   8.648  17.224  0.00  0.00    +0.000 HD
ENDBRANCH  15  28
ENDBRANCH   1  14
BRANCH   1  30
ATOM     30  C   UNL     1       2.449   3.928  19.584  0.00  0.00    +0.000 C 
ATOM     31 CL   UNL     1       3.283   2.607  20.495  0.00  0.00    +0.000 Cl
ATOM     32 CL   UNL     1       1.144   4.606  20.625  0.00  0.00    +0.000 Cl
ATOM     33 CL   UNL     1       1.606   3.045  18.224  0.00  0.00    +0.000 Cl
ENDBRANCH   1  30
TORSDOF 10
ENDMDL
