MODEL 1
REMARK VINA RESULT:      -7.6      0.000      0.000
REMARK  Name = 
REMARK  6 active torsions:
REMARK  status: ('A' for Active; 'I' for Inactive)
REMARK    1  A    between atoms: C_1  and  C_2
REMARK    2  A    between atoms: C_2  and  N_10
REMARK    3  A    between atoms: C_3  and  C_4
REMARK    4  A    between atoms: C_4  and  C_6
REMARK    5  A    between atoms: N_10  and  C_11
REMARK    6  A    between atoms: C_14  and  C_15
REMARK                            x       y       z     vdW  Elec       q    Type
REMARK                         _______ _______ _______ _____ _____    ______ ____
ROOT
ATOM      1  N   UNL     1       5.923   4.164  17.393  0.00  0.00    +0.000 N 
ATOM      2  H   UNL     1       6.610   3.446  17.621  0.00  0.00    +0.000 HD
ENDROOT
BRANCH   1   3
ATOM      3  C   UNL     1       4.721   3.975  18.109  0.00  0.00    +0.000 A 
ATOM      4  C   UNL     1       4.403   4.668  19.282  0.00  0.00    +0.000 A 
ATOM      5  C   UNL     1       3.201   4.430  19.960  0.00  0.00    +0.000 A 
ATOM      6  C   UNL     1       2.286   3.486  19.478  0.00  0.00    +0.000 A 
ATOM      7  C   UNL     1       2.610   2.770  18.318  0.00  0.00    +0.000 A 
ATOM      8  C   UNL     1       3.813   3.013  17.644  0.00  0.00    +0.000 A 
BRANCH   6   9
ATOM      9  C   UNL     1       0.967   3.249  20.171  0.00  0.00    +0.000 C 
ATOM     10  F   UNL     1       1.081   2.558  21.339  0.00  0.00    +0.000 F 
ATOM     11  F   UNL     1       0.334   4.412  20.488  0.00  0.00    +0.000 F 
ATOM     12  F   UNL     1       0.091   2.544  19.403  0.00  0.00    +0.000 F 
ENDBRANCH   6   9
ENDBRANCH   1   3
BRANCH   1  14
ATOM     13  C   UNL     1       5.292   6.023  15.948  0.00  0.00    +0.000 C 
ATOM     14  C   UNL     1       6.100   4.759  16.146  0.00  0.00    +0.000 C 
ATOM     15  C   UNL     1       6.855   4.185  15.189  0.00  0.00    +0.000 C 
BRANCH  15  16
ATOM     16  C   UNL     1       7.136   4.663  13.798  0.00  0.00    +0.000 C 
ATOM     17  O   UNL     1       7.928   5.582  13.594  0.00  0.00    +0.000 OA
BRANCH  16  18
ATOM     18  C   UNL     1       6.408   3.923  12.674  0.00  0.00    +0.000 C 
ATOM     19  F   UNL     1       5.048   3.976  12.782  0.00  0.00    +0.000 F 
ATOM     20  F   UNL     1       6.706   4.429  11.445  0.00  0.00    +0.000 F 
ATOM     21  F   UNL     1       6.726   2.600  12.637  0.00  0.00    +0.000 F 
ENDBRANCH  16  18
ENDBRANCH  15  16
ENDBRANCH   1  14
TORSDOF 5
ENDMDL
MODEL 2
REMARK VINA RESULT:      -7.6      1.075      1.652
REMARK  Name = 
REMARK  6 active torsions:
REMARK  status: ('A' for Active; 'I' for Inactive)
REMARK    1  A    between atoms: C_1  and  C_2
REMARK    2  A    between atoms: C_2  and  N_10
REMARK    3  A    between atoms: C_3  and  C_4
REMARK    4  A    between atoms: C_4  and  C_6
REMARK    5  A    between atoms: N_10  and  C_11
REMARK    6  A    between atoms: C_14  and  C_15
REMARK                            x       y       z     vdW  Elec       q    Type
REMARK                         _______ _______ _______ _____ _____    ______ ____
ROOT
ATOM      1  N   UNL     1       6.471   4.354  18.557  0.00  0.00    +0.000 N 
ATOM      2  H   UNL     1       7.136   3.677  18.929  0.00  0.00    +0.000 HD
ENDROOT
BRANCH   1   3
ATOM      3  C   UNL     1       5.162   4.106  19.027  0.00  0.00    +0.000 A 
ATOM      4  C   UNL     1       4.592   2.830  19.087  0.00  0.00    +0.000 A 
ATOM      5  C   UNL     1       3.284   2.643  19.549  0.00  0.00    +0.000 A 
ATOM      6  C   UNL     1       2.510   3.736  19.960  0.00  0.00    +0.000 A 
ATOM      7  C   UNL     1       3.067   5.019  19.877  0.00  0.00    +0.000 A 
ATOM      8  C   UNL     1       4.376   5.199  19.415  0.00  0.00    +0.000 A 
BRANCH   6   9
ATOM      9  C   UNL     1       1.116   3.547  20.502  0.00  0.00    +0.000 C 
ATOM     10  F   UNL     1       1.081   2.944  21.723  0.00  0.00    +0.000 F 
ATOM     11  F   UNL     1       0.455   4.728  20.653  0.00  0.00    +0.000 F 
ATOM     12  F   UNL     1       0.335   2.784  19.686  0.00  0.00    +0.000 F 
ENDBRANCH   6   9
ENDBRANCH   1   3
BRANCH   1  14
ATOM     13  C   UNL     1       7.334   6.376  17.503  0.00  0.00    +0.000 C 
ATOM     14  C   UNL     1       6.858   4.946  17.357  0.00  0.00    +0.000 C 
ATOM     15  C   UNL     1       6.720   4.310  16.178  0.00  0.00    +0.000 C 
BRANCH  15  16
ATOM     16  C   UNL     1       7.058   4.795  14.801  0.00  0.00    +0.000 C 
ATOM     17  O   UNL     1       7.907   5.670  14.630  0.00  0.00    +0.000 OA
BRANCH  16  18
ATOM     18  C   UNL     1       6.311   4.121  13.650  0.00  0.00    +0.000 C 
ATOM     19  F   UNL     1       6.323   2.757  13.721  0.00  0.00    +0.000 F 
ATOM     20  F   UNL     1       4.998   4.481  13.603  0.00  0.00    +0.000 F 
ATOM     21  F   UNL     1       6.843   4.433  12.436  0.00  0.00    +0.000 F 
ENDBRANCH  16  18
ENDBRANCH  15  16
ENDBRANCH   1  14
TORSDOF 5
ENDMDL
MODEL 3
REMARK VINA RESULT:      -7.6      1.041      1.353
REMARK  Name = 
REMARK  6 active torsions:
REMARK  status: ('A' for Active; 'I' for Inactive)
REMARK    1  A    between atoms: C_1  and  C_2
REMARK    2  A    between atoms: C_2  and  N_10
REMARK    3  A    between atoms: C_3  and  C_4
REMARK    4  A    between atoms: C_4  and  C_6
REMARK    5  A    between atoms: N_10  and  C_11
REMARK    6  A    between atoms: C_14  and  C_15
REMARK                            x       y       z     vdW  Elec       q    Type
REMARK                         _______ _______ _______ _____ _____    ______ ____
ROOT
ATOM      1  N   UNL     1       6.441   4.338  18.449  0.00  0.00    +0.000 N 
ATOM      2  H   UNL     1       7.060   3.595  18.775  0.00  0.00    +0.000 HD
ENDROOT
BRANCH   1   3
ATOM      3  C   UNL     1       5.137   4.191  18.973  0.00  0.00    +0.000 A 
ATOM      4  C   UNL     1       4.340   5.269  19.373  0.00  0.00    +0.000 A 
ATOM      5  C   UNL     1       3.059   5.065  19.899  0.00  0.00    +0.000 A 
ATOM      6  C   UNL     1       2.545   3.770  20.041  0.00  0.00    +0.000 A 
ATOM      7  C   UNL     1       3.349   2.685  19.667  0.00  0.00    +0.000 A 
ATOM      8  C   UNL     1       4.628   2.896  19.140  0.00  0.00    +0.000 A 
BRANCH   6   9
ATOM      9  C   UNL     1       1.150   3.535  20.565  0.00  0.00    +0.000 C 
ATOM     10  F   UNL     1       0.410   2.694  19.789  0.00  0.00    +0.000 F 
ATOM     11  F   UNL     1       1.151   2.986  21.811  0.00  0.00    +0.000 F 
ATOM     12  F   UNL     1       0.427   4.685  20.664  0.00  0.00    +0.000 F 
ENDBRANCH   6   9
ENDBRANCH   1   3
BRANCH   1  14
ATOM     13  C   UNL     1       7.245   6.374  17.378  0.00  0.00    +0.000 C 
ATOM     14  C   UNL     1       6.826   4.926  17.247  0.00  0.00    +0.000 C 
ATOM     15  C   UNL     1       6.732   4.267  16.075  0.00  0.00    +0.000 C 
BRANCH  15  16
ATOM     16  C   UNL     1       7.074   4.744  14.697  0.00  0.00    +0.000 C 
ATOM     17  O   UNL     1       7.956   5.585  14.520  0.00  0.00    +0.000 OA
BRANCH  16  18
ATOM     18  C   UNL     1       6.290   4.104  13.552  0.00  0.00    +0.000 C 
ATOM     19  F   UNL     1       4.972   4.460  13.530  0.00  0.00    +0.000 F 
ATOM     20  F   UNL     1       6.788   4.443  12.330  0.00  0.00    +0.000 F 
ATOM     21  F   UNL     1       6.305   2.744  13.612  0.00  0.00    +0.000 F 
ENDBRANCH  16  18
ENDBRANCH  15  16
ENDBRANCH   1  14
TORSDOF 5
ENDMDL
MODEL 4
REMARK VINA RESULT:      -7.6      0.051      1.190
REMARK  Name = 
REMARK  6 active torsions:
REMARK  status: ('A' for Active; 'I' for Inactive)
REMARK    1  A    between atoms: C_1  and  C_2
REMARK    2  A    between atoms: C_2  and  N_10
REMARK    3  A    between atoms: C_3  and  C_4
REMARK    4  A    between atoms: C_4  and  C_6
REMARK    5  A    between atoms: N_10  and  C_11
REMARK    6  A    between atoms: C_14  and  C_15
REMARK                            x       y       z     vdW  Elec       q    Type
REMARK                         _______ _______ _______ _____ _____    ______ ____
ROOT
ATOM      1  N   UNL     1       5.917   4.093  17.379  0.00  0.00    +0.000 N 
ATOM      2  H   UNL     1       6.582   3.346  17.582  0.00  0.00    +0.000 HD
ENDROOT
BRANCH   1   3
ATOM      3  C   UNL     1       4.714   3.925  18.099  0.00  0.00    +0.000 A 
ATOM      4  C   UNL     1       4.430   4.593  19.295  0.00  0.00    +0.000 A 
ATOM      5  C   UNL     1       3.225   4.376  19.975  0.00  0.00    +0.000 A 
ATOM      6  C   UNL     1       2.274   3.479  19.474  0.00  0.00    +0.000 A 
ATOM      7  C   UNL     1       2.565   2.787  18.291  0.00  0.00    +0.000 A 
ATOM      8  C   UNL     1       3.770   3.008  17.615  0.00  0.00    +0.000 A 
BRANCH   6   9
ATOM      9  C   UNL     1       0.954   3.268  20.171  0.00  0.00    +0.000 C 
ATOM     10  F   UNL     1       0.054   2.558  19.434  0.00  0.00    +0.000 F 
ATOM     11  F   UNL     1       1.090   2.589  21.343  0.00  0.00    +0.000 F 
ATOM     12  F   UNL     1       0.335   4.440  20.487  0.00  0.00    +0.000 F 
ENDBRANCH   6   9
ENDBRANCH   1   3
BRANCH   1  14
ATOM     13  C   UNL     1       5.351   6.019  15.996  0.00  0.00    +0.000 C 
ATOM     14  C   UNL     1       6.105   4.715  16.147  0.00  0.00    +0.000 C 
ATOM     15  C   UNL     1       6.821   4.136  15.164  0.00  0.00    +0.000 C 
BRANCH  15  16
ATOM     16  C   UNL     1       7.106   4.642  13.783  0.00  0.00    +0.000 C 
ATOM     17  O   UNL     1       7.883   5.579  13.601  0.00  0.00    +0.000 OA
BRANCH  16  18
ATOM     18  C   UNL     1       6.403   3.908  12.642  0.00  0.00    +0.000 C 
ATOM     19  F   UNL     1       6.693   4.416  11.408  0.00  0.00    +0.000 F 
ATOM     20  F   UNL     1       6.739   2.588  12.590  0.00  0.00    +0.000 F 
ATOM     21  F   UNL     1       5.047   3.958  12.753  0.00  0.00    +0.000 F 
ENDBRANCH  16  18
ENDBRANCH  15  16
ENDBRANCH   1  14
TORSDOF 5
ENDMDL
MODEL 5
REMARK VINA RESULT:      -7.5      0.108      1.616
REMARK  Name = 
REMARK  6 active torsions:
REMARK  status: ('A' for Active; 'I' for Inactive)
REMARK    1  A    between atoms: C_1  and  C_2
REMARK    2  A    between atoms: C_2  and  N_10
REMARK    3  A    between atoms: C_3  and  C_4
REMARK    4  A    between atoms: C_4  and  C_6
REMARK    5  A    between atoms: N_10  and  C_11
REMARK    6  A    between atoms: C_14  and  C_15
REMARK                            x       y       z     vdW  Elec       q    Type
REMARK                         _______ _______ _______ _____ _____    ______ ____
ROOT
ATOM      1  N   UNL     1       5.905   4.163  17.371  0.00  0.00    +0.000 N 
ATOM      2  H   UNL     1       6.610   3.470  17.624  0.00  0.00    +0.000 HD
ENDROOT
BRANCH   1   3
ATOM      3  C   UNL     1       4.684   3.926  18.039  0.00  0.00    +0.000 A 
ATOM      4  C   UNL     1       3.693   3.065  17.555  0.00  0.00    +0.000 A 
ATOM      5  C   UNL     1       2.493   2.878  18.252  0.00  0.00    +0.000 A 
ATOM      6  C   UNL     1       2.255   3.555  19.455  0.00  0.00    +0.000 A 
ATOM      7  C   UNL     1       3.232   4.439  19.931  0.00  0.00    +0.000 A 
ATOM      8  C   UNL     1       4.430   4.620  19.230  0.00  0.00    +0.000 A 
BRANCH   6   9
ATOM      9  C   UNL     1       0.987   3.331  20.240  0.00  0.00    +0.000 C 
ATOM     10  F   UNL     1       0.053   2.599  19.572  0.00  0.00    +0.000 F 
ATOM     11  F   UNL     1       1.212   2.667  21.407  0.00  0.00    +0.000 F 
ATOM     12  F   UNL     1       0.372   4.496  20.586  0.00  0.00    +0.000 F 
ENDBRANCH   6   9
ENDBRANCH   1   3
BRANCH   1  14
ATOM     13  C   UNL     1       5.343   6.062  15.950  0.00  0.00    +0.000 C 
ATOM     14  C   UNL     1       6.108   4.769  16.134  0.00  0.00    +0.000 C 
ATOM     15  C   UNL     1       6.847   4.183  15.172  0.00  0.00    +0.000 C 
BRANCH  15  16
ATOM     16  C   UNL     1       7.151   4.672  13.789  0.00  0.00    +0.000 C 
ATOM     17  O   UNL     1       7.930   5.607  13.606  0.00  0.00    +0.000 OA
BRANCH  16  18
ATOM     18  C   UNL     1       6.463   3.923  12.647  0.00  0.00    +0.000 C 
ATOM     19  F   UNL     1       6.847   4.351  11.408  0.00  0.00    +0.000 F 
ATOM     20  F   UNL     1       6.719   2.586  12.677  0.00  0.00    +0.000 F 
ATOM     21  F   UNL     1       5.109   4.059  12.682  0.00  0.00    +0.000 F 
ENDBRANCH  16  18
ENDBRANCH  15  16
ENDBRANCH   1  14
TORSDOF 5
ENDMDL
MODEL 6
REMARK VINA RESULT:      -7.5      0.432      1.037
REMARK  Name = 
REMARK  6 active torsions:
REMARK  status: ('A' for Active; 'I' for Inactive)
REMARK    1  A    between atoms: C_1  and  C_2
REMARK    2  A    between atoms: C_2  and  N_10
REMARK    3  A    between atoms: C_3  and  C_4
REMARK    4  A    between atoms: C_4  and  C_6
REMARK    5  A    between atoms: N_10  and  C_11
REMARK    6  A    between atoms: C_14  and  C_15
REMARK                            x       y       z     vdW  Elec       q    Type
REMARK                         _______ _______ _______ _____ _____    ______ ____
ROOT
ATOM      1  N   UNL     1       5.936   4.022  17.249  0.00  0.00    +0.000 N 
ATOM      2  H   UNL     1       6.602   3.283  17.476  0.00  0.00    +0.000 HD
ENDROOT
BRANCH   1   3
ATOM      3  C   UNL     1       4.689   3.804  17.877  0.00  0.00    +0.000 A 
ATOM      4  C   UNL     1       3.493   3.623  17.175  0.00  0.00    +0.000 A 
ATOM      5  C   UNL     1       2.282   3.425  17.850  0.00  0.00    +0.000 A 
ATOM      6  C   UNL     1       2.240   3.408  19.249  0.00  0.00    +0.000 A 
ATOM      7  C   UNL     1       3.431   3.615  19.958  0.00  0.00    +0.000 A 
ATOM      8  C   UNL     1       4.638   3.811  19.277  0.00  0.00    +0.000 A 
BRANCH   6   9
ATOM      9  C   UNL     1       0.951   3.152  19.990  0.00  0.00    +0.000 C 
ATOM     10  F   UNL     1       1.117   2.448  21.145  0.00  0.00    +0.000 F 
ATOM     11  F   UNL     1       0.321   4.305  20.346  0.00  0.00    +0.000 F 
ATOM     12  F   UNL     1       0.052   2.447  19.249  0.00  0.00    +0.000 F 
ENDBRANCH   6   9
ENDBRANCH   1   3
BRANCH   1  14
ATOM     13  C   UNL     1       5.642   6.095  16.002  0.00  0.00    +0.000 C 
ATOM     14  C   UNL     1       6.195   4.687  16.054  0.00  0.00    +0.000 C 
ATOM     15  C   UNL     1       6.802   4.073  15.020  0.00  0.00    +0.000 C 
BRANCH  15  16
ATOM     16  C   UNL     1       7.138   4.619  13.666  0.00  0.00    +0.000 C 
ATOM     17  O   UNL     1       7.927   5.555  13.540  0.00  0.00    +0.000 OA
BRANCH  16  18
ATOM     18  C   UNL     1       6.469   3.926  12.479  0.00  0.00    +0.000 C 
ATOM     19  F   UNL     1       5.105   3.951  12.534  0.00  0.00    +0.000 F 
ATOM     20  F   UNL     1       6.805   4.498  11.289  0.00  0.00    +0.000 F 
ATOM     21  F   UNL     1       6.812   2.612  12.388  0.00  0.00    +0.000 F 
ENDBRANCH  16  18
ENDBRANCH  15  16
ENDBRANCH   1  14
TORSDOF 5
ENDMDL
MODEL 7
REMARK VINA RESULT:      -7.4      1.052      1.444
REMARK  Name = 
REMARK  6 active torsions:
REMARK  status: ('A' for Active; 'I' for Inactive)
REMARK    1  A    between atoms: C_1  and  C_2
REMARK    2  A    between atoms: C_2  and  N_10
REMARK    3  A    between atoms: C_3  and  C_4
REMARK    4  A    between atoms: C_4  and  C_6
REMARK    5  A    between atoms: N_10  and  C_11
REMARK    6  A    between atoms: C_14  and  C_15
REMARK                            x       y       z     vdW  Elec       q    Type
REMARK                         _______ _______ _______ _____ _____    ______ ____
ROOT
ATOM      1  N   UNL     1       5.375   3.502  16.424  0.00  0.00    +0.000 N 
ATOM      2  H   UNL     1       5.289   2.531  16.124  0.00  0.00    +0.000 HD
ENDROOT
BRANCH   1   3
ATOM      3  C   UNL     1       4.489   3.795  17.485  0.00  0.00    +0.000 A 
ATOM      4  C   UNL     1       4.895   4.371  18.693  0.00  0.00    +0.000 A 
ATOM      5  C   UNL     1       3.975   4.627  19.717  0.00  0.00    +0.000 A 
ATOM      6  C   UNL     1       2.621   4.306  19.556  0.00  0.00    +0.000 A 
ATOM      7  C   UNL     1       2.213   3.704  18.358  0.00  0.00    +0.000 A 
ATOM      8  C   UNL     1       3.138   3.452  17.338  0.00  0.00    +0.000 A 
BRANCH   6   9
ATOM      9  C   UNL     1       1.610   4.615  20.632  0.00  0.00    +0.000 C 
ATOM     10  F   UNL     1       1.889   4.025  21.828  0.00  0.00    +0.000 F 
ATOM     11  F   UNL     1       1.519   5.949  20.889  0.00  0.00    +0.000 F 
ATOM     12  F   UNL     1       0.352   4.211  20.301  0.00  0.00    +0.000 F 
ENDBRANCH   6   9
ENDBRANCH   1   3
BRANCH   1  14
ATOM     13  C   UNL     1       5.304   5.768  15.528  0.00  0.00    +0.000 C 
ATOM     14  C   UNL     1       5.872   4.367  15.452  0.00  0.00    +0.000 C 
ATOM     15  C   UNL     1       6.708   3.940  14.487  0.00  0.00    +0.000 C 
BRANCH  15  16
ATOM     16  C   UNL     1       7.318   4.715  13.359  0.00  0.00    +0.000 C 
ATOM     17  O   UNL     1       8.058   5.674  13.578  0.00  0.00    +0.000 OA
BRANCH  16  18
ATOM     18  C   UNL     1       6.988   4.221  11.950  0.00  0.00    +0.000 C 
ATOM     19  F   UNL     1       7.636   3.067  11.613  0.00  0.00    +0.000 F 
ATOM     20  F   UNL     1       5.660   3.963  11.791  0.00  0.00    +0.000 F 
ATOM     21  F   UNL     1       7.324   5.128  10.993  0.00  0.00    +0.000 F 
ENDBRANCH  16  18
ENDBRANCH  15  16
ENDBRANCH   1  14
TORSDOF 5
ENDMDL
MODEL 8
REMARK VINA RESULT:      -7.4      0.874      1.556
REMARK  Name = 
REMARK  6 active torsions:
REMARK  status: ('A' for Active; 'I' for Inactive)
REMARK    1  A    between atoms: C_1  and  C_2
REMARK    2  A    between atoms: C_2  and  N_10
REMARK    3  A    between atoms: C_3  and  C_4
REMARK    4  A    between atoms: C_4  and  C_6
REMARK    5  A    between atoms: N_10  and  C_11
REMARK    6  A    between atoms: C_14  and  C_15
REMARK                            x       y       z     vdW  Elec       q    Type
REMARK                         _______ _______ _______ _____ _____    ______ ____
ROOT
ATOM      1  N   UNL     1       5.384   3.347  16.656  0.00  0.00    +0.000 N 
ATOM      2  H   UNL     1       5.514   2.361  16.429  0.00  0.00    +0.000 HD
ENDROOT
BRANCH   1   3
ATOM      3  C   UNL     1       4.323   3.533  17.570  0.00  0.00    +0.000 A 
ATOM      4  C   UNL     1       2.974   3.495  17.204  0.00  0.00    +0.000 A 
ATOM      5  C   UNL     1       1.962   3.700  18.151  0.00  0.00    +0.000 A 
ATOM      6  C   UNL     1       2.280   3.952  19.491  0.00  0.00    +0.000 A 
ATOM      7  C   UNL     1       3.631   4.017  19.858  0.00  0.00    +0.000 A 
ATOM      8  C   UNL     1       4.637   3.810  18.907  0.00  0.00    +0.000 A 
BRANCH   6   9
ATOM      9  C   UNL     1       1.202   4.130  20.531  0.00  0.00    +0.000 C 
ATOM     10  F   UNL     1       1.502   3.560  21.731  0.00  0.00    +0.000 F 
ATOM     11  F   UNL     1       0.952   5.442  20.796  0.00  0.00    +0.000 F 
ATOM     12  F   UNL     1       0.011   3.592  20.148  0.00  0.00    +0.000 F 
ENDBRANCH   6   9
ENDBRANCH   1   3
BRANCH   1  14
ATOM     13  C   UNL     1       5.402   5.662  15.891  0.00  0.00    +0.000 C 
ATOM     14  C   UNL     1       5.850   4.231  15.685  0.00  0.00    +0.000 C 
ATOM     15  C   UNL     1       6.554   3.803  14.619  0.00  0.00    +0.000 C 
BRANCH  15  16
ATOM     16  C   UNL     1       7.109   4.597  13.477  0.00  0.00    +0.000 C 
ATOM     17  O   UNL     1       7.776   5.612  13.679  0.00  0.00    +0.000 OA
BRANCH  16  18
ATOM     18  C   UNL     1       6.821   4.052  12.078  0.00  0.00    +0.000 C 
ATOM     19  F   UNL     1       7.417   2.849  11.831  0.00  0.00    +0.000 F 
ATOM     20  F   UNL     1       5.490   3.861  11.861  0.00  0.00    +0.000 F 
ATOM     21  F   UNL     1       7.258   4.890  11.097  0.00  0.00    +0.000 F 
ENDBRANCH  16  18
ENDBRANCH  15  16
ENDBRANCH   1  14
TORSDOF 5
ENDMDL
MODEL 9
REMARK VINA RESULT:      -7.4      0.899      1.760
REMARK  Name = 
REMARK  6 active torsions:
REMARK  status: ('A' for Active; 'I' for Inactive)
REMARK    1  A    between atoms: C_1  and  C_2
REMARK    2  A    between atoms: C_2  and  N_10
REMARK    3  A    between atoms: C_3  and  C_4
REMARK    4  A    between atoms: C_4  and  C_6
REMARK    5  A    between atoms: N_10  and  C_11
REMARK    6  A    between atoms: C_14  and  C_15
REMARK                            x       y       z     vdW  Elec       q    Type
REMARK                         _______ _______ _______ _____ _____    ______ ____
ROOT
ATOM      1  N   UNL     1       5.745   4.013  16.827  0.00  0.00    +0.000 N 
ATOM      2  H   UNL     1       6.493   3.388  17.128  0.00  0.00    +0.000 HD
ENDROOT
BRANCH   1   3
ATOM      3  C   UNL     1       4.570   3.816  17.586  0.00  0.00    +0.000 A 
ATOM      4  C   UNL     1       3.341   3.452  17.027  0.00  0.00    +0.000 A 
ATOM      5  C   UNL     1       2.204   3.284  17.827  0.00  0.00    +0.000 A 
ATOM      6  C   UNL     1       2.271   3.483  19.212  0.00  0.00    +0.000 A 
ATOM      7  C   UNL     1       3.493   3.875  19.774  0.00  0.00    +0.000 A 
ATOM      8  C   UNL     1       4.626   4.039  18.969  0.00  0.00    +0.000 A 
BRANCH   6   9
ATOM      9  C   UNL     1       1.066   3.264  20.093  0.00  0.00    +0.000 C 
ATOM     10  F   UNL     1       0.505   4.420  20.547  0.00  0.00    +0.000 F 
ATOM     11  F   UNL     1       0.070   2.596  19.449  0.00  0.00    +0.000 F 
ATOM     12  F   UNL     1       1.355   2.528  21.202  0.00  0.00    +0.000 F 
ENDBRANCH   6   9
ENDBRANCH   1   3
BRANCH   1  14
ATOM     13  C   UNL     1       5.418   5.891  15.309  0.00  0.00    +0.000 C 
ATOM     14  C   UNL     1       5.857   4.457  15.512  0.00  0.00    +0.000 C 
ATOM     15  C   UNL     1       6.235   3.632  14.516  0.00  0.00    +0.000 C 
BRANCH  15  16
ATOM     16  C   UNL     1       6.387   3.927  13.055  0.00  0.00    +0.000 C 
ATOM     17  O   UNL     1       7.331   4.601  12.642  0.00  0.00    +0.000 OA
BRANCH  16  18
ATOM     18  C   UNL     1       5.328   3.321  12.135  0.00  0.00    +0.000 C 
ATOM     19  F   UNL     1       5.149   4.021  10.977  0.00  0.00    +0.000 F 
ATOM     20  F   UNL     1       5.637   2.049  11.758  0.00  0.00    +0.000 F 
ATOM     21  F   UNL     1       4.102   3.263  12.725  0.00  0.00    +0.000 F 
ENDBRANCH  16  18
ENDBRANCH  15  16
ENDBRANCH   1  14
TORSDOF 5
ENDMDL
