MODEL 1
REMARK VINA RESULT:      -6.5      0.000      0.000
REMARK  Name = 
REMARK  10 active torsions:
REMARK  status: ('A' for Active; 'I' for Inactive)
REMARK    1  A    between atoms: N_1  and  C_2
REMARK    2  A    between atoms: N_10  and  C_11
REMARK    3  A    between atoms: C_11  and  C_12
REMARK    4  A    between atoms: C_12  and  O_13
REMARK    5  A    between atoms: O_13  and  C_14
REMARK    6  A    between atoms: C_14  and  P_15
REMARK    7  A    between atoms: P_15  and  O_17
REMARK    8  A    between atoms: P_15  and  O_18
REMARK    9  A    between atoms: O_18  and  C_19
REMARK   10  A    between atoms: C_19  and  C_20
REMARK                            x       y       z     vdW  Elec       q    Type
REMARK                         _______ _______ _______ _____ _____    ______ ____
ROOT
ATOM      1  C   UNL     1       3.966   6.324  17.384  0.00  0.00    +0.000 C 
ENDROOT
BRANCH   1  10
ATOM      2  C   UNL     1       4.490   2.006  19.458  0.00  0.00    +0.000 A 
ATOM      3  N   UNL     1       3.586   1.382  18.668  0.00  0.00    +0.000 NA
ATOM      4  C   UNL     1       2.941   2.112  17.733  0.00  0.00    +0.000 A 
ATOM      5  N   UNL     1       3.075   3.426  17.453  0.00  0.00    +0.000 NA
ATOM      6  C   UNL     1       4.003   3.985  18.246  0.00  0.00    +0.000 A 
ATOM      7  C   UNL     1       4.741   3.370  19.244  0.00  0.00    +0.000 A 
ATOM      8  N   UNL     1       5.615   4.263  19.832  0.00  0.00    +0.000 NA
ATOM      9  C   UNL     1       5.407   5.401  19.209  0.00  0.00    +0.000 A 
ATOM     10  N   UNL     1       4.436   5.279  18.260  0.00  0.00    +0.000 N 
BRANCH   2  11
ATOM     11  N   UNL     1       5.150   1.265  20.432  0.00  0.00    +0.000 N 
ATOM     12  H   UNL     1       4.901   1.559  21.366  0.00  0.00    +0.000 HD
ATOM     13  H   UNL     1       5.151   0.270  20.233  0.00  0.00    +0.000 HD
ENDBRANCH   2  11
ENDBRANCH   1  10
BRANCH   1  14
ATOM     14  C   UNL     1       4.963   6.635  16.268  0.00  0.00    +0.000 C 
BRANCH  14  15
ATOM     15  O   UNL     1       6.142   7.276  16.771  0.00  0.00    +0.000 OA
BRANCH  15  16
ATOM     16  C   UNL     1       7.306   6.513  16.449  0.00  0.00    +0.000 C 
BRANCH  16  17
ATOM     17  P   UNL     1       6.861   5.033  15.468  0.00  0.00    +0.000 P 
ATOM     18  O   UNL     1       7.917   5.499  14.450  0.00  0.00    +0.000 OA
BRANCH  17  19
ATOM     19  O   UNL     1       7.699   4.067  16.500  0.00  0.00    +0.000 OA
ATOM     20  H   UNL     1       7.976   4.578  17.286  0.00  0.00    +0.000 HD
ENDBRANCH  17  19
BRANCH  17  21
ATOM     21  O   UNL     1       6.441   3.634  14.541  0.00  0.00    +0.000 OA
BRANCH  21  22
ATOM     22  C   UNL     1       5.303   3.731  13.662  0.00  0.00    +0.000 C 
BRANCH  22  23
ATOM     23  C   UNL     1       5.568   3.423  12.172  0.00  0.00    +0.000 C 
ATOM     24 CL   UNL     1       4.180   3.790  11.104  0.00  0.00    +0.000 Cl
ATOM     25 CL   UNL     1       6.987   4.372  11.590  0.00  0.00    +0.000 Cl
ATOM     26 CL   UNL     1       5.985   1.679  11.968  0.00  0.00    +0.000 Cl
ENDBRANCH  22  23
ENDBRANCH  21  22
ENDBRANCH  17  21
ENDBRANCH  16  17
ENDBRANCH  15  16
ENDBRANCH  14  15
ENDBRANCH   1  14
TORSDOF 10
ENDMDL
MODEL 2
REMARK VINA RESULT:      -6.3      1.282      2.259
REMARK  Name = 
REMARK  10 active torsions:
REMARK  status: ('A' for Active; 'I' for Inactive)
REMARK    1  A    between atoms: N_1  and  C_2
REMARK    2  A    between atoms: N_10  and  C_11
REMARK    3  A    between atoms: C_11  and  C_12
REMARK    4  A    between atoms: C_12  and  O_13
REMARK    5  A    between atoms: O_13  and  C_14
REMARK    6  A    between atoms: C_14  and  P_15
REMARK    7  A    between atoms: P_15  and  O_17
REMARK    8  A    between atoms: P_15  and  O_18
REMARK    9  A    between atoms: O_18  and  C_19
REMARK   10  A    between atoms: C_19  and  C_20
REMARK                            x       y       z     vdW  Elec       q    Type
REMARK                         _______ _______ _______ _____ _____    ______ ____
ROOT
ATOM      1  C   UNL     1       3.346   6.900  17.881  0.00  0.00    +0.000 C 
ENDROOT
BRANCH   1  10
ATOM      2  C   UNL     1       2.662   2.254  18.961  0.00  0.00    +0.000 A 
ATOM      3  N   UNL     1       3.868   2.088  19.551  0.00  0.00    +0.000 NA
ATOM      4  C   UNL     1       4.713   3.141  19.589  0.00  0.00    +0.000 A 
ATOM      5  N   UNL     1       4.520   4.390  19.113  0.00  0.00    +0.000 NA
ATOM      6  C   UNL     1       3.299   4.503  18.565  0.00  0.00    +0.000 A 
ATOM      7  C   UNL     1       2.332   3.519  18.451  0.00  0.00    +0.000 A 
ATOM      8  N   UNL     1       1.192   4.015  17.849  0.00  0.00    +0.000 NA
ATOM      9  C   UNL     1       1.465   5.275  17.594  0.00  0.00    +0.000 A 
ATOM     10  N   UNL     1       2.727   5.603  17.996  0.00  0.00    +0.000 N 
BRANCH   2  11
ATOM     11  N   UNL     1       1.791   1.171  18.905  0.00  0.00    +0.000 N 
ATOM     12  H   UNL     1       0.914   1.367  19.366  0.00  0.00    +0.000 HD
ATOM     13  H   UNL     1       1.758   0.741  17.987  0.00  0.00    +0.000 HD
ENDBRANCH   2  11
ENDBRANCH   1  10
BRANCH   1  14
ATOM     14  C   UNL     1       4.469   6.916  16.846  0.00  0.00    +0.000 C 
BRANCH  14  15
ATOM     15  O   UNL     1       5.747   7.149  17.452  0.00  0.00    +0.000 OA
BRANCH  15  16
ATOM     16  C   UNL     1       6.687   6.155  17.041  0.00  0.00    +0.000 C 
BRANCH  16  17
ATOM     17  P   UNL     1       6.042   5.197  15.622  0.00  0.00    +0.000 P 
ATOM     18  O   UNL     1       7.451   5.317  15.013  0.00  0.00    +0.000 OA
BRANCH  17  19
ATOM     19  O   UNL     1       6.101   3.809  16.499  0.00  0.00    +0.000 OA
ATOM     20  H   UNL     1       5.213   3.403  16.542  0.00  0.00    +0.000 HD
ENDBRANCH  17  19
BRANCH  17  21
ATOM     21  O   UNL     1       5.432   4.292  14.279  0.00  0.00    +0.000 OA
BRANCH  21  22
ATOM     22  C   UNL     1       6.356   3.448  13.566  0.00  0.00    +0.000 C 
BRANCH  22  23
ATOM     23  C   UNL     1       6.198   3.414  12.029  0.00  0.00    +0.000 C 
ATOM     24 CL   UNL     1       7.189   4.633  11.175  0.00  0.00    +0.000 Cl
ATOM     25 CL   UNL     1       6.651   1.785  11.401  0.00  0.00    +0.000 Cl
ATOM     26 CL   UNL     1       4.470   3.684  11.582  0.00  0.00    +0.000 Cl
ENDBRANCH  22  23
ENDBRANCH  21  22
ENDBRANCH  17  21
ENDBRANCH  16  17
ENDBRANCH  15  16
ENDBRANCH  14  15
ENDBRANCH   1  14
TORSDOF 10
ENDMDL
MODEL 3
REMARK VINA RESULT:      -6.2      6.650      8.934
REMARK  Name = 
REMARK  10 active torsions:
REMARK  status: ('A' for Active; 'I' for Inactive)
REMARK    1  A    between atoms: N_1  and  C_2
REMARK    2  A    between atoms: N_10  and  C_11
REMARK    3  A    between atoms: C_11  and  C_12
REMARK    4  A    between atoms: C_12  and  O_13
REMARK    5  A    between atoms: O_13  and  C_14
REMARK    6  A    between atoms: C_14  and  P_15
REMARK    7  A    between atoms: P_15  and  O_17
REMARK    8  A    between atoms: P_15  and  O_18
REMARK    9  A    between atoms: O_18  and  C_19
REMARK   10  A    between atoms: C_19  and  C_20
REMARK                            x       y       z     vdW  Elec       q    Type
REMARK                         _______ _______ _______ _____ _____    ______ ____
ROOT
ATOM      1  C   UNL     1       8.901   9.687  18.787  0.00  0.00    +0.000 C 
ENDROOT
BRANCH   1  10
ATOM      2  C   UNL     1      10.778  13.955  17.568  0.00  0.00    +0.000 A 
ATOM      3  N   UNL     1      12.015  13.682  18.040  0.00  0.00    +0.000 NA
ATOM      4  C   UNL     1      12.229  12.483  18.623  0.00  0.00    +0.000 A 
ATOM      5  N   UNL     1      11.355  11.470  18.805  0.00  0.00    +0.000 NA
ATOM      6  C   UNL     1      10.154  11.786  18.293  0.00  0.00    +0.000 A 
ATOM      7  C   UNL     1       9.786  12.968  17.672  0.00  0.00    +0.000 A 
ATOM      8  N   UNL     1       8.470  12.916  17.255  0.00  0.00    +0.000 NA
ATOM      9  C   UNL     1       8.044  11.729  17.623  0.00  0.00    +0.000 A 
ATOM     10  N   UNL     1       9.021  11.025  18.263  0.00  0.00    +0.000 N 
BRANCH   2  11
ATOM     11  N   UNL     1      10.546  15.193  16.977  0.00  0.00    +0.000 N 
ATOM     12  H   UNL     1      10.292  15.895  17.656  0.00  0.00    +0.000 HD
ATOM     13  H   UNL     1      11.248  15.434  16.285  0.00  0.00    +0.000 HD
ENDBRANCH   2  11
ENDBRANCH   1  10
BRANCH   1  14
ATOM     14  C   UNL     1       8.055   8.787  17.887  0.00  0.00    +0.000 C 
BRANCH  14  15
ATOM     15  O   UNL     1       8.071   7.425  18.331  0.00  0.00    +0.000 OA
BRANCH  15  16
ATOM     16  C   UNL     1       7.334   6.594  17.433  0.00  0.00    +0.000 C 
BRANCH  16  17
ATOM     17  P   UNL     1       6.163   5.527  18.350  0.00  0.00    +0.000 P 
ATOM     18  O   UNL     1       5.285   5.556  17.086  0.00  0.00    +0.000 OA
BRANCH  17  19
ATOM     19  O   UNL     1       7.139   4.223  18.129  0.00  0.00    +0.000 OA
ATOM     20  H   UNL     1       7.925   4.480  17.607  0.00  0.00    +0.000 HD
ENDBRANCH  17  19
BRANCH  17  21
ATOM     21  O   UNL     1       5.056   4.518  19.216  0.00  0.00    +0.000 OA
BRANCH  21  22
ATOM     22  C   UNL     1       3.804   5.099  19.629  0.00  0.00    +0.000 C 
BRANCH  22  23
ATOM     23  C   UNL     1       2.538   4.261  19.345  0.00  0.00    +0.000 C 
ATOM     24 CL   UNL     1       1.837   4.542  17.723  0.00  0.00    +0.000 Cl
ATOM     25 CL   UNL     1       2.918   2.504  19.493  0.00  0.00    +0.000 Cl
ATOM     26 CL   UNL     1       1.268   4.626  20.575  0.00  0.00    +0.000 Cl
ENDBRANCH  22  23
ENDBRANCH  21  22
ENDBRANCH  17  21
ENDBRANCH  16  17
ENDBRANCH  15  16
ENDBRANCH  14  15
ENDBRANCH   1  14
TORSDOF 10
ENDMDL
MODEL 4
REMARK VINA RESULT:      -6.2      6.955      9.129
REMARK  Name = 
REMARK  10 active torsions:
REMARK  status: ('A' for Active; 'I' for Inactive)
REMARK    1  A    between atoms: N_1  and  C_2
REMARK    2  A    between atoms: N_10  and  C_11
REMARK    3  A    between atoms: C_11  and  C_12
REMARK    4  A    between atoms: C_12  and  O_13
REMARK    5  A    between atoms: O_13  and  C_14
REMARK    6  A    between atoms: C_14  and  P_15
REMARK    7  A    between atoms: P_15  and  O_17
REMARK    8  A    between atoms: P_15  and  O_18
REMARK    9  A    between atoms: O_18  and  C_19
REMARK   10  A    between atoms: C_19  and  C_20
REMARK                            x       y       z     vdW  Elec       q    Type
REMARK                         _______ _______ _______ _____ _____    ______ ____
ROOT
ATOM      1  C   UNL     1       9.419  10.629  19.179  0.00  0.00    +0.000 C 
ENDROOT
BRANCH   1  10
ATOM      2  C   UNL     1      10.688  14.912  17.371  0.00  0.00    +0.000 A 
ATOM      3  N   UNL     1       9.534  15.532  17.708  0.00  0.00    +0.000 NA
ATOM      4  C   UNL     1       8.573  14.808  18.321  0.00  0.00    +0.000 A 
ATOM      5  N   UNL     1       8.598  13.504  18.670  0.00  0.00    +0.000 NA
ATOM      6  C   UNL     1       9.775  12.949  18.338  0.00  0.00    +0.000 A 
ATOM      7  C   UNL     1      10.847  13.560  17.708  0.00  0.00    +0.000 A 
ATOM      8  N   UNL     1      11.896  12.674  17.552  0.00  0.00    +0.000 NA
ATOM      9  C   UNL     1      11.466  11.545  18.070  0.00  0.00    +0.000 A 
ATOM     10  N   UNL     1      10.191  11.666  18.539  0.00  0.00    +0.000 N 
BRANCH   2  11
ATOM     11  N   UNL     1      11.679  15.647  16.728  0.00  0.00    +0.000 N 
ATOM     12  H   UNL     1      11.752  15.408  15.750  0.00  0.00    +0.000 HD
ATOM     13  H   UNL     1      11.659  16.631  16.976  0.00  0.00    +0.000 HD
ENDBRANCH   2  11
ENDBRANCH   1  10
BRANCH   1  14
ATOM     14  C   UNL     1       8.544   9.864  18.188  0.00  0.00    +0.000 C 
BRANCH  14  15
ATOM     15  O   UNL     1       8.461   8.472  18.517  0.00  0.00    +0.000 OA
BRANCH  15  16
ATOM     16  C   UNL     1       7.740   7.759  17.510  0.00  0.00    +0.000 C 
BRANCH  16  17
ATOM     17  P   UNL     1       7.067   6.194  18.180  0.00  0.00    +0.000 P 
ATOM     18  O   UNL     1       7.687   5.504  16.951  0.00  0.00    +0.000 OA
BRANCH  17  19
ATOM     19  O   UNL     1       8.256   6.138  19.313  0.00  0.00    +0.000 OA
ATOM     20  H   UNL     1       8.474   5.209  19.522  0.00  0.00    +0.000 HD
ENDBRANCH  17  19
BRANCH  17  21
ATOM     21  O   UNL     1       6.430   4.715  18.812  0.00  0.00    +0.000 OA
BRANCH  21  22
ATOM     22  C   UNL     1       5.081   4.729  19.317  0.00  0.00    +0.000 C 
BRANCH  22  23
ATOM     23  C   UNL     1       3.959   4.598  18.263  0.00  0.00    +0.000 C 
ATOM     24 CL   UNL     1       2.545   3.660  18.829  0.00  0.00    +0.000 Cl
ATOM     25 CL   UNL     1       3.384   6.235  17.770  0.00  0.00    +0.000 Cl
ATOM     26 CL   UNL     1       4.601   3.800  16.777  0.00  0.00    +0.000 Cl
ENDBRANCH  22  23
ENDBRANCH  21  22
ENDBRANCH  17  21
ENDBRANCH  16  17
ENDBRANCH  15  16
ENDBRANCH  14  15
ENDBRANCH   1  14
TORSDOF 10
ENDMDL
MODEL 5
REMARK VINA RESULT:      -6.2      1.742      2.654
REMARK  Name = 
REMARK  10 active torsions:
REMARK  status: ('A' for Active; 'I' for Inactive)
REMARK    1  A    between atoms: N_1  and  C_2
REMARK    2  A    between atoms: N_10  and  C_11
REMARK    3  A    between atoms: C_11  and  C_12
REMARK    4  A    between atoms: C_12  and  O_13
REMARK    5  A    between atoms: O_13  and  C_14
REMARK    6  A    between atoms: C_14  and  P_15
REMARK    7  A    between atoms: P_15  and  O_17
REMARK    8  A    between atoms: P_15  and  O_18
REMARK    9  A    between atoms: O_18  and  C_19
REMARK   10  A    between atoms: C_19  and  C_20
REMARK                            x       y       z     vdW  Elec       q    Type
REMARK                         _______ _______ _______ _____ _____    ______ ____
ROOT
ATOM      1  C   UNL     1       4.513   6.001  18.477  0.00  0.00    +0.000 C 
ENDROOT
BRANCH   1  10
ATOM      2  C   UNL     1       1.257   2.560  19.357  0.00  0.00    +0.000 A 
ATOM      3  N   UNL     1       1.126   2.851  20.671  0.00  0.00    +0.000 NA
ATOM      4  C   UNL     1       1.876   3.849  21.185  0.00  0.00    +0.000 A 
ATOM      5  N   UNL     1       2.770   4.638  20.552  0.00  0.00    +0.000 NA
ATOM      6  C   UNL     1       2.837   4.323  19.248  0.00  0.00    +0.000 A 
ATOM      7  C   UNL     1       2.136   3.331  18.583  0.00  0.00    +0.000 A 
ATOM      8  N   UNL     1       2.453   3.321  17.238  0.00  0.00    +0.000 NA
ATOM      9  C   UNL     1       3.336   4.283  17.091  0.00  0.00    +0.000 A 
ATOM     10  N   UNL     1       3.604   4.899  18.277  0.00  0.00    +0.000 N 
BRANCH   2  11
ATOM     11  N   UNL     1       0.496   1.525  18.823  0.00  0.00    +0.000 N 
ATOM     12  H   UNL     1       1.014   0.986  18.143  0.00  0.00    +0.000 HD
ATOM     13  H   UNL     1      -0.027   1.019  19.529  0.00  0.00    +0.000 HD
ENDBRANCH   2  11
ENDBRANCH   1  10
BRANCH   1  14
ATOM     14  C   UNL     1       5.906   5.535  18.895  0.00  0.00    +0.000 C 
BRANCH  14  15
ATOM     15  O   UNL     1       6.916   5.994  17.989  0.00  0.00    +0.000 OA
BRANCH  15  16
ATOM     16  C   UNL     1       7.390   4.919  17.176  0.00  0.00    +0.000 C 
BRANCH  16  17
ATOM     17  P   UNL     1       6.459   4.834  15.603  0.00  0.00    +0.000 P 
ATOM     18  O   UNL     1       7.783   5.189  14.902  0.00  0.00    +0.000 OA
BRANCH  17  19
ATOM     19  O   UNL     1       6.464   3.191  15.660  0.00  0.00    +0.000 OA
ATOM     20  H   UNL     1       6.992   2.886  16.424  0.00  0.00    +0.000 HD
ENDBRANCH  17  19
BRANCH  17  21
ATOM     21  O   UNL     1       5.579   4.754  14.116  0.00  0.00    +0.000 OA
BRANCH  21  22
ATOM     22  C   UNL     1       5.358   3.452  13.539  0.00  0.00    +0.000 C 
BRANCH  22  23
ATOM     23  C   UNL     1       5.664   3.317  12.030  0.00  0.00    +0.000 C 
ATOM     24 CL   UNL     1       7.072   4.280  11.492  0.00  0.00    +0.000 Cl
ATOM     25 CL   UNL     1       5.978   1.589  11.619  0.00  0.00    +0.000 Cl
ATOM     26 CL   UNL     1       4.231   3.833  11.062  0.00  0.00    +0.000 Cl
ENDBRANCH  22  23
ENDBRANCH  21  22
ENDBRANCH  17  21
ENDBRANCH  16  17
ENDBRANCH  15  16
ENDBRANCH  14  15
ENDBRANCH   1  14
TORSDOF 10
ENDMDL
MODEL 6
REMARK VINA RESULT:      -6.1      1.153      1.657
REMARK  Name = 
REMARK  10 active torsions:
REMARK  status: ('A' for Active; 'I' for Inactive)
REMARK    1  A    between atoms: N_1  and  C_2
REMARK    2  A    between atoms: N_10  and  C_11
REMARK    3  A    between atoms: C_11  and  C_12
REMARK    4  A    between atoms: C_12  and  O_13
REMARK    5  A    between atoms: O_13  and  C_14
REMARK    6  A    between atoms: C_14  and  P_15
REMARK    7  A    between atoms: P_15  and  O_17
REMARK    8  A    between atoms: P_15  and  O_18
REMARK    9  A    between atoms: O_18  and  C_19
REMARK   10  A    between atoms: C_19  and  C_20
REMARK                            x       y       z     vdW  Elec       q    Type
REMARK                         _______ _______ _______ _____ _____    ______ ____
ROOT
ATOM      1  C   UNL     1       2.886   6.504  18.811  0.00  0.00    +0.000 C 
ENDROOT
BRANCH   1  10
ATOM      2  C   UNL     1       3.628   1.744  18.919  0.00  0.00    +0.000 A 
ATOM      3  N   UNL     1       2.398   1.419  18.462  0.00  0.00    +0.000 NA
ATOM      4  C   UNL     1       1.526   2.418  18.204  0.00  0.00    +0.000 A 
ATOM      5  N   UNL     1       1.711   3.749  18.333  0.00  0.00    +0.000 NA
ATOM      6  C   UNL     1       2.957   4.013  18.762  0.00  0.00    +0.000 A 
ATOM      7  C   UNL     1       3.954   3.101  19.068  0.00  0.00    +0.000 A 
ATOM      8  N   UNL     1       5.110   3.748  19.456  0.00  0.00    +0.000 NA
ATOM      9  C   UNL     1       4.820   5.028  19.395  0.00  0.00    +0.000 A 
ATOM     10  N   UNL     1       3.531   5.228  18.997  0.00  0.00    +0.000 N 
BRANCH   2  11
ATOM     11  N   UNL     1       4.529   0.721  19.199  0.00  0.00    +0.000 N 
ATOM     12  H   UNL     1       4.283  -0.138  18.729  0.00  0.00    +0.000 HD
ATOM     13  H   UNL     1       5.495   1.027  19.154  0.00  0.00    +0.000 HD
ENDBRANCH   2  11
ENDBRANCH   1  10
BRANCH   1  14
ATOM     14  C   UNL     1       3.621   7.382  17.799  0.00  0.00    +0.000 C 
BRANCH  14  15
ATOM     15  O   UNL     1       4.135   6.615  16.704  0.00  0.00    +0.000 OA
BRANCH  15  16
ATOM     16  C   UNL     1       5.560   6.532  16.773  0.00  0.00    +0.000 C 
BRANCH  16  17
ATOM     17  P   UNL     1       6.207   5.401  15.488  0.00  0.00    +0.000 P 
ATOM     18  O   UNL     1       7.570   6.084  15.698  0.00  0.00    +0.000 OA
BRANCH  17  19
ATOM     19  O   UNL     1       6.215   4.152  16.557  0.00  0.00    +0.000 OA
ATOM     20  H   UNL     1       6.032   3.313  16.091  0.00  0.00    +0.000 HD
ENDBRANCH  17  19
BRANCH  17  21
ATOM     21  O   UNL     1       6.818   4.331  14.273  0.00  0.00    +0.000 OA
BRANCH  21  22
ATOM     22  C   UNL     1       5.889   3.420  13.655  0.00  0.00    +0.000 C 
BRANCH  22  23
ATOM     23  C   UNL     1       6.001   3.272  12.122  0.00  0.00    +0.000 C 
ATOM     24 CL   UNL     1       6.515   1.642  11.592  0.00  0.00    +0.000 Cl
ATOM     25 CL   UNL     1       4.412   3.636  11.350  0.00  0.00    +0.000 Cl
ATOM     26 CL   UNL     1       7.185   4.470  11.472  0.00  0.00    +0.000 Cl
ENDBRANCH  22  23
ENDBRANCH  21  22
ENDBRANCH  17  21
ENDBRANCH  16  17
ENDBRANCH  15  16
ENDBRANCH  14  15
ENDBRANCH   1  14
TORSDOF 10
ENDMDL
MODEL 7
REMARK VINA RESULT:      -6.1      1.613      2.118
REMARK  Name = 
REMARK  10 active torsions:
REMARK  status: ('A' for Active; 'I' for Inactive)
REMARK    1  A    between atoms: N_1  and  C_2
REMARK    2  A    between atoms: N_10  and  C_11
REMARK    3  A    between atoms: C_11  and  C_12
REMARK    4  A    between atoms: C_12  and  O_13
REMARK    5  A    between atoms: O_13  and  C_14
REMARK    6  A    between atoms: C_14  and  P_15
REMARK    7  A    between atoms: P_15  and  O_17
REMARK    8  A    between atoms: P_15  and  O_18
REMARK    9  A    between atoms: O_18  and  C_19
REMARK   10  A    between atoms: C_19  and  C_20
REMARK                            x       y       z     vdW  Elec       q    Type
REMARK                         _______ _______ _______ _____ _____    ______ ____
ROOT
ATOM      1  C   UNL     1       3.672   5.793  17.209  0.00  0.00    +0.000 C 
ENDROOT
BRANCH   1  10
ATOM      2  C   UNL     1       2.782   3.112  21.113  0.00  0.00    +0.000 A 
ATOM      3  N   UNL     1       3.666   2.139  20.796  0.00  0.00    +0.000 NA
ATOM      4  C   UNL     1       4.359   2.254  19.643  0.00  0.00    +0.000 A 
ATOM      5  N   UNL     1       4.303   3.242  18.724  0.00  0.00    +0.000 NA
ATOM      6  C   UNL     1       3.432   4.191  19.105  0.00  0.00    +0.000 A 
ATOM      7  C   UNL     1       2.654   4.210  20.250  0.00  0.00    +0.000 A 
ATOM      8  N   UNL     1       1.895   5.363  20.311  0.00  0.00    +0.000 NA
ATOM      9  C   UNL     1       2.200   6.027  19.219  0.00  0.00    +0.000 A 
ATOM     10  N   UNL     1       3.109   5.349  18.461  0.00  0.00    +0.000 N 
BRANCH   2  11
ATOM     11  N   UNL     1       2.055   2.995  22.294  0.00  0.00    +0.000 N 
ATOM     12  H   UNL     1       1.655   2.074  22.403  0.00  0.00    +0.000 HD
ATOM     13  H   UNL     1       2.535   3.401  23.090  0.00  0.00    +0.000 HD
ENDBRANCH   2  11
ENDBRANCH   1  10
BRANCH   1  14
ATOM     14  C   UNL     1       4.440   7.106  17.352  0.00  0.00    +0.000 C 
BRANCH  14  15
ATOM     15  O   UNL     1       5.491   7.215  16.385  0.00  0.00    +0.000 OA
BRANCH  15  16
ATOM     16  C   UNL     1       6.519   6.258  16.647  0.00  0.00    +0.000 C 
BRANCH  16  17
ATOM     17  P   UNL     1       6.415   4.857  15.473  0.00  0.00    +0.000 P 
ATOM     18  O   UNL     1       7.796   5.301  14.958  0.00  0.00    +0.000 OA
BRANCH  17  19
ATOM     19  O   UNL     1       6.760   3.792  16.676  0.00  0.00    +0.000 OA
ATOM     20  H   UNL     1       7.710   3.837  16.899  0.00  0.00    +0.000 HD
ENDBRANCH  17  19
BRANCH  17  21
ATOM     21  O   UNL     1       6.318   3.533  14.363  0.00  0.00    +0.000 OA
BRANCH  21  22
ATOM     22  C   UNL     1       5.201   3.505  13.453  0.00  0.00    +0.000 C 
BRANCH  22  23
ATOM     23  C   UNL     1       5.548   3.335  11.958  0.00  0.00    +0.000 C 
ATOM     24 CL   UNL     1       6.976   4.278  11.438  0.00  0.00    +0.000 Cl
ATOM     25 CL   UNL     1       5.863   1.597  11.593  0.00  0.00    +0.000 Cl
ATOM     26 CL   UNL     1       4.145   3.837  10.939  0.00  0.00    +0.000 Cl
ENDBRANCH  22  23
ENDBRANCH  21  22
ENDBRANCH  17  21
ENDBRANCH  16  17
ENDBRANCH  15  16
ENDBRANCH  14  15
ENDBRANCH   1  14
TORSDOF 10
ENDMDL
MODEL 8
REMARK VINA RESULT:      -6.0      3.415      4.988
REMARK  Name = 
REMARK  10 active torsions:
REMARK  status: ('A' for Active; 'I' for Inactive)
REMARK    1  A    between atoms: N_1  and  C_2
REMARK    2  A    between atoms: N_10  and  C_11
REMARK    3  A    between atoms: C_11  and  C_12
REMARK    4  A    between atoms: C_12  and  O_13
REMARK    5  A    between atoms: O_13  and  C_14
REMARK    6  A    between atoms: C_14  and  P_15
REMARK    7  A    between atoms: P_15  and  O_17
REMARK    8  A    between atoms: P_15  and  O_18
REMARK    9  A    between atoms: O_18  and  C_19
REMARK   10  A    between atoms: C_19  and  C_20
REMARK                            x       y       z     vdW  Elec       q    Type
REMARK                         _______ _______ _______ _____ _____    ______ ____
ROOT
ATOM      1  C   UNL     1       3.074   5.936  19.347  0.00  0.00    +0.000 C 
ENDROOT
BRANCH   1  10
ATOM      2  C   UNL     1       0.822  10.194  19.200  0.00  0.00    +0.000 A 
ATOM      3  N   UNL     1       0.364  10.132  20.471  0.00  0.00    +0.000 NA
ATOM      4  C   UNL     1       0.648   9.033  21.203  0.00  0.00    +0.000 A 
ATOM      5  N   UNL     1       1.361   7.945  20.840  0.00  0.00    +0.000 NA
ATOM      6  C   UNL     1       1.813   8.074  19.583  0.00  0.00    +0.000 A 
ATOM      7  C   UNL     1       1.602   9.134  18.715  0.00  0.00    +0.000 A 
ATOM      8  N   UNL     1       2.245   8.920  17.511  0.00  0.00    +0.000 NA
ATOM      9  C   UNL     1       2.827   7.750  17.641  0.00  0.00    +0.000 A 
ATOM     10  N   UNL     1       2.580   7.203  18.866  0.00  0.00    +0.000 N 
BRANCH   2  11
ATOM     11  N   UNL     1       0.523  11.317  18.436  0.00  0.00    +0.000 N 
ATOM     12  H   UNL     1       1.132  11.403  17.635  0.00  0.00    +0.000 HD
ATOM     13  H   UNL     1      -0.474  11.436  18.289  0.00  0.00    +0.000 HD
ENDBRANCH   2  11
ENDBRANCH   1  10
BRANCH   1  14
ATOM     14  C   UNL     1       4.588   5.806  19.184  0.00  0.00    +0.000 C 
BRANCH  14  15
ATOM     15  O   UNL     1       4.947   4.591  18.515  0.00  0.00    +0.000 OA
BRANCH  15  16
ATOM     16  C   UNL     1       6.276   4.675  17.997  0.00  0.00    +0.000 C 
BRANCH  16  17
ATOM     17  P   UNL     1       6.260   4.695  16.167  0.00  0.00    +0.000 P 
ATOM     18  O   UNL     1       7.791   4.556  16.240  0.00  0.00    +0.000 OA
BRANCH  17  19
ATOM     19  O   UNL     1       5.718   3.144  16.131  0.00  0.00    +0.000 OA
ATOM     20  H   UNL     1       6.458   2.537  15.934  0.00  0.00    +0.000 HD
ENDBRANCH  17  19
BRANCH  17  21
ATOM     21  O   UNL     1       6.244   4.714  14.438  0.00  0.00    +0.000 OA
BRANCH  21  22
ATOM     22  C   UNL     1       6.415   3.458  13.753  0.00  0.00    +0.000 C 
BRANCH  22  23
ATOM     23  C   UNL     1       6.287   3.499  12.214  0.00  0.00    +0.000 C 
ATOM     24 CL   UNL     1       4.606   3.702  11.637  0.00  0.00    +0.000 Cl
ATOM     25 CL   UNL     1       7.274   4.856  11.551  0.00  0.00    +0.000 Cl
ATOM     26 CL   UNL     1       6.944   1.977  11.500  0.00  0.00    +0.000 Cl
ENDBRANCH  22  23
ENDBRANCH  21  22
ENDBRANCH  17  21
ENDBRANCH  16  17
ENDBRANCH  15  16
ENDBRANCH  14  15
ENDBRANCH   1  14
TORSDOF 10
ENDMDL
MODEL 9
REMARK VINA RESULT:      -6.0      1.829      2.330
REMARK  Name = 
REMARK  10 active torsions:
REMARK  status: ('A' for Active; 'I' for Inactive)
REMARK    1  A    between atoms: N_1  and  C_2
REMARK    2  A    between atoms: N_10  and  C_11
REMARK    3  A    between atoms: C_11  and  C_12
REMARK    4  A    between atoms: C_12  and  O_13
REMARK    5  A    between atoms: O_13  and  C_14
REMARK    6  A    between atoms: C_14  and  P_15
REMARK    7  A    between atoms: P_15  and  O_17
REMARK    8  A    between atoms: P_15  and  O_18
REMARK    9  A    between atoms: O_18  and  C_19
REMARK   10  A    between atoms: C_19  and  C_20
REMARK                            x       y       z     vdW  Elec       q    Type
REMARK                         _______ _______ _______ _____ _____    ______ ____
ROOT
ATOM      1  C   UNL     1       3.657   6.667  17.848  0.00  0.00    +0.000 C 
ENDROOT
BRANCH   1  10
ATOM      2  C   UNL     1       1.634   3.017  20.259  0.00  0.00    +0.000 A 
ATOM      3  N   UNL     1       2.065   2.057  19.410  0.00  0.00    +0.000 NA
ATOM      4  C   UNL     1       2.786   2.433  18.331  0.00  0.00    +0.000 A 
ATOM      5  N   UNL     1       3.162   3.677  17.964  0.00  0.00    +0.000 NA
ATOM      6  C   UNL     1       2.730   4.583  18.856  0.00  0.00    +0.000 A 
ATOM      7  C   UNL     1       1.986   4.351  20.001  0.00  0.00    +0.000 A 
ATOM      8  N   UNL     1       1.750   5.529  20.682  0.00  0.00    +0.000 NA
ATOM      9  C   UNL     1       2.333   6.460  19.961  0.00  0.00    +0.000 A 
ATOM     10  N   UNL     1       2.921   5.934  18.849  0.00  0.00    +0.000 N 
BRANCH   2  11
ATOM     11  N   UNL     1       0.880   2.641  21.366  0.00  0.00    +0.000 N 
ATOM     12  H   UNL     1       0.297   1.839  21.172  0.00  0.00    +0.000 HD
ATOM     13  H   UNL     1       1.421   2.636  22.225  0.00  0.00    +0.000 HD
ENDBRANCH   2  11
ENDBRANCH   1  10
BRANCH   1  14
ATOM     14  C   UNL     1       5.146   6.760  18.177  0.00  0.00    +0.000 C 
BRANCH  14  15
ATOM     15  O   UNL     1       5.938   6.967  17.002  0.00  0.00    +0.000 OA
BRANCH  15  16
ATOM     16  C   UNL     1       5.199   6.623  15.829  0.00  0.00    +0.000 C 
BRANCH  16  17
ATOM     17  P   UNL     1       5.991   5.227  14.949  0.00  0.00    +0.000 P 
ATOM     18  O   UNL     1       7.280   5.597  15.704  0.00  0.00    +0.000 OA
BRANCH  17  19
ATOM     19  O   UNL     1       5.243   4.148  15.937  0.00  0.00    +0.000 OA
ATOM     20  H   UNL     1       5.451   3.236  15.654  0.00  0.00    +0.000 HD
ENDBRANCH  17  19
BRANCH  17  21
ATOM     21  O   UNL     1       6.739   3.908  14.117  0.00  0.00    +0.000 OA
BRANCH  21  22
ATOM     22  C   UNL     1       5.879   2.964  13.451  0.00  0.00    +0.000 C 
BRANCH  22  23
ATOM     23  C   UNL     1       5.916   2.982  11.906  0.00  0.00    +0.000 C 
ATOM     24 CL   UNL     1       6.370   1.412  11.178  0.00  0.00    +0.000 Cl
ATOM     25 CL   UNL     1       4.301   3.454  11.257  0.00  0.00    +0.000 Cl
ATOM     26 CL   UNL     1       7.094   4.225  11.333  0.00  0.00    +0.000 Cl
ENDBRANCH  22  23
ENDBRANCH  21  22
ENDBRANCH  17  21
ENDBRANCH  16  17
ENDBRANCH  15  16
ENDBRANCH  14  15
ENDBRANCH   1  14
TORSDOF 10
ENDMDL
