MODEL 1
REMARK VINA RESULT:      -7.8      0.000      0.000
REMARK  Name = 
REMARK  4 active torsions:
REMARK  status: ('A' for Active; 'I' for Inactive)
REMARK    1  A    between atoms: C_2  and  C_3
REMARK    2  A    between atoms: C_3  and  S_4
REMARK    3  A    between atoms: S_4  and  C_5
REMARK    4  A    between atoms: N_15  and  C_16
REMARK                            x       y       z     vdW  Elec       q    Type
REMARK                         _______ _______ _______ _____ _____    ______ ____
ROOT
ATOM      1  C   UNL     1       2.315   2.981  21.393  0.00  0.00    +0.000 C 
ENDROOT
BRANCH   1   3
ATOM      2  O   UNL     1       0.626   4.078  20.112  0.00  0.00    +0.000 OA
ATOM      3  C   UNL     1       1.713   4.189  20.679  0.00  0.00    +0.000 C 
ATOM      4  N   UNL     1       2.516   5.317  20.647  0.00  0.00    +0.000 N 
ATOM      5  H   UNL     1       3.437   5.211  21.060  0.00  0.00    +0.000 HD
BRANCH   4   6
ATOM      6  C   UNL     1       2.200   6.577  20.100  0.00  0.00    +0.000 A 
ATOM      7  C   UNL     1       2.559   6.971  18.810  0.00  0.00    +0.000 A 
ATOM      8  C   UNL     1       2.225   8.244  18.333  0.00  0.00    +0.000 A 
ATOM      9  C   UNL     1       1.529   9.139  19.146  0.00  0.00    +0.000 A 
ATOM     10 CL   UNL     1       1.177  10.704  18.505  0.00  0.00    +0.000 Cl
ATOM     11  C   UNL     1       1.147   8.747  20.432  0.00  0.00    +0.000 A 
ATOM     12 CL   UNL     1       0.287   9.798  21.501  0.00  0.00    +0.000 Cl
ATOM     13  C   UNL     1       1.471   7.466  20.900  0.00  0.00    +0.000 A 
ENDBRANCH   4   6
ENDBRANCH   1   3
BRANCH   1  14
ATOM     14  S   UNL     1       3.930   2.510  20.712  0.00  0.00    +0.000 S 
BRANCH  14  15
ATOM     15  C   UNL     1       3.781   3.037  19.052  0.00  0.00    +0.000 A 
ATOM     16  C   UNL     1       2.886   2.570  18.121  0.00  0.00    +0.000 A 
ATOM     17  N   UNL     1       3.174   3.179  16.926  0.00  0.00    +0.000 N 
ATOM     18  C   UNL     1       4.248   4.029  17.072  0.00  0.00    +0.000 A 
ATOM     19  C   UNL     1       4.905   4.825  16.125  0.00  0.00    +0.000 A 
ATOM     20  C   UNL     1       5.982   5.602  16.565  0.00  0.00    +0.000 A 
ATOM     21  C   UNL     1       6.373   5.584  17.901  0.00  0.00    +0.000 A 
ATOM     22 CL   UNL     1       7.692   6.567  18.413  0.00  0.00    +0.000 Cl
ATOM     23  C   UNL     1       5.718   4.780  18.836  0.00  0.00    +0.000 A 
ATOM     24  C   UNL     1       4.636   3.978  18.415  0.00  0.00    +0.000 A 
ATOM     25  H   UNL     1       2.689   3.014  16.053  0.00  0.00    +0.000 HD
ENDBRANCH  14  15
ENDBRANCH   1  14
TORSDOF 4
ENDMDL
MODEL 2
REMARK VINA RESULT:      -7.6      3.029      3.861
REMARK  Name = 
REMARK  4 active torsions:
REMARK  status: ('A' for Active; 'I' for Inactive)
REMARK    1  A    between atoms: C_2  and  C_3
REMARK    2  A    between atoms: C_3  and  S_4
REMARK    3  A    between atoms: S_4  and  C_5
REMARK    4  A    between atoms: N_15  and  C_16
REMARK                            x       y       z     vdW  Elec       q    Type
REMARK                         _______ _______ _______ _____ _____    ______ ____
ROOT
ATOM      1  C   UNL     1       4.451   4.940  18.630  0.00  0.00    +0.000 C 
ENDROOT
BRANCH   1   3
ATOM      2  O   UNL     1       2.189   5.100  19.374  0.00  0.00    +0.000 OA
ATOM      3  C   UNL     1       3.179   5.711  18.973  0.00  0.00    +0.000 C 
ATOM      4  N   UNL     1       3.219   7.068  18.699  0.00  0.00    +0.000 N 
ATOM      5  H   UNL     1       4.069   7.402  18.258  0.00  0.00    +0.000 HD
BRANCH   4   6
ATOM      6  C   UNL     1       2.212   8.022  18.953  0.00  0.00    +0.000 A 
ATOM      7  C   UNL     1       1.675   8.858  17.973  0.00  0.00    +0.000 A 
ATOM      8  C   UNL     1       0.686   9.794  18.297  0.00  0.00    +0.000 A 
ATOM      9  C   UNL     1       0.226   9.906  19.609  0.00  0.00    +0.000 A 
ATOM     10 CL   UNL     1      -0.972  11.104  19.945  0.00  0.00    +0.000 Cl
ATOM     11  C   UNL     1       0.743   9.060  20.594  0.00  0.00    +0.000 A 
ATOM     12 CL   UNL     1       0.229   9.138  22.242  0.00  0.00    +0.000 Cl
ATOM     13  C   UNL     1       1.723   8.114  20.262  0.00  0.00    +0.000 A 
ENDBRANCH   4   6
ENDBRANCH   1   3
BRANCH   1  14
ATOM     14  S   UNL     1       4.305   4.026  17.069  0.00  0.00    +0.000 S 
BRANCH  14  15
ATOM     15  C   UNL     1       5.703   4.601  16.192  0.00  0.00    +0.000 A 
ATOM     16  C   UNL     1       6.662   5.470  16.654  0.00  0.00    +0.000 A 
ATOM     17  N   UNL     1       7.521   5.730  15.617  0.00  0.00    +0.000 N 
ATOM     18  C   UNL     1       7.126   5.046  14.489  0.00  0.00    +0.000 A 
ATOM     19  C   UNL     1       7.676   5.036  13.200  0.00  0.00    +0.000 A 
ATOM     20  C   UNL     1       7.058   4.232  12.237  0.00  0.00    +0.000 A 
ATOM     21  C   UNL     1       5.941   3.466  12.561  0.00  0.00    +0.000 A 
ATOM     22 CL   UNL     1       5.214   2.472  11.355  0.00  0.00    +0.000 Cl
ATOM     23  C   UNL     1       5.394   3.491  13.845  0.00  0.00    +0.000 A 
ATOM     24  C   UNL     1       5.992   4.302  14.832  0.00  0.00    +0.000 A 
ATOM     25  H   UNL     1       8.317   6.353  15.660  0.00  0.00    +0.000 HD
ENDBRANCH  14  15
ENDBRANCH   1  14
TORSDOF 4
ENDMDL
MODEL 3
REMARK VINA RESULT:      -7.4      0.691      1.480
REMARK  Name = 
REMARK  4 active torsions:
REMARK  status: ('A' for Active; 'I' for Inactive)
REMARK    1  A    between atoms: C_2  and  C_3
REMARK    2  A    between atoms: C_3  and  S_4
REMARK    3  A    between atoms: S_4  and  C_5
REMARK    4  A    between atoms: N_15  and  C_16
REMARK                            x       y       z     vdW  Elec       q    Type
REMARK                         _______ _______ _______ _____ _____    ______ ____
ROOT
ATOM      1  C   UNL     1       2.366   2.784  21.238  0.00  0.00    +0.000 C 
ENDROOT
BRANCH   1   3
ATOM      2  O   UNL     1       0.625   3.951  20.097  0.00  0.00    +0.000 OA
ATOM      3  C   UNL     1       1.680   4.047  20.723  0.00  0.00    +0.000 C 
ATOM      4  N   UNL     1       2.381   5.223  20.925  0.00  0.00    +0.000 N 
ATOM      5  H   UNL     1       3.296   5.122  21.353  0.00  0.00    +0.000 HD
BRANCH   4   6
ATOM      6  C   UNL     1       1.971   6.531  20.595  0.00  0.00    +0.000 A 
ATOM      7  C   UNL     1       1.208   7.339  21.439  0.00  0.00    +0.000 A 
ATOM      8  C   UNL     1       0.823   8.624  21.042  0.00  0.00    +0.000 A 
ATOM      9  C   UNL     1       1.196   9.116  19.791  0.00  0.00    +0.000 A 
ATOM     10 CL   UNL     1       0.660  10.697  19.352  0.00  0.00    +0.000 Cl
ATOM     11  C   UNL     1       1.977   8.322  18.946  0.00  0.00    +0.000 A 
ATOM     12 CL   UNL     1       2.477   8.856  17.379  0.00  0.00    +0.000 Cl
ATOM     13  C   UNL     1       2.373   7.041  19.353  0.00  0.00    +0.000 A 
ENDBRANCH   4   6
ENDBRANCH   1   3
BRANCH   1  14
ATOM     14  S   UNL     1       4.053   2.601  20.594  0.00  0.00    +0.000 S 
BRANCH  14  15
ATOM     15  C   UNL     1       3.884   3.237  18.975  0.00  0.00    +0.000 A 
ATOM     16  C   UNL     1       2.967   2.844  18.031  0.00  0.00    +0.000 A 
ATOM     17  N   UNL     1       3.244   3.526  16.874  0.00  0.00    +0.000 N 
ATOM     18  C   UNL     1       4.333   4.350  17.056  0.00  0.00    +0.000 A 
ATOM     19  C   UNL     1       4.985   5.197  16.151  0.00  0.00    +0.000 A 
ATOM     20  C   UNL     1       6.080   5.928  16.621  0.00  0.00    +0.000 A 
ATOM     21  C   UNL     1       6.493   5.818  17.946  0.00  0.00    +0.000 A 
ATOM     22 CL   UNL     1       7.835   6.748  18.498  0.00  0.00    +0.000 Cl
ATOM     23  C   UNL     1       5.842   4.964  18.838  0.00  0.00    +0.000 A 
ATOM     24  C   UNL     1       4.742   4.206  18.385  0.00  0.00    +0.000 A 
ATOM     25  H   UNL     1       2.742   3.425  16.001  0.00  0.00    +0.000 HD
ENDBRANCH  14  15
ENDBRANCH   1  14
TORSDOF 4
ENDMDL
MODEL 4
REMARK VINA RESULT:      -7.4      2.034      2.499
REMARK  Name = 
REMARK  4 active torsions:
REMARK  status: ('A' for Active; 'I' for Inactive)
REMARK    1  A    between atoms: C_2  and  C_3
REMARK    2  A    between atoms: C_3  and  S_4
REMARK    3  A    between atoms: S_4  and  C_5
REMARK    4  A    between atoms: N_15  and  C_16
REMARK                            x       y       z     vdW  Elec       q    Type
REMARK                         _______ _______ _______ _____ _____    ______ ____
ROOT
ATOM      1  C   UNL     1       2.712   3.881  20.298  0.00  0.00    +0.000 C 
ENDROOT
BRANCH   1   3
ATOM      2  O   UNL     1       0.592   4.969  20.428  0.00  0.00    +0.000 OA
ATOM      3  C   UNL     1       1.807   5.110  20.289  0.00  0.00    +0.000 C 
ATOM      4  N   UNL     1       2.442   6.310  20.016  0.00  0.00    +0.000 N 
ATOM      5  H   UNL     1       3.433   6.244  19.806  0.00  0.00    +0.000 HD
BRANCH   4   6
ATOM      6  C   UNL     1       1.865   7.596  19.987  0.00  0.00    +0.000 A 
ATOM      7  C   UNL     1       1.870   8.420  18.861  0.00  0.00    +0.000 A 
ATOM      8  C   UNL     1       1.290   9.693  18.905  0.00  0.00    +0.000 A 
ATOM      9  C   UNL     1       0.703  10.158  20.082  0.00  0.00    +0.000 A 
ATOM     10 CL   UNL     1       0.035  11.751  20.076  0.00  0.00    +0.000 Cl
ATOM     11  C   UNL     1       0.676   9.333  21.210  0.00  0.00    +0.000 A 
ATOM     12 CL   UNL     1      -0.029   9.836  22.706  0.00  0.00    +0.000 Cl
ATOM     13  C   UNL     1       1.244   8.053  21.157  0.00  0.00    +0.000 A 
ENDBRANCH   4   6
ENDBRANCH   1   3
BRANCH   1  14
ATOM     14  S   UNL     1       3.118   3.308  18.624  0.00  0.00    +0.000 S 
BRANCH  14  15
ATOM     15  C   UNL     1       4.714   3.982  18.398  0.00  0.00    +0.000 A 
ATOM     16  C   UNL     1       5.526   4.514  19.370  0.00  0.00    +0.000 A 
ATOM     17  N   UNL     1       6.642   5.015  18.751  0.00  0.00    +0.000 N 
ATOM     18  C   UNL     1       6.560   4.820  17.390  0.00  0.00    +0.000 A 
ATOM     19  C   UNL     1       7.443   5.194  16.369  0.00  0.00    +0.000 A 
ATOM     20  C   UNL     1       7.097   4.857  15.056  0.00  0.00    +0.000 A 
ATOM     21  C   UNL     1       5.919   4.166  14.786  0.00  0.00    +0.000 A 
ATOM     22 CL   UNL     1       5.533   3.749  13.159  0.00  0.00    +0.000 Cl
ATOM     23  C   UNL     1       5.040   3.806  15.810  0.00  0.00    +0.000 A 
ATOM     24  C   UNL     1       5.360   4.145  17.141  0.00  0.00    +0.000 A 
ATOM     25  H   UNL     1       7.409   5.485  19.216  0.00  0.00    +0.000 HD
ENDBRANCH  14  15
ENDBRANCH   1  14
TORSDOF 4
ENDMDL
MODEL 5
REMARK VINA RESULT:      -7.4      4.824      6.535
REMARK  Name = 
REMARK  4 active torsions:
REMARK  status: ('A' for Active; 'I' for Inactive)
REMARK    1  A    between atoms: C_2  and  C_3
REMARK    2  A    between atoms: C_3  and  S_4
REMARK    3  A    between atoms: S_4  and  C_5
REMARK    4  A    between atoms: N_15  and  C_16
REMARK                            x       y       z     vdW  Elec       q    Type
REMARK                         _______ _______ _______ _____ _____    ______ ____
ROOT
ATOM      1  C   UNL     1       7.719   5.856  18.279  0.00  0.00    +0.000 C 
ENDROOT
BRANCH   1   3
ATOM      2  O   UNL     1       7.385   7.689  16.788  0.00  0.00    +0.000 OA
ATOM      3  C   UNL     1       7.827   7.325  17.877  0.00  0.00    +0.000 C 
ATOM      4  N   UNL     1       8.524   8.130  18.762  0.00  0.00    +0.000 N 
ATOM      5  H   UNL     1       8.930   7.654  19.561  0.00  0.00    +0.000 HD
BRANCH   4   6
ATOM      6  C   UNL     1       8.739   9.520  18.667  0.00  0.00    +0.000 A 
ATOM      7  C   UNL     1       8.150  10.328  17.693  0.00  0.00    +0.000 A 
ATOM      8  C   UNL     1       8.417  11.701  17.648  0.00  0.00    +0.000 A 
ATOM      9  C   UNL     1       9.282  12.281  18.577  0.00  0.00    +0.000 A 
ATOM     10 CL   UNL     1       9.592  13.974  18.443  0.00  0.00    +0.000 Cl
ATOM     11  C   UNL     1       9.861  11.483  19.568  0.00  0.00    +0.000 A 
ATOM     12 CL   UNL     1      10.946  12.124  20.752  0.00  0.00    +0.000 Cl
ATOM     13  C   UNL     1       9.580  10.111  19.619  0.00  0.00    +0.000 A 
ENDBRANCH   4   6
ENDBRANCH   1   3
BRANCH   1  14
ATOM     14  S   UNL     1       6.280   5.532  19.336  0.00  0.00    +0.000 S 
BRANCH  14  15
ATOM     15  C   UNL     1       5.372   4.401  18.359  0.00  0.00    +0.000 A 
ATOM     16  C   UNL     1       5.603   4.087  17.042  0.00  0.00    +0.000 A 
ATOM     17  N   UNL     1       4.606   3.236  16.638  0.00  0.00    +0.000 N 
ATOM     18  C   UNL     1       3.730   3.002  17.675  0.00  0.00    +0.000 A 
ATOM     19  C   UNL     1       2.559   2.234  17.712  0.00  0.00    +0.000 A 
ATOM     20  C   UNL     1       1.861   2.174  18.923  0.00  0.00    +0.000 A 
ATOM     21  C   UNL     1       2.327   2.850  20.047  0.00  0.00    +0.000 A 
ATOM     22 CL   UNL     1       1.453   2.740  21.528  0.00  0.00    +0.000 Cl
ATOM     23  C   UNL     1       3.490   3.621  19.997  0.00  0.00    +0.000 A 
ATOM     24  C   UNL     1       4.206   3.707  18.785  0.00  0.00    +0.000 A 
ATOM     25  H   UNL     1       4.506   2.852  15.707  0.00  0.00    +0.000 HD
ENDBRANCH  14  15
ENDBRANCH   1  14
TORSDOF 4
ENDMDL
MODEL 6
REMARK VINA RESULT:      -7.2      4.890      8.540
REMARK  Name = 
REMARK  4 active torsions:
REMARK  status: ('A' for Active; 'I' for Inactive)
REMARK    1  A    between atoms: C_2  and  C_3
REMARK    2  A    between atoms: C_3  and  S_4
REMARK    3  A    between atoms: S_4  and  C_5
REMARK    4  A    between atoms: N_15  and  C_16
REMARK                            x       y       z     vdW  Elec       q    Type
REMARK                         _______ _______ _______ _____ _____    ______ ____
ROOT
ATOM      1  C   UNL     1       0.803   9.741  19.350  0.00  0.00    +0.000 C 
ENDROOT
BRANCH   1   3
ATOM      2  O   UNL     1       2.031   9.506  17.318  0.00  0.00    +0.000 OA
ATOM      3  C   UNL     1       1.719   8.988  18.390  0.00  0.00    +0.000 C 
ATOM      4  N   UNL     1       2.052   7.701  18.778  0.00  0.00    +0.000 N 
ATOM      5  H   UNL     1       1.617   7.375  19.635  0.00  0.00    +0.000 HD
BRANCH   4   6
ATOM      6  C   UNL     1       2.909   6.801  18.112  0.00  0.00    +0.000 A 
ATOM      7  C   UNL     1       4.094   7.185  17.483  0.00  0.00    +0.000 A 
ATOM      8  C   UNL     1       4.893   6.241  16.827  0.00  0.00    +0.000 A 
ATOM      9  C   UNL     1       4.510   4.899  16.791  0.00  0.00    +0.000 A 
ATOM     10 CL   UNL     1       5.526   3.794  15.937  0.00  0.00    +0.000 Cl
ATOM     11  C   UNL     1       3.335   4.502  17.434  0.00  0.00    +0.000 A 
ATOM     12 CL   UNL     1       2.790   2.861  17.432  0.00  0.00    +0.000 Cl
ATOM     13  C   UNL     1       2.546   5.448  18.102  0.00  0.00    +0.000 A 
ENDBRANCH   4   6
ENDBRANCH   1   3
BRANCH   1  14
ATOM     14  S   UNL     1       0.739  11.519  18.994  0.00  0.00    +0.000 S 
BRANCH  14  15
ATOM     15  C   UNL     1      -0.971  11.849  19.150  0.00  0.00    +0.000 A 
ATOM     16  C   UNL     1      -1.608  12.374  20.248  0.00  0.00    +0.000 A 
ATOM     17  N   UNL     1      -2.954  12.377  19.985  0.00  0.00    +0.000 N 
ATOM     18  C   UNL     1      -3.195  11.855  18.733  0.00  0.00    +0.000 A 
ATOM     19  C   UNL     1      -4.407  11.635  18.065  0.00  0.00    +0.000 A 
ATOM     20  C   UNL     1      -4.348  11.086  16.780  0.00  0.00    +0.000 A 
ATOM     21  C   UNL     1      -3.124  10.781  16.192  0.00  0.00    +0.000 A 
ATOM     22 CL   UNL     1      -3.087  10.122  14.600  0.00  0.00    +0.000 Cl
ATOM     23  C   UNL     1      -1.922  10.994  16.870  0.00  0.00    +0.000 A 
ATOM     24  C   UNL     1      -1.955  11.537  18.172  0.00  0.00    +0.000 A 
ATOM     25  H   UNL     1      -3.674  12.692  20.623  0.00  0.00    +0.000 HD
ENDBRANCH  14  15
ENDBRANCH   1  14
TORSDOF 4
ENDMDL
MODEL 7
REMARK VINA RESULT:      -7.2      5.410      7.295
REMARK  Name = 
REMARK  4 active torsions:
REMARK  status: ('A' for Active; 'I' for Inactive)
REMARK    1  A    between atoms: C_2  and  C_3
REMARK    2  A    between atoms: C_3  and  S_4
REMARK    3  A    between atoms: S_4  and  C_5
REMARK    4  A    between atoms: N_15  and  C_16
REMARK                            x       y       z     vdW  Elec       q    Type
REMARK                         _______ _______ _______ _____ _____    ______ ____
ROOT
ATOM      1  C   UNL     1       7.686   7.149  18.010  0.00  0.00    +0.000 C 
ENDROOT
BRANCH   1   3
ATOM      2  O   UNL     1       7.507   9.399  17.236  0.00  0.00    +0.000 OA
ATOM      3  C   UNL     1       8.017   8.638  18.058  0.00  0.00    +0.000 C 
ATOM      4  N   UNL     1       8.972   9.001  18.993  0.00  0.00    +0.000 N 
ATOM      5  H   UNL     1       9.386   8.237  19.516  0.00  0.00    +0.000 HD
BRANCH   4   6
ATOM      6  C   UNL     1       9.434  10.301  19.283  0.00  0.00    +0.000 A 
ATOM      7  C   UNL     1       9.397  10.867  20.558  0.00  0.00    +0.000 A 
ATOM      8  C   UNL     1       9.861  12.170  20.774  0.00  0.00    +0.000 A 
ATOM      9  C   UNL     1      10.363  12.923  19.713  0.00  0.00    +0.000 A 
ATOM     10 CL   UNL     1      10.888  14.534  20.045  0.00  0.00    +0.000 Cl
ATOM     11  C   UNL     1      10.423  12.358  18.436  0.00  0.00    +0.000 A 
ATOM     12 CL   UNL     1      11.028  13.226  17.069  0.00  0.00    +0.000 Cl
ATOM     13  C   UNL     1       9.971  11.047  18.227  0.00  0.00    +0.000 A 
ENDBRANCH   4   6
ENDBRANCH   1   3
BRANCH   1  14
ATOM     14  S   UNL     1       6.101   6.818  17.189  0.00  0.00    +0.000 S 
BRANCH  14  15
ATOM     15  C   UNL     1       5.531   5.422  18.073  0.00  0.00    +0.000 A 
ATOM     16  C   UNL     1       6.047   4.150  18.018  0.00  0.00    +0.000 A 
ATOM     17  N   UNL     1       5.247   3.344  18.788  0.00  0.00    +0.000 N 
ATOM     18  C   UNL     1       4.217   4.078  19.333  0.00  0.00    +0.000 A 
ATOM     19  C   UNL     1       3.152   3.672  20.148  0.00  0.00    +0.000 A 
ATOM     20  C   UNL     1       2.242   4.650  20.562  0.00  0.00    +0.000 A 
ATOM     21  C   UNL     1       2.403   5.979  20.179  0.00  0.00    +0.000 A 
ATOM     22 CL   UNL     1       1.274   7.162  20.722  0.00  0.00    +0.000 Cl
ATOM     23  C   UNL     1       3.462   6.372  19.358  0.00  0.00    +0.000 A 
ATOM     24  C   UNL     1       4.387   5.402  18.918  0.00  0.00    +0.000 A 
ATOM     25  H   UNL     1       5.373   2.349  18.920  0.00  0.00    +0.000 HD
ENDBRANCH  14  15
ENDBRANCH   1  14
TORSDOF 4
ENDMDL
MODEL 8
REMARK VINA RESULT:      -7.1      2.023      2.781
REMARK  Name = 
REMARK  4 active torsions:
REMARK  status: ('A' for Active; 'I' for Inactive)
REMARK    1  A    between atoms: C_2  and  C_3
REMARK    2  A    between atoms: C_3  and  S_4
REMARK    3  A    between atoms: S_4  and  C_5
REMARK    4  A    between atoms: N_15  and  C_16
REMARK                            x       y       z     vdW  Elec       q    Type
REMARK                         _______ _______ _______ _____ _____    ______ ____
ROOT
ATOM      1  C   UNL     1       2.699   3.252  19.958  0.00  0.00    +0.000 C 
ENDROOT
BRANCH   1   3
ATOM      2  O   UNL     1       0.610   4.324  20.385  0.00  0.00    +0.000 OA
ATOM      3  C   UNL     1       1.810   4.476  20.155  0.00  0.00    +0.000 C 
ATOM      4  N   UNL     1       2.432   5.696  19.951  0.00  0.00    +0.000 N 
ATOM      5  H   UNL     1       3.400   5.651  19.650  0.00  0.00    +0.000 HD
BRANCH   4   6
ATOM      6  C   UNL     1       1.869   6.980  20.106  0.00  0.00    +0.000 A 
ATOM      7  C   UNL     1       1.112   7.364  21.213  0.00  0.00    +0.000 A 
ATOM      8  C   UNL     1       0.570   8.652  21.296  0.00  0.00    +0.000 A 
ATOM      9  C   UNL     1       0.778   9.570  20.267  0.00  0.00    +0.000 A 
ATOM     10 CL   UNL     1       0.055  11.131  20.419  0.00  0.00    +0.000 Cl
ATOM     11  C   UNL     1       1.552   9.202  19.163  0.00  0.00    +0.000 A 
ATOM     12 CL   UNL     1       1.853  10.280  17.845  0.00  0.00    +0.000 Cl
ATOM     13  C   UNL     1       2.105   7.916  19.090  0.00  0.00    +0.000 A 
ENDBRANCH   4   6
ENDBRANCH   1   3
BRANCH   1  14
ATOM     14  S   UNL     1       3.082   2.947  18.210  0.00  0.00    +0.000 S 
BRANCH  14  15
ATOM     15  C   UNL     1       4.666   3.671  18.065  0.00  0.00    +0.000 A 
ATOM     16  C   UNL     1       5.440   4.163  19.087  0.00  0.00    +0.000 A 
ATOM     17  N   UNL     1       6.559   4.725  18.528  0.00  0.00    +0.000 N 
ATOM     18  C   UNL     1       6.514   4.609  17.156  0.00  0.00    +0.000 A 
ATOM     19  C   UNL     1       7.413   5.063  16.182  0.00  0.00    +0.000 A 
ATOM     20  C   UNL     1       7.108   4.795  14.843  0.00  0.00    +0.000 A 
ATOM     21  C   UNL     1       5.955   4.094  14.503  0.00  0.00    +0.000 A 
ATOM     22 CL   UNL     1       5.619   3.765  12.845  0.00  0.00    +0.000 Cl
ATOM     23  C   UNL     1       5.060   3.654  15.480  0.00  0.00    +0.000 A 
ATOM     24  C   UNL     1       5.339   3.922  16.837  0.00  0.00    +0.000 A 
ATOM     25  H   UNL     1       7.301   5.185  19.039  0.00  0.00    +0.000 HD
ENDBRANCH  14  15
ENDBRANCH   1  14
TORSDOF 4
ENDMDL
MODEL 9
REMARK VINA RESULT:      -7.1      1.808      2.483
REMARK  Name = 
REMARK  4 active torsions:
REMARK  status: ('A' for Active; 'I' for Inactive)
REMARK    1  A    between atoms: C_2  and  C_3
REMARK    2  A    between atoms: C_3  and  S_4
REMARK    3  A    between atoms: S_4  and  C_5
REMARK    4  A    between atoms: N_15  and  C_16
REMARK                            x       y       z     vdW  Elec       q    Type
REMARK                         _______ _______ _______ _____ _____    ______ ____
ROOT
ATOM      1  C   UNL     1       3.209   3.658  18.689  0.00  0.00    +0.000 C 
ENDROOT
BRANCH   1   3
ATOM      2  O   UNL     1       1.438   4.895  17.675  0.00  0.00    +0.000 OA
ATOM      3  C   UNL     1       2.380   4.920  18.468  0.00  0.00    +0.000 C 
ATOM      4  N   UNL     1       2.836   6.049  19.126  0.00  0.00    +0.000 N 
ATOM      5  H   UNL     1       3.697   5.934  19.649  0.00  0.00    +0.000 HD
BRANCH   4   6
ATOM      6  C   UNL     1       2.246   7.330  19.137  0.00  0.00    +0.000 A 
ATOM      7  C   UNL     1       2.213   8.175  18.027  0.00  0.00    +0.000 A 
ATOM      8  C   UNL     1       1.622   9.441  18.111  0.00  0.00    +0.000 A 
ATOM      9  C   UNL     1       1.060   9.877  19.311  0.00  0.00    +0.000 A 
ATOM     10 CL   UNL     1       0.377  11.462  19.354  0.00  0.00    +0.000 Cl
ATOM     11  C   UNL     1       1.071   9.030  20.423  0.00  0.00    +0.000 A 
ATOM     12 CL   UNL     1       0.399   9.497  21.946  0.00  0.00    +0.000 Cl
ATOM     13  C   UNL     1       1.651   7.757  20.331  0.00  0.00    +0.000 A 
ENDBRANCH   4   6
ENDBRANCH   1   3
BRANCH   1  14
ATOM     14  S   UNL     1       4.140   3.173  17.208  0.00  0.00    +0.000 S 
BRANCH  14  15
ATOM     15  C   UNL     1       4.965   4.661  16.807  0.00  0.00    +0.000 A 
ATOM     16  C   UNL     1       4.797   5.411  15.668  0.00  0.00    +0.000 A 
ATOM     17  N   UNL     1       5.703   6.439  15.711  0.00  0.00    +0.000 N 
ATOM     18  C   UNL     1       6.459   6.360  16.860  0.00  0.00    +0.000 A 
ATOM     19  C   UNL     1       7.514   7.168  17.304  0.00  0.00    +0.000 A 
ATOM     20  C   UNL     1       8.104   6.848  18.531  0.00  0.00    +0.000 A 
ATOM     21  C   UNL     1       7.645   5.769  19.281  0.00  0.00    +0.000 A 
ATOM     22 CL   UNL     1       8.382   5.413  20.798  0.00  0.00    +0.000 Cl
ATOM     23  C   UNL     1       6.599   4.963  18.825  0.00  0.00    +0.000 A 
ATOM     24  C   UNL     1       5.995   5.258  17.585  0.00  0.00    +0.000 A 
ATOM     25  H   UNL     1       5.823   7.144  14.994  0.00  0.00    +0.000 HD
ENDBRANCH  14  15
ENDBRANCH   1  14
TORSDOF 4
ENDMDL
