MODEL 1
REMARK VINA RESULT:      -7.9      0.000      0.000
REMARK  Name = 
REMARK  11 active torsions:
REMARK  status: ('A' for Active; 'I' for Inactive)
REMARK    1  A    between atoms: C_1  and  C_2
REMARK    2  A    between atoms: C_2  and  C_3
REMARK    3  A    between atoms: C_3  and  C_4
REMARK    4  A    between atoms: C_4  and  C_5
REMARK    5  A    between atoms: C_5  and  C_6
REMARK    6  A    between atoms: C_6  and  C_7
REMARK    7  A    between atoms: C_7  and  N_8
REMARK    8  A    between atoms: C_12  and  C_13
REMARK    9  A    between atoms: C_12  and  C_20
REMARK   10  A    between atoms: C_16  and  C_17
REMARK   11  A    between atoms: C_23  and  C_24
REMARK                            x       y       z     vdW  Elec       q    Type
REMARK                         _______ _______ _______ _____ _____    ______ ____
ROOT
ATOM      1  N   UNL     1       4.044   5.037  18.581  0.00  0.00    +0.000 N 
ATOM      2  C   UNL     1       4.985   4.135  18.946  0.00  0.00    +0.000 C 
ATOM      3  O   UNL     1       4.867   3.192  19.723  0.00  0.00    +0.000 OA
ATOM      4  N   UNL     1       6.151   4.409  18.287  0.00  0.00    +0.000 N 
ATOM      5  C   UNL     1       6.025   5.491  17.328  0.00  0.00    +0.000 C 
ATOM      6  C   UNL     1       4.530   5.846  17.590  0.00  0.00    +0.000 C 
ATOM      7  O   UNL     1       3.876   6.704  17.004  0.00  0.00    +0.000 OA
ATOM      8  H   UNL     1       6.962   3.818  18.399  0.00  0.00    +0.000 HD
ENDROOT
BRANCH   5   9
ATOM      9  C   UNL     1       7.013   6.610  17.685  0.00  0.00    +0.000 A 
ATOM     10  C   UNL     1       6.897   7.872  17.068  0.00  0.00    +0.000 A 
ATOM     11  C   UNL     1       7.644   8.965  17.518  0.00  0.00    +0.000 A 
ATOM     12  C   UNL     1       8.549   8.816  18.570  0.00  0.00    +0.000 A 
ATOM     13  C   UNL     1       9.339   9.976  19.093  0.00  0.00    +0.000 C 
ATOM     14  C   UNL     1       8.714   7.557  19.151  0.00  0.00    +0.000 A 
ATOM     15  C   UNL     1       7.958   6.470  18.715  0.00  0.00    +0.000 A 
ENDBRANCH   5   9
BRANCH   5  16
ATOM     16  C   UNL     1       6.200   5.018  15.877  0.00  0.00    +0.000 A 
ATOM     17  C   UNL     1       5.206   4.279  15.212  0.00  0.00    +0.000 A 
ATOM     18  C   UNL     1       5.402   3.829  13.903  0.00  0.00    +0.000 A 
ATOM     19  C   UNL     1       6.592   4.098  13.228  0.00  0.00    +0.000 A 
ATOM     20  C   UNL     1       6.825   3.607  11.832  0.00  0.00    +0.000 C 
ATOM     21  C   UNL     1       7.585   4.842  13.874  0.00  0.00    +0.000 A 
ATOM     22  C   UNL     1       7.386   5.309  15.173  0.00  0.00    +0.000 A 
ENDBRANCH   5  16
BRANCH   1  23
ATOM     23  C   UNL     1       2.680   5.070  19.063  0.00  0.00    +0.000 C 
BRANCH  23  24
ATOM     24  C   UNL     1       1.658   4.719  17.982  0.00  0.00    +0.000 C 
BRANCH  24  25
ATOM     25  C   UNL     1       1.761   3.251  17.573  0.00  0.00    +0.000 C 
BRANCH  25  26
ATOM     26  C   UNL     1       0.896   2.371  18.467  0.00  0.00    +0.000 C 
BRANCH  26  27
ATOM     27  C   UNL     1       1.661   1.977  19.726  0.00  0.00    +0.000 C 
BRANCH  27  29
ATOM     28  C   UNL     1       2.220   2.763  22.040  0.00  0.00    +0.000 C 
ATOM     29  C   UNL     1       1.183   2.781  20.931  0.00  0.00    +0.000 C 
ENDBRANCH  27  29
ENDBRANCH  26  27
ENDBRANCH  25  26
ENDBRANCH  24  25
ENDBRANCH  23  24
ENDBRANCH   1  23
TORSDOF 8
ENDMDL
MODEL 2
REMARK VINA RESULT:      -7.9      1.865      2.919
REMARK  Name = 
REMARK  11 active torsions:
REMARK  status: ('A' for Active; 'I' for Inactive)
REMARK    1  A    between atoms: C_1  and  C_2
REMARK    2  A    between atoms: C_2  and  C_3
REMARK    3  A    between atoms: C_3  and  C_4
REMARK    4  A    between atoms: C_4  and  C_5
REMARK    5  A    between atoms: C_5  and  C_6
REMARK    6  A    between atoms: C_6  and  C_7
REMARK    7  A    between atoms: C_7  and  N_8
REMARK    8  A    between atoms: C_12  and  C_13
REMARK    9  A    between atoms: C_12  and  C_20
REMARK   10  A    between atoms: C_16  and  C_17
REMARK   11  A    between atoms: C_23  and  C_24
REMARK                            x       y       z     vdW  Elec       q    Type
REMARK                         _______ _______ _______ _____ _____    ______ ____
ROOT
ATOM      1  N   UNL     1       3.921   4.304  18.867  0.00  0.00    +0.000 N 
ATOM      2  C   UNL     1       5.012   3.563  19.170  0.00  0.00    +0.000 C 
ATOM      3  O   UNL     1       5.083   2.591  19.916  0.00  0.00    +0.000 OA
ATOM      4  N   UNL     1       6.090   4.050  18.485  0.00  0.00    +0.000 N 
ATOM      5  C   UNL     1       5.750   5.123  17.570  0.00  0.00    +0.000 C 
ATOM      6  C   UNL     1       4.227   5.213  17.891  0.00  0.00    +0.000 C 
ATOM      7  O   UNL     1       3.417   5.965  17.357  0.00  0.00    +0.000 OA
ATOM      8  H   UNL     1       6.993   3.602  18.551  0.00  0.00    +0.000 HD
ENDROOT
BRANCH   5   9
ATOM      9  C   UNL     1       6.548   6.382  17.936  0.00  0.00    +0.000 A 
ATOM     10  C   UNL     1       7.653   6.284  18.805  0.00  0.00    +0.000 A 
ATOM     11  C   UNL     1       8.519   7.365  18.993  0.00  0.00    +0.000 A 
ATOM     12  C   UNL     1       8.283   8.580  18.346  0.00  0.00    +0.000 A 
ATOM     13  C   UNL     1       9.212   9.744  18.505  0.00  0.00    +0.000 C 
ATOM     14  C   UNL     1       7.159   8.706  17.527  0.00  0.00    +0.000 A 
ATOM     15  C   UNL     1       6.303   7.624  17.326  0.00  0.00    +0.000 A 
ENDBRANCH   5   9
BRANCH   5  16
ATOM     16  C   UNL     1       5.948   4.730  16.098  0.00  0.00    +0.000 A 
ATOM     17  C   UNL     1       4.977   4.006  15.385  0.00  0.00    +0.000 A 
ATOM     18  C   UNL     1       5.194   3.629  14.058  0.00  0.00    +0.000 A 
ATOM     19  C   UNL     1       6.384   3.958  13.409  0.00  0.00    +0.000 A 
ATOM     20  C   UNL     1       6.640   3.546  11.993  0.00  0.00    +0.000 C 
ATOM     21  C   UNL     1       7.354   4.688  14.102  0.00  0.00    +0.000 A 
ATOM     22  C   UNL     1       7.134   5.082  15.422  0.00  0.00    +0.000 A 
ENDBRANCH   5  16
BRANCH   1  23
ATOM     23  C   UNL     1       2.589   4.091  19.393  0.00  0.00    +0.000 C 
BRANCH  23  24
ATOM     24  C   UNL     1       2.360   4.787  20.734  0.00  0.00    +0.000 C 
BRANCH  24  25
ATOM     25  C   UNL     1       1.349   5.925  20.606  0.00  0.00    +0.000 C 
BRANCH  25  26
ATOM     26  C   UNL     1       2.049   7.252  20.337  0.00  0.00    +0.000 C 
BRANCH  26  27
ATOM     27  C   UNL     1       1.197   8.413  20.838  0.00  0.00    +0.000 C 
BRANCH  27  29
ATOM     28  C   UNL     1      -0.297  10.236  19.985  0.00  0.00    +0.000 C 
ATOM     29  C   UNL     1       0.972   9.441  19.734  0.00  0.00    +0.000 C 
ENDBRANCH  27  29
ENDBRANCH  26  27
ENDBRANCH  25  26
ENDBRANCH  24  25
ENDBRANCH  23  24
ENDBRANCH   1  23
TORSDOF 8
ENDMDL
MODEL 3
REMARK VINA RESULT:      -7.9      0.614      1.406
REMARK  Name = 
REMARK  11 active torsions:
REMARK  status: ('A' for Active; 'I' for Inactive)
REMARK    1  A    between atoms: C_1  and  C_2
REMARK    2  A    between atoms: C_2  and  C_3
REMARK    3  A    between atoms: C_3  and  C_4
REMARK    4  A    between atoms: C_4  and  C_5
REMARK    5  A    between atoms: C_5  and  C_6
REMARK    6  A    between atoms: C_6  and  C_7
REMARK    7  A    between atoms: C_7  and  N_8
REMARK    8  A    between atoms: C_12  and  C_13
REMARK    9  A    between atoms: C_12  and  C_20
REMARK   10  A    between atoms: C_16  and  C_17
REMARK   11  A    between atoms: C_23  and  C_24
REMARK                            x       y       z     vdW  Elec       q    Type
REMARK                         _______ _______ _______ _____ _____    ______ ____
ROOT
ATOM      1  N   UNL     1       4.058   5.017  18.880  0.00  0.00    +0.000 N 
ATOM      2  C   UNL     1       5.017   4.121  19.209  0.00  0.00    +0.000 C 
ATOM      3  O   UNL     1       4.941   3.191  20.006  0.00  0.00    +0.000 OA
ATOM      4  N   UNL     1       6.146   4.384  18.484  0.00  0.00    +0.000 N 
ATOM      5  C   UNL     1       5.969   5.451  17.517  0.00  0.00    +0.000 C 
ATOM      6  C   UNL     1       4.490   5.810  17.852  0.00  0.00    +0.000 C 
ATOM      7  O   UNL     1       3.805   6.659  17.288  0.00  0.00    +0.000 OA
ATOM      8  H   UNL     1       6.963   3.795  18.563  0.00  0.00    +0.000 HD
ENDROOT
BRANCH   5   9
ATOM      9  C   UNL     1       6.974   6.575  17.802  0.00  0.00    +0.000 A 
ATOM     10  C   UNL     1       6.871   7.800  17.114  0.00  0.00    +0.000 A 
ATOM     11  C   UNL     1       7.635   8.907  17.495  0.00  0.00    +0.000 A 
ATOM     12  C   UNL     1       8.545   8.807  18.549  0.00  0.00    +0.000 A 
ATOM     13  C   UNL     1       9.354   9.985  18.999  0.00  0.00    +0.000 C 
ATOM     14  C   UNL     1       8.697   7.582  19.201  0.00  0.00    +0.000 A 
ATOM     15  C   UNL     1       7.924   6.482  18.833  0.00  0.00    +0.000 A 
ENDBRANCH   5   9
BRANCH   5  16
ATOM     16  C   UNL     1       6.067   4.954  16.066  0.00  0.00    +0.000 A 
ATOM     17  C   UNL     1       5.022   4.241  15.453  0.00  0.00    +0.000 A 
ATOM     18  C   UNL     1       5.147   3.769  14.144  0.00  0.00    +0.000 A 
ATOM     19  C   UNL     1       6.316   3.989  13.415  0.00  0.00    +0.000 A 
ATOM     20  C   UNL     1       6.473   3.474  12.018  0.00  0.00    +0.000 C 
ATOM     21  C   UNL     1       7.359   4.707  14.009  0.00  0.00    +0.000 A 
ATOM     22  C   UNL     1       7.232   5.196  15.309  0.00  0.00    +0.000 A 
ENDBRANCH   5  16
BRANCH   1  23
ATOM     23  C   UNL     1       2.721   5.058  19.434  0.00  0.00    +0.000 C 
BRANCH  23  24
ATOM     24  C   UNL     1       2.653   4.526  20.865  0.00  0.00    +0.000 C 
BRANCH  24  25
ATOM     25  C   UNL     1       1.843   3.233  20.940  0.00  0.00    +0.000 C 
BRANCH  25  26
ATOM     26  C   UNL     1       0.570   3.335  20.109  0.00  0.00    +0.000 C 
BRANCH  26  27
ATOM     27  C   UNL     1       0.636   2.384  18.918  0.00  0.00    +0.000 C 
BRANCH  27  29
ATOM     28  C   UNL     1       2.668   2.026  17.494  0.00  0.00    +0.000 C 
ATOM     29  C   UNL     1       2.005   1.719  18.825  0.00  0.00    +0.000 C 
ENDBRANCH  27  29
ENDBRANCH  26  27
ENDBRANCH  25  26
ENDBRANCH  24  25
ENDBRANCH  23  24
ENDBRANCH   1  23
TORSDOF 8
ENDMDL
MODEL 4
REMARK VINA RESULT:      -7.8      1.806      2.827
REMARK  Name = 
REMARK  11 active torsions:
REMARK  status: ('A' for Active; 'I' for Inactive)
REMARK    1  A    between atoms: C_1  and  C_2
REMARK    2  A    between atoms: C_2  and  C_3
REMARK    3  A    between atoms: C_3  and  C_4
REMARK    4  A    between atoms: C_4  and  C_5
REMARK    5  A    between atoms: C_5  and  C_6
REMARK    6  A    between atoms: C_6  and  C_7
REMARK    7  A    between atoms: C_7  and  N_8
REMARK    8  A    between atoms: C_12  and  C_13
REMARK    9  A    between atoms: C_12  and  C_20
REMARK   10  A    between atoms: C_16  and  C_17
REMARK   11  A    between atoms: C_23  and  C_24
REMARK                            x       y       z     vdW  Elec       q    Type
REMARK                         _______ _______ _______ _____ _____    ______ ____
ROOT
ATOM      1  N   UNL     1       3.887   4.375  18.760  0.00  0.00    +0.000 N 
ATOM      2  C   UNL     1       4.964   3.642  19.129  0.00  0.00    +0.000 C 
ATOM      3  O   UNL     1       5.001   2.690  19.901  0.00  0.00    +0.000 OA
ATOM      4  N   UNL     1       6.071   4.112  18.478  0.00  0.00    +0.000 N 
ATOM      5  C   UNL     1       5.771   5.161  17.522  0.00  0.00    +0.000 C 
ATOM      6  C   UNL     1       4.236   5.259  17.775  0.00  0.00    +0.000 C 
ATOM      7  O   UNL     1       3.450   5.997  17.187  0.00  0.00    +0.000 OA
ATOM      8  H   UNL     1       6.969   3.665  18.594  0.00  0.00    +0.000 HD
ENDROOT
BRANCH   5   9
ATOM      9  C   UNL     1       6.555   6.429  17.890  0.00  0.00    +0.000 A 
ATOM     10  C   UNL     1       7.649   6.345  18.774  0.00  0.00    +0.000 A 
ATOM     11  C   UNL     1       8.503   7.435  18.966  0.00  0.00    +0.000 A 
ATOM     12  C   UNL     1       8.266   8.643  18.308  0.00  0.00    +0.000 A 
ATOM     13  C   UNL     1       9.183   9.816  18.471  0.00  0.00    +0.000 C 
ATOM     14  C   UNL     1       7.152   8.754  17.474  0.00  0.00    +0.000 A 
ATOM     15  C   UNL     1       6.308   7.664  17.268  0.00  0.00    +0.000 A 
ENDBRANCH   5   9
BRANCH   5  16
ATOM     16  C   UNL     1       6.032   4.731  16.071  0.00  0.00    +0.000 A 
ATOM     17  C   UNL     1       7.199   5.102  15.383  0.00  0.00    +0.000 A 
ATOM     18  C   UNL     1       7.399   4.728  14.052  0.00  0.00    +0.000 A 
ATOM     19  C   UNL     1       6.439   3.980  13.371  0.00  0.00    +0.000 A 
ATOM     20  C   UNL     1       6.629   3.587  11.939  0.00  0.00    +0.000 C 
ATOM     21  C   UNL     1       5.277   3.593  14.046  0.00  0.00    +0.000 A 
ATOM     22  C   UNL     1       5.082   3.949  15.380  0.00  0.00    +0.000 A 
ENDBRANCH   5  16
BRANCH   1  23
ATOM     23  C   UNL     1       2.533   4.175  19.233  0.00  0.00    +0.000 C 
BRANCH  23  24
ATOM     24  C   UNL     1       2.334   4.635  20.677  0.00  0.00    +0.000 C 
BRANCH  24  25
ATOM     25  C   UNL     1       1.457   5.883  20.749  0.00  0.00    +0.000 C 
BRANCH  25  26
ATOM     26  C   UNL     1       2.170   7.089  20.149  0.00  0.00    +0.000 C 
BRANCH  26  27
ATOM     27  C   UNL     1       1.448   8.377  20.531  0.00  0.00    +0.000 C 
BRANCH  27  29
ATOM     28  C   UNL     1      -0.002   9.389  22.307  0.00  0.00    +0.000 C 
ATOM     29  C   UNL     1       0.374   8.110  21.580  0.00  0.00    +0.000 C 
ENDBRANCH  27  29
ENDBRANCH  26  27
ENDBRANCH  25  26
ENDBRANCH  24  25
ENDBRANCH  23  24
ENDBRANCH   1  23
TORSDOF 8
ENDMDL
MODEL 5
REMARK VINA RESULT:      -7.8      1.600      7.245
REMARK  Name = 
REMARK  11 active torsions:
REMARK  status: ('A' for Active; 'I' for Inactive)
REMARK    1  A    between atoms: C_1  and  C_2
REMARK    2  A    between atoms: C_2  and  C_3
REMARK    3  A    between atoms: C_3  and  C_4
REMARK    4  A    between atoms: C_4  and  C_5
REMARK    5  A    between atoms: C_5  and  C_6
REMARK    6  A    between atoms: C_6  and  C_7
REMARK    7  A    between atoms: C_7  and  N_8
REMARK    8  A    between atoms: C_12  and  C_13
REMARK    9  A    between atoms: C_12  and  C_20
REMARK   10  A    between atoms: C_16  and  C_17
REMARK   11  A    between atoms: C_23  and  C_24
REMARK                            x       y       z     vdW  Elec       q    Type
REMARK                         _______ _______ _______ _____ _____    ______ ____
ROOT
ATOM      1  N   UNL     1       7.232   6.294  18.031  0.00  0.00    +0.000 N 
ATOM      2  C   UNL     1       7.690   5.037  18.235  0.00  0.00    +0.000 C 
ATOM      3  O   UNL     1       8.593   4.672  18.982  0.00  0.00    +0.000 OA
ATOM      4  N   UNL     1       6.963   4.165  17.472  0.00  0.00    +0.000 N 
ATOM      5  C   UNL     1       5.869   4.801  16.763  0.00  0.00    +0.000 C 
ATOM      6  C   UNL     1       6.125   6.266  17.229  0.00  0.00    +0.000 C 
ATOM      7  O   UNL     1       5.446   7.247  16.939  0.00  0.00    +0.000 OA
ATOM      8  H   UNL     1       7.131   3.170  17.518  0.00  0.00    +0.000 HD
ENDROOT
BRANCH   5   9
ATOM      9  C   UNL     1       6.036   4.578  15.254  0.00  0.00    +0.000 A 
ATOM     10  C   UNL     1       7.205   5.024  14.605  0.00  0.00    +0.000 A 
ATOM     11  C   UNL     1       7.479   4.657  13.283  0.00  0.00    +0.000 A 
ATOM     12  C   UNL     1       6.577   3.866  12.569  0.00  0.00    +0.000 A 
ATOM     13  C   UNL     1       6.860   3.431  11.164  0.00  0.00    +0.000 C 
ATOM     14  C   UNL     1       5.389   3.466  13.185  0.00  0.00    +0.000 A 
ATOM     15  C   UNL     1       5.122   3.817  14.507  0.00  0.00    +0.000 A 
ENDBRANCH   5   9
BRANCH   5  16
ATOM     16  C   UNL     1       4.492   4.332  17.259  0.00  0.00    +0.000 A 
ATOM     17  C   UNL     1       3.439   5.233  17.492  0.00  0.00    +0.000 A 
ATOM     18  C   UNL     1       2.207   4.788  17.977  0.00  0.00    +0.000 A 
ATOM     19  C   UNL     1       1.994   3.436  18.247  0.00  0.00    +0.000 A 
ATOM     20  C   UNL     1       0.686   2.944  18.784  0.00  0.00    +0.000 C 
ATOM     21  C   UNL     1       3.029   2.526  18.009  0.00  0.00    +0.000 A 
ATOM     22  C   UNL     1       4.255   2.964  17.508  0.00  0.00    +0.000 A 
ENDBRANCH   5  16
BRANCH   1  23
ATOM     23  C   UNL     1       7.748   7.488  18.667  0.00  0.00    +0.000 C 
BRANCH  23  24
ATOM     24  C   UNL     1       8.337   8.486  17.670  0.00  0.00    +0.000 C 
BRANCH  24  25
ATOM     25  C   UNL     1       8.179   9.924  18.162  0.00  0.00    +0.000 C 
BRANCH  25  26
ATOM     26  C   UNL     1       9.413  10.378  18.931  0.00  0.00    +0.000 C 
BRANCH  26  27
ATOM     27  C   UNL     1      10.092  11.537  18.209  0.00  0.00    +0.000 C 
BRANCH  27  29
ATOM     28  C   UNL     1      11.873  11.917  19.932  0.00  0.00    +0.000 C 
ATOM     29  C   UNL     1      11.592  11.550  18.486  0.00  0.00    +0.000 C 
ENDBRANCH  27  29
ENDBRANCH  26  27
ENDBRANCH  25  26
ENDBRANCH  24  25
ENDBRANCH  23  24
ENDBRANCH   1  23
TORSDOF 8
ENDMDL
MODEL 6
REMARK VINA RESULT:      -7.7      1.731      2.903
REMARK  Name = 
REMARK  11 active torsions:
REMARK  status: ('A' for Active; 'I' for Inactive)
REMARK    1  A    between atoms: C_1  and  C_2
REMARK    2  A    between atoms: C_2  and  C_3
REMARK    3  A    between atoms: C_3  and  C_4
REMARK    4  A    between atoms: C_4  and  C_5
REMARK    5  A    between atoms: C_5  and  C_6
REMARK    6  A    between atoms: C_6  and  C_7
REMARK    7  A    between atoms: C_7  and  N_8
REMARK    8  A    between atoms: C_12  and  C_13
REMARK    9  A    between atoms: C_12  and  C_20
REMARK   10  A    between atoms: C_16  and  C_17
REMARK   11  A    between atoms: C_23  and  C_24
REMARK                            x       y       z     vdW  Elec       q    Type
REMARK                         _______ _______ _______ _____ _____    ______ ____
ROOT
ATOM      1  N   UNL     1       4.069   4.666  18.704  0.00  0.00    +0.000 N 
ATOM      2  C   UNL     1       5.045   3.794  19.050  0.00  0.00    +0.000 C 
ATOM      3  O   UNL     1       4.973   2.847  19.827  0.00  0.00    +0.000 OA
ATOM      4  N   UNL     1       6.188   4.106  18.367  0.00  0.00    +0.000 N 
ATOM      5  C   UNL     1       6.009   5.184  17.413  0.00  0.00    +0.000 C 
ATOM      6  C   UNL     1       4.509   5.491  17.705  0.00  0.00    +0.000 C 
ATOM      7  O   UNL     1       3.816   6.328  17.133  0.00  0.00    +0.000 OA
ATOM      8  H   UNL     1       7.020   3.541  18.463  0.00  0.00    +0.000 HD
ENDROOT
BRANCH   5   9
ATOM      9  C   UNL     1       6.968   6.334  17.752  0.00  0.00    +0.000 A 
ATOM     10  C   UNL     1       6.854   7.564  17.075  0.00  0.00    +0.000 A 
ATOM     11  C   UNL     1       7.570   8.688  17.499  0.00  0.00    +0.000 A 
ATOM     12  C   UNL     1       8.440   8.601  18.587  0.00  0.00    +0.000 A 
ATOM     13  C   UNL     1       9.195   9.796  19.083  0.00  0.00    +0.000 C 
ATOM     14  C   UNL     1       8.603   7.372  19.230  0.00  0.00    +0.000 A 
ATOM     15  C   UNL     1       7.879   6.255  18.818  0.00  0.00    +0.000 A 
ENDBRANCH   5   9
BRANCH   5  16
ATOM     16  C   UNL     1       6.170   4.717  15.958  0.00  0.00    +0.000 A 
ATOM     17  C   UNL     1       7.307   5.035  15.197  0.00  0.00    +0.000 A 
ATOM     18  C   UNL     1       7.416   4.629  13.865  0.00  0.00    +0.000 A 
ATOM     19  C   UNL     1       6.393   3.903  13.255  0.00  0.00    +0.000 A 
ATOM     20  C   UNL     1       6.485   3.477  11.823  0.00  0.00    +0.000 C 
ATOM     21  C   UNL     1       5.260   3.570  14.004  0.00  0.00    +0.000 A 
ATOM     22  C   UNL     1       5.155   3.957  15.340  0.00  0.00    +0.000 A 
ENDBRANCH   5  16
BRANCH   1  23
ATOM     23  C   UNL     1       2.714   4.654  19.214  0.00  0.00    +0.000 C 
BRANCH  23  24
ATOM     24  C   UNL     1       2.575   5.384  20.550  0.00  0.00    +0.000 C 
BRANCH  24  25
ATOM     25  C   UNL     1       1.372   6.326  20.547  0.00  0.00    +0.000 C 
BRANCH  25  26
ATOM     26  C   UNL     1       1.817   7.781  20.456  0.00  0.00    +0.000 C 
BRANCH  26  27
ATOM     27  C   UNL     1       1.863   8.231  19.000  0.00  0.00    +0.000 C 
BRANCH  27  29
ATOM     28  C   UNL     1       0.406   9.981  20.049  0.00  0.00    +0.000 C 
ATOM     29  C   UNL     1       1.245   9.616  18.837  0.00  0.00    +0.000 C 
ENDBRANCH  27  29
ENDBRANCH  26  27
ENDBRANCH  25  26
ENDBRANCH  24  25
ENDBRANCH  23  24
ENDBRANCH   1  23
TORSDOF 8
ENDMDL
MODEL 7
REMARK VINA RESULT:      -7.7      2.555      7.055
REMARK  Name = 
REMARK  11 active torsions:
REMARK  status: ('A' for Active; 'I' for Inactive)
REMARK    1  A    between atoms: C_1  and  C_2
REMARK    2  A    between atoms: C_2  and  C_3
REMARK    3  A    between atoms: C_3  and  C_4
REMARK    4  A    between atoms: C_4  and  C_5
REMARK    5  A    between atoms: C_5  and  C_6
REMARK    6  A    between atoms: C_6  and  C_7
REMARK    7  A    between atoms: C_7  and  N_8
REMARK    8  A    between atoms: C_12  and  C_13
REMARK    9  A    between atoms: C_12  and  C_20
REMARK   10  A    between atoms: C_16  and  C_17
REMARK   11  A    between atoms: C_23  and  C_24
REMARK                            x       y       z     vdW  Elec       q    Type
REMARK                         _______ _______ _______ _____ _____    ______ ____
ROOT
ATOM      1  N   UNL     1       5.466   4.078  17.088  0.00  0.00    +0.000 N 
ATOM      2  C   UNL     1       6.158   4.490  18.176  0.00  0.00    +0.000 C 
ATOM      3  O   UNL     1       7.375   4.526  18.329  0.00  0.00    +0.000 OA
ATOM      4  N   UNL     1       5.278   4.906  19.136  0.00  0.00    +0.000 N 
ATOM      5  C   UNL     1       3.897   4.891  18.693  0.00  0.00    +0.000 C 
ATOM      6  C   UNL     1       4.131   4.323  17.260  0.00  0.00    +0.000 C 
ATOM      7  O   UNL     1       3.269   4.131  16.408  0.00  0.00    +0.000 OA
ATOM      8  H   UNL     1       5.608   5.289  20.011  0.00  0.00    +0.000 HD
ENDROOT
BRANCH   5   9
ATOM      9  C   UNL     1       3.074   3.976  19.610  0.00  0.00    +0.000 A 
ATOM     10  C   UNL     1       3.724   3.182  20.575  0.00  0.00    +0.000 A 
ATOM     11  C   UNL     1       2.996   2.500  21.555  0.00  0.00    +0.000 A 
ATOM     12  C   UNL     1       1.602   2.566  21.572  0.00  0.00    +0.000 A 
ATOM     13  C   UNL     1       0.799   1.872  22.629  0.00  0.00    +0.000 C 
ATOM     14  C   UNL     1       0.945   3.304  20.586  0.00  0.00    +0.000 A 
ATOM     15  C   UNL     1       1.669   3.997  19.618  0.00  0.00    +0.000 A 
ENDBRANCH   5   9
BRANCH   5  16
ATOM     16  C   UNL     1       3.291   6.300  18.600  0.00  0.00    +0.000 A 
ATOM     17  C   UNL     1       2.454   6.816  19.604  0.00  0.00    +0.000 A 
ATOM     18  C   UNL     1       1.886   8.087  19.482  0.00  0.00    +0.000 A 
ATOM     19  C   UNL     1       2.132   8.872  18.355  0.00  0.00    +0.000 A 
ATOM     20  C   UNL     1       1.516  10.228  18.200  0.00  0.00    +0.000 C 
ATOM     21  C   UNL     1       2.972   8.375  17.354  0.00  0.00    +0.000 A 
ATOM     22  C   UNL     1       3.556   7.115  17.480  0.00  0.00    +0.000 A 
ENDBRANCH   5  16
BRANCH   1  23
ATOM     23  C   UNL     1       6.050   3.571  15.864  0.00  0.00    +0.000 C 
BRANCH  23  24
ATOM     24  C   UNL     1       6.139   4.630  14.765  0.00  0.00    +0.000 C 
BRANCH  24  25
ATOM     25  C   UNL     1       5.325   4.227  13.536  0.00  0.00    +0.000 C 
BRANCH  25  26
ATOM     26  C   UNL     1       6.179   3.443  12.547  0.00  0.00    +0.000 C 
BRANCH  26  27
ATOM     27  C   UNL     1       5.297   2.769  11.501  0.00  0.00    +0.000 C 
BRANCH  27  29
ATOM     28  C   UNL     1       3.428   3.715  10.124  0.00  0.00    +0.000 C 
ATOM     29  C   UNL     1       3.885   3.346  11.524  0.00  0.00    +0.000 C 
ENDBRANCH  27  29
ENDBRANCH  26  27
ENDBRANCH  25  26
ENDBRANCH  24  25
ENDBRANCH  23  24
ENDBRANCH   1  23
TORSDOF 8
ENDMDL
MODEL 8
REMARK VINA RESULT:      -7.7      2.016      2.884
REMARK  Name = 
REMARK  11 active torsions:
REMARK  status: ('A' for Active; 'I' for Inactive)
REMARK    1  A    between atoms: C_1  and  C_2
REMARK    2  A    between atoms: C_2  and  C_3
REMARK    3  A    between atoms: C_3  and  C_4
REMARK    4  A    between atoms: C_4  and  C_5
REMARK    5  A    between atoms: C_5  and  C_6
REMARK    6  A    between atoms: C_6  and  C_7
REMARK    7  A    between atoms: C_7  and  N_8
REMARK    8  A    between atoms: C_12  and  C_13
REMARK    9  A    between atoms: C_12  and  C_20
REMARK   10  A    between atoms: C_16  and  C_17
REMARK   11  A    between atoms: C_23  and  C_24
REMARK                            x       y       z     vdW  Elec       q    Type
REMARK                         _______ _______ _______ _____ _____    ______ ____
ROOT
ATOM      1  N   UNL     1       4.058   4.525  18.841  0.00  0.00    +0.000 N 
ATOM      2  C   UNL     1       5.065   3.661  19.110  0.00  0.00    +0.000 C 
ATOM      3  O   UNL     1       5.051   2.695  19.866  0.00  0.00    +0.000 OA
ATOM      4  N   UNL     1       6.163   4.008  18.373  0.00  0.00    +0.000 N 
ATOM      5  C   UNL     1       5.914   5.106  17.458  0.00  0.00    +0.000 C 
ATOM      6  C   UNL     1       4.429   5.381  17.841  0.00  0.00    +0.000 C 
ATOM      7  O   UNL     1       3.692   6.221  17.330  0.00  0.00    +0.000 OA
ATOM      8  H   UNL     1       7.007   3.455  18.408  0.00  0.00    +0.000 HD
ENDROOT
BRANCH   5   9
ATOM      9  C   UNL     1       6.873   6.263  17.772  0.00  0.00    +0.000 A 
ATOM     10  C   UNL     1       6.715   7.502  17.119  0.00  0.00    +0.000 A 
ATOM     11  C   UNL     1       7.435   8.629  17.529  0.00  0.00    +0.000 A 
ATOM     12  C   UNL     1       8.354   8.536  18.575  0.00  0.00    +0.000 A 
ATOM     13  C   UNL     1       9.115   9.734  19.057  0.00  0.00    +0.000 C 
ATOM     14  C   UNL     1       8.560   7.300  19.191  0.00  0.00    +0.000 A 
ATOM     15  C   UNL     1       7.832   6.180  18.795  0.00  0.00    +0.000 A 
ENDBRANCH   5   9
BRANCH   5  16
ATOM     16  C   UNL     1       6.000   4.678  15.985  0.00  0.00    +0.000 A 
ATOM     17  C   UNL     1       4.952   3.993  15.348  0.00  0.00    +0.000 A 
ATOM     18  C   UNL     1       5.066   3.583  14.017  0.00  0.00    +0.000 A 
ATOM     19  C   UNL     1       6.228   3.839  13.290  0.00  0.00    +0.000 A 
ATOM     20  C   UNL     1       6.374   3.390  11.869  0.00  0.00    +0.000 C 
ATOM     21  C   UNL     1       7.275   4.530  13.907  0.00  0.00    +0.000 A 
ATOM     22  C   UNL     1       7.158   4.958  15.230  0.00  0.00    +0.000 A 
ENDBRANCH   5  16
BRANCH   1  23
ATOM     23  C   UNL     1       2.734   4.479  19.425  0.00  0.00    +0.000 C 
BRANCH  23  24
ATOM     24  C   UNL     1       2.572   5.432  20.609  0.00  0.00    +0.000 C 
BRANCH  24  25
ATOM     25  C   UNL     1       1.402   6.390  20.397  0.00  0.00    +0.000 C 
BRANCH  25  26
ATOM     26  C   UNL     1       1.857   7.841  20.502  0.00  0.00    +0.000 C 
BRANCH  26  27
ATOM     27  C   UNL     1       0.923   8.625  21.418  0.00  0.00    +0.000 C 
BRANCH  27  29
ATOM     28  C   UNL     1      -0.547  10.184  20.117  0.00  0.00    +0.000 C 
ATOM     29  C   UNL     1       0.737  10.054  20.916  0.00  0.00    +0.000 C 
ENDBRANCH  27  29
ENDBRANCH  26  27
ENDBRANCH  25  26
ENDBRANCH  24  25
ENDBRANCH  23  24
ENDBRANCH   1  23
TORSDOF 8
ENDMDL
MODEL 9
REMARK VINA RESULT:      -7.7      1.623      7.373
REMARK  Name = 
REMARK  11 active torsions:
REMARK  status: ('A' for Active; 'I' for Inactive)
REMARK    1  A    between atoms: C_1  and  C_2
REMARK    2  A    between atoms: C_2  and  C_3
REMARK    3  A    between atoms: C_3  and  C_4
REMARK    4  A    between atoms: C_4  and  C_5
REMARK    5  A    between atoms: C_5  and  C_6
REMARK    6  A    between atoms: C_6  and  C_7
REMARK    7  A    between atoms: C_7  and  N_8
REMARK    8  A    between atoms: C_12  and  C_13
REMARK    9  A    between atoms: C_12  and  C_20
REMARK   10  A    between atoms: C_16  and  C_17
REMARK   11  A    between atoms: C_23  and  C_24
REMARK                            x       y       z     vdW  Elec       q    Type
REMARK                         _______ _______ _______ _____ _____    ______ ____
ROOT
ATOM      1  N   UNL     1       7.534   6.501  18.372  0.00  0.00    +0.000 N 
ATOM      2  C   UNL     1       7.937   5.235  18.631  0.00  0.00    +0.000 C 
ATOM      3  O   UNL     1       8.885   4.869  19.319  0.00  0.00    +0.000 OA
ATOM      4  N   UNL     1       7.093   4.358  18.007  0.00  0.00    +0.000 N 
ATOM      5  C   UNL     1       5.974   5.009  17.352  0.00  0.00    +0.000 C 
ATOM      6  C   UNL     1       6.356   6.485  17.677  0.00  0.00    +0.000 C 
ATOM      7  O   UNL     1       5.709   7.484  17.374  0.00  0.00    +0.000 OA
ATOM      8  H   UNL     1       7.208   3.361  18.115  0.00  0.00    +0.000 HD
ENDROOT
BRANCH   5   9
ATOM      9  C   UNL     1       5.986   4.667  15.856  0.00  0.00    +0.000 A 
ATOM     10  C   UNL     1       7.043   5.120  15.041  0.00  0.00    +0.000 A 
ATOM     11  C   UNL     1       7.190   4.657  13.730  0.00  0.00    +0.000 A 
ATOM     12  C   UNL     1       6.266   3.760  13.191  0.00  0.00    +0.000 A 
ATOM     13  C   UNL     1       6.417   3.222  11.800  0.00  0.00    +0.000 C 
ATOM     14  C   UNL     1       5.183   3.349  13.970  0.00  0.00    +0.000 A 
ATOM     15  C   UNL     1       5.044   3.797  15.283  0.00  0.00    +0.000 A 
ENDBRANCH   5   9
BRANCH   5  16
ATOM     16  C   UNL     1       4.627   4.666  18.005  0.00  0.00    +0.000 A 
ATOM     17  C   UNL     1       4.504   3.647  18.966  0.00  0.00    +0.000 A 
ATOM     18  C   UNL     1       3.262   3.329  19.521  0.00  0.00    +0.000 A 
ATOM     19  C   UNL     1       2.111   4.012  19.129  0.00  0.00    +0.000 A 
ATOM     20  C   UNL     1       0.769   3.671  19.700  0.00  0.00    +0.000 C 
ATOM     21  C   UNL     1       2.219   5.036  18.183  0.00  0.00    +0.000 A 
ATOM     22  C   UNL     1       3.460   5.369  17.640  0.00  0.00    +0.000 A 
ENDBRANCH   5  16
BRANCH   1  23
ATOM     23  C   UNL     1       8.174   7.703  18.864  0.00  0.00    +0.000 C 
BRANCH  23  24
ATOM     24  C   UNL     1       8.409   8.742  17.768  0.00  0.00    +0.000 C 
BRANCH  24  25
ATOM     25  C   UNL     1       8.303  10.164  18.317  0.00  0.00    +0.000 C 
BRANCH  25  26
ATOM     26  C   UNL     1       9.635  10.631  18.890  0.00  0.00    +0.000 C 
BRANCH  26  27
ATOM     27  C   UNL     1      10.455  11.341  17.817  0.00  0.00    +0.000 C 
BRANCH  27  29
ATOM     28  C   UNL     1      11.765  11.840  19.894  0.00  0.00    +0.000 C 
ATOM     29  C   UNL     1      11.530  12.222  18.444  0.00  0.00    +0.000 C 
ENDBRANCH  27  29
ENDBRANCH  26  27
ENDBRANCH  25  26
ENDBRANCH  24  25
ENDBRANCH  23  24
ENDBRANCH   1  23
TORSDOF 8
ENDMDL
