MODEL 1
REMARK VINA RESULT:      -7.1      0.000      0.000
REMARK  Name = 
REMARK  5 active torsions:
REMARK  status: ('A' for Active; 'I' for Inactive)
REMARK    1  A    between atoms: C_1  and  N_2
REMARK    2  A    between atoms: C_4  and  C_5
REMARK    3  A    between atoms: N_7  and  C_8
REMARK    4  A    between atoms: C_8  and  N_10
REMARK    5  A    between atoms: N_10  and  C_11
REMARK                            x       y       z     vdW  Elec       q    Type
REMARK                         _______ _______ _______ _____ _____    ______ ____
ROOT
ATOM      1  C   UNL     1       2.678   5.025  19.301  0.00  0.00    +0.000 C 
ATOM      2  S   UNL     1       1.487   3.984  19.829  0.00  0.00    +0.000 S 
ENDROOT
BRANCH   1   5
ATOM      3  C   UNL     1       4.947   4.532  18.357  0.00  0.00    +0.000 C 
ATOM      4  O   UNL     1       5.529   4.259  19.401  0.00  0.00    +0.000 OA
ATOM      5  N   UNL     1       3.592   4.800  18.279  0.00  0.00    +0.000 N 
ATOM      6  H   UNL     1       3.192   4.835  17.353  0.00  0.00    +0.000 HD
BRANCH   3  10
ATOM      7  C   UNL     1       6.446   3.976  13.578  0.00  0.00    +0.000 C 
ATOM      8  N   UNL     1       6.344   4.214  14.998  0.00  0.00    +0.000 N 
ATOM      9  C   UNL     1       5.242   4.076  15.812  0.00  0.00    +0.000 A 
ATOM     10  C   UNL     1       5.651   4.454  17.082  0.00  0.00    +0.000 A 
ATOM     11  C   UNL     1       7.019   4.780  16.907  0.00  0.00    +0.000 A 
ATOM     12  N   UNL     1       7.439   4.629  15.653  0.00  0.00    +0.000 NA
ENDBRANCH   3  10
ENDBRANCH   1   5
BRANCH   1  13
ATOM     13  N   UNL     1       2.865   6.214  19.978  0.00  0.00    +0.000 N 
ATOM     14  H   UNL     1       3.419   6.159  20.832  0.00  0.00    +0.000 HD
BRANCH  13  15
ATOM     15  C   UNL     1       2.234   7.440  19.688  0.00  0.00    +0.000 A 
ATOM     16  C   UNL     1       1.531   8.152  20.668  0.00  0.00    +0.000 A 
ATOM     17  C   UNL     1       0.792   9.280  20.330  0.00  0.00    +0.000 A 
ATOM     18  C   UNL     1       0.779   9.716  19.008  0.00  0.00    +0.000 A 
ATOM     19 CL   UNL     1      -0.216  11.044  18.565  0.00  0.00    +0.000 Cl
ATOM     20  C   UNL     1       1.555   9.069  18.045  0.00  0.00    +0.000 A 
ATOM     21  C   UNL     1       2.307   7.942  18.389  0.00  0.00    +0.000 A 
ENDBRANCH  13  15
ENDBRANCH   1  13
TORSDOF 4
ENDMDL
MODEL 2
REMARK VINA RESULT:      -7.1      0.368      1.168
REMARK  Name = 
REMARK  5 active torsions:
REMARK  status: ('A' for Active; 'I' for Inactive)
REMARK    1  A    between atoms: C_1  and  N_2
REMARK    2  A    between atoms: C_4  and  C_5
REMARK    3  A    between atoms: N_7  and  C_8
REMARK    4  A    between atoms: C_8  and  N_10
REMARK    5  A    between atoms: N_10  and  C_11
REMARK                            x       y       z     vdW  Elec       q    Type
REMARK                         _______ _______ _______ _____ _____    ______ ____
ROOT
ATOM      1  C   UNL     1       2.738   5.041  19.470  0.00  0.00    +0.000 C 
ATOM      2  S   UNL     1       1.615   3.974  20.086  0.00  0.00    +0.000 S 
ENDROOT
BRANCH   1   5
ATOM      3  C   UNL     1       5.012   5.017  18.415  0.00  0.00    +0.000 C 
ATOM      4  O   UNL     1       5.680   5.294  19.405  0.00  0.00    +0.000 OA
ATOM      5  N   UNL     1       3.646   4.801  18.445  0.00  0.00    +0.000 N 
ATOM      6  H   UNL     1       3.233   4.407  17.612  0.00  0.00    +0.000 HD
BRANCH   3  10
ATOM      7  C   UNL     1       6.305   3.877  13.679  0.00  0.00    +0.000 C 
ATOM      8  N   UNL     1       6.268   4.262  15.070  0.00  0.00    +0.000 N 
ATOM      9  C   UNL     1       5.187   4.290  15.923  0.00  0.00    +0.000 A 
ATOM     10  C   UNL     1       5.665   4.759  17.136  0.00  0.00    +0.000 A 
ATOM     11  C   UNL     1       7.046   4.961  16.894  0.00  0.00    +0.000 A 
ATOM     12  N   UNL     1       7.412   4.655  15.651  0.00  0.00    +0.000 NA
ENDBRANCH   3  10
ENDBRANCH   1   5
BRANCH   1  13
ATOM     13  N   UNL     1       2.871   6.279  20.066  0.00  0.00    +0.000 N 
ATOM     14  H   UNL     1       3.429   6.307  20.918  0.00  0.00    +0.000 HD
BRANCH  13  15
ATOM     15  C   UNL     1       2.183   7.453  19.700  0.00  0.00    +0.000 A 
ATOM     16  C   UNL     1       2.279   7.984  18.407  0.00  0.00    +0.000 A 
ATOM     17  C   UNL     1       1.716   9.219  18.105  0.00  0.00    +0.000 A 
ATOM     18  C   UNL     1       1.028   9.914  19.095  0.00  0.00    +0.000 A 
ATOM     19 CL   UNL     1       0.423  11.487  18.759  0.00  0.00    +0.000 Cl
ATOM     20  C   UNL     1       0.845   9.348  20.357  0.00  0.00    +0.000 A 
ATOM     21  C   UNL     1       1.401   8.100  20.655  0.00  0.00    +0.000 A 
ENDBRANCH  13  15
ENDBRANCH   1  13
TORSDOF 4
ENDMDL
MODEL 3
REMARK VINA RESULT:      -6.9      3.884      4.643
REMARK  Name = 
REMARK  5 active torsions:
REMARK  status: ('A' for Active; 'I' for Inactive)
REMARK    1  A    between atoms: C_1  and  N_2
REMARK    2  A    between atoms: C_4  and  C_5
REMARK    3  A    between atoms: N_7  and  C_8
REMARK    4  A    between atoms: C_8  and  N_10
REMARK    5  A    between atoms: N_10  and  C_11
REMARK                            x       y       z     vdW  Elec       q    Type
REMARK                         _______ _______ _______ _____ _____    ______ ____
ROOT
ATOM      1  C   UNL     1       6.543   5.396  18.203  0.00  0.00    +0.000 C 
ATOM      2  S   UNL     1       7.836   5.723  19.202  0.00  0.00    +0.000 S 
ENDROOT
BRANCH   1   5
ATOM      3  C   UNL     1       6.100   5.602  15.744  0.00  0.00    +0.000 C 
ATOM      4  O   UNL     1       5.687   6.756  15.725  0.00  0.00    +0.000 OA
ATOM      5  N   UNL     1       6.594   4.980  16.878  0.00  0.00    +0.000 N 
ATOM      6  H   UNL     1       7.067   4.100  16.739  0.00  0.00    +0.000 HD
BRANCH   3  10
ATOM      7  C   UNL     1       5.611   2.564  11.753  0.00  0.00    +0.000 C 
ATOM      8  N   UNL     1       6.043   3.521  12.744  0.00  0.00    +0.000 N 
ATOM      9  C   UNL     1       5.431   3.860  13.930  0.00  0.00    +0.000 A 
ATOM     10  C   UNL     1       6.222   4.844  14.504  0.00  0.00    +0.000 A 
ATOM     11  C   UNL     1       7.284   4.999  13.579  0.00  0.00    +0.000 A 
ATOM     12  N   UNL     1       7.181   4.196  12.521  0.00  0.00    +0.000 NA
ENDBRANCH   3  10
ENDBRANCH   1   5
BRANCH   1  13
ATOM     13  N   UNL     1       5.266   5.627  18.676  0.00  0.00    +0.000 N 
ATOM     14  H   UNL     1       5.147   6.459  19.252  0.00  0.00    +0.000 HD
BRANCH  13  15
ATOM     15  C   UNL     1       4.171   4.746  18.571  0.00  0.00    +0.000 A 
ATOM     16  C   UNL     1       3.025   5.086  17.841  0.00  0.00    +0.000 A 
ATOM     17  C   UNL     1       1.899   4.271  17.871  0.00  0.00    +0.000 A 
ATOM     18  C   UNL     1       1.930   3.093  18.611  0.00  0.00    +0.000 A 
ATOM     19 CL   UNL     1       0.508   2.137  18.738  0.00  0.00    +0.000 Cl
ATOM     20  C   UNL     1       3.100   2.699  19.261  0.00  0.00    +0.000 A 
ATOM     21  C   UNL     1       4.236   3.514  19.220  0.00  0.00    +0.000 A 
ENDBRANCH  13  15
ENDBRANCH   1  13
TORSDOF 4
ENDMDL
MODEL 4
REMARK VINA RESULT:      -6.8      3.719      4.621
REMARK  Name = 
REMARK  5 active torsions:
REMARK  status: ('A' for Active; 'I' for Inactive)
REMARK    1  A    between atoms: C_1  and  N_2
REMARK    2  A    between atoms: C_4  and  C_5
REMARK    3  A    between atoms: N_7  and  C_8
REMARK    4  A    between atoms: C_8  and  N_10
REMARK    5  A    between atoms: N_10  and  C_11
REMARK                            x       y       z     vdW  Elec       q    Type
REMARK                         _______ _______ _______ _____ _____    ______ ____
ROOT
ATOM      1  C   UNL     1       7.052   5.111  17.799  0.00  0.00    +0.000 C 
ATOM      2  S   UNL     1       7.740   6.503  18.405  0.00  0.00    +0.000 S 
ENDROOT
BRANCH   1   5
ATOM      3  C   UNL     1       6.188   5.250  15.449  0.00  0.00    +0.000 C 
ATOM      4  O   UNL     1       5.555   6.295  15.544  0.00  0.00    +0.000 OA
ATOM      5  N   UNL     1       6.972   4.730  16.464  0.00  0.00    +0.000 N 
ATOM      6  H   UNL     1       7.584   3.967  16.216  0.00  0.00    +0.000 HD
BRANCH   3  10
ATOM      7  C   UNL     1       5.592   2.317  11.395  0.00  0.00    +0.000 C 
ATOM      8  N   UNL     1       6.032   3.274  12.383  0.00  0.00    +0.000 N 
ATOM      9  C   UNL     1       5.504   3.519  13.631  0.00  0.00    +0.000 A 
ATOM     10  C   UNL     1       6.259   4.548  14.173  0.00  0.00    +0.000 A 
ATOM     11  C   UNL     1       7.217   4.823  13.166  0.00  0.00    +0.000 A 
ATOM     12  N   UNL     1       7.085   4.051  12.089  0.00  0.00    +0.000 NA
ENDBRANCH   3  10
ENDBRANCH   1   5
BRANCH   1  13
ATOM     13  N   UNL     1       6.409   4.256  18.672  0.00  0.00    +0.000 N 
ATOM     14  H   UNL     1       6.980   3.514  19.072  0.00  0.00    +0.000 HD
BRANCH  13  15
ATOM     15  C   UNL     1       5.023   4.221  18.927  0.00  0.00    +0.000 A 
ATOM     16  C   UNL     1       4.389   5.229  19.664  0.00  0.00    +0.000 A 
ATOM     17  C   UNL     1       3.054   5.104  20.032  0.00  0.00    +0.000 A 
ATOM     18  C   UNL     1       2.341   3.977  19.635  0.00  0.00    +0.000 A 
ATOM     19 CL   UNL     1       0.724   3.765  20.177  0.00  0.00    +0.000 Cl
ATOM     20  C   UNL     1       2.938   3.016  18.819  0.00  0.00    +0.000 A 
ATOM     21  C   UNL     1       4.277   3.149  18.440  0.00  0.00    +0.000 A 
ENDBRANCH  13  15
ENDBRANCH   1  13
TORSDOF 4
ENDMDL
MODEL 5
REMARK VINA RESULT:      -6.8      3.586      4.605
REMARK  Name = 
REMARK  5 active torsions:
REMARK  status: ('A' for Active; 'I' for Inactive)
REMARK    1  A    between atoms: C_1  and  N_2
REMARK    2  A    between atoms: C_4  and  C_5
REMARK    3  A    between atoms: N_7  and  C_8
REMARK    4  A    between atoms: C_8  and  N_10
REMARK    5  A    between atoms: N_10  and  C_11
REMARK                            x       y       z     vdW  Elec       q    Type
REMARK                         _______ _______ _______ _____ _____    ______ ____
ROOT
ATOM      1  C   UNL     1       7.027   5.027  17.832  0.00  0.00    +0.000 C 
ATOM      2  S   UNL     1       7.633   6.455  18.444  0.00  0.00    +0.000 S 
ENDROOT
BRANCH   1   5
ATOM      3  C   UNL     1       6.234   5.268  15.466  0.00  0.00    +0.000 C 
ATOM      4  O   UNL     1       5.713   6.374  15.555  0.00  0.00    +0.000 OA
ATOM      5  N   UNL     1       6.936   4.663  16.493  0.00  0.00    +0.000 N 
ATOM      6  H   UNL     1       7.469   3.841  16.253  0.00  0.00    +0.000 HD
BRANCH   3  10
ATOM      7  C   UNL     1       5.422   2.424  11.385  0.00  0.00    +0.000 C 
ATOM      8  N   UNL     1       5.936   3.330  12.385  0.00  0.00    +0.000 N 
ATOM      9  C   UNL     1       5.415   3.619  13.627  0.00  0.00    +0.000 A 
ATOM     10  C   UNL     1       6.257   4.568  14.187  0.00  0.00    +0.000 A 
ATOM     11  C   UNL     1       7.253   4.754  13.196  0.00  0.00    +0.000 A 
ATOM     12  N   UNL     1       7.064   4.003  12.113  0.00  0.00    +0.000 NA
ENDBRANCH   3  10
ENDBRANCH   1   5
BRANCH   1  13
ATOM     13  N   UNL     1       6.471   4.115  18.707  0.00  0.00    +0.000 N 
ATOM     14  H   UNL     1       7.032   3.288  18.906  0.00  0.00    +0.000 HD
BRANCH  13  15
ATOM     15  C   UNL     1       5.155   4.148  19.211  0.00  0.00    +0.000 A 
ATOM     16  C   UNL     1       4.503   2.981  19.630  0.00  0.00    +0.000 A 
ATOM     17  C   UNL     1       3.159   3.009  19.983  0.00  0.00    +0.000 A 
ATOM     18  C   UNL     1       2.469   4.217  19.945  0.00  0.00    +0.000 A 
ATOM     19 CL   UNL     1       0.784   4.240  20.276  0.00  0.00    +0.000 Cl
ATOM     20  C   UNL     1       3.136   5.399  19.622  0.00  0.00    +0.000 A 
ATOM     21  C   UNL     1       4.492   5.371  19.279  0.00  0.00    +0.000 A 
ENDBRANCH  13  15
ENDBRANCH   1  13
TORSDOF 4
ENDMDL
MODEL 6
REMARK VINA RESULT:      -6.7      0.996      1.534
REMARK  Name = 
REMARK  5 active torsions:
REMARK  status: ('A' for Active; 'I' for Inactive)
REMARK    1  A    between atoms: C_1  and  N_2
REMARK    2  A    between atoms: C_4  and  C_5
REMARK    3  A    between atoms: N_7  and  C_8
REMARK    4  A    between atoms: C_8  and  N_10
REMARK    5  A    between atoms: N_10  and  C_11
REMARK                            x       y       z     vdW  Elec       q    Type
REMARK                         _______ _______ _______ _____ _____    ______ ____
ROOT
ATOM      1  C   UNL     1       3.134   3.980  18.885  0.00  0.00    +0.000 C 
ATOM      2  S   UNL     1       2.123   2.713  19.274  0.00  0.00    +0.000 S 
ENDROOT
BRANCH   1   5
ATOM      3  C   UNL     1       5.365   4.343  17.800  0.00  0.00    +0.000 C 
ATOM      4  O   UNL     1       6.056   4.405  18.810  0.00  0.00    +0.000 OA
ATOM      5  N   UNL     1       4.012   4.050  17.810  0.00  0.00    +0.000 N 
ATOM      6  H   UNL     1       3.587   3.850  16.917  0.00  0.00    +0.000 HD
BRANCH   3  10
ATOM      7  C   UNL     1       6.772   3.981  12.974  0.00  0.00    +0.000 C 
ATOM      8  N   UNL     1       6.628   4.306  14.374  0.00  0.00    +0.000 N 
ATOM      9  C   UNL     1       5.737   3.785  15.286  0.00  0.00    +0.000 A 
ATOM     10  C   UNL     1       5.980   4.443  16.481  0.00  0.00    +0.000 A 
ATOM     11  C   UNL     1       7.047   5.321  16.166  0.00  0.00    +0.000 A 
ATOM     12  N   UNL     1       7.443   5.233  14.898  0.00  0.00    +0.000 NA
ENDBRANCH   3  10
ENDBRANCH   1   5
BRANCH   1  13
ATOM     13  N   UNL     1       3.198   5.063  19.740  0.00  0.00    +0.000 N 
ATOM     14  H   UNL     1       3.643   4.895  20.641  0.00  0.00    +0.000 HD
BRANCH  13  15
ATOM     15  C   UNL     1       2.569   6.309  19.546  0.00  0.00    +0.000 A 
ATOM     16  C   UNL     1       2.631   6.977  18.316  0.00  0.00    +0.000 A 
ATOM     17  C   UNL     1       2.135   8.269  18.186  0.00  0.00    +0.000 A 
ATOM     18  C   UNL     1       1.547   8.887  19.286  0.00  0.00    +0.000 A 
ATOM     19 CL   UNL     1       1.029  10.520  19.161  0.00  0.00    +0.000 Cl
ATOM     20  C   UNL     1       1.394   8.193  20.486  0.00  0.00    +0.000 A 
ATOM     21  C   UNL     1       1.883   6.889  20.612  0.00  0.00    +0.000 A 
ENDBRANCH  13  15
ENDBRANCH   1  13
TORSDOF 4
ENDMDL
MODEL 7
REMARK VINA RESULT:      -6.7      3.730      4.572
REMARK  Name = 
REMARK  5 active torsions:
REMARK  status: ('A' for Active; 'I' for Inactive)
REMARK    1  A    between atoms: C_1  and  N_2
REMARK    2  A    between atoms: C_4  and  C_5
REMARK    3  A    between atoms: N_7  and  C_8
REMARK    4  A    between atoms: C_8  and  N_10
REMARK    5  A    between atoms: N_10  and  C_11
REMARK                            x       y       z     vdW  Elec       q    Type
REMARK                         _______ _______ _______ _____ _____    ______ ____
ROOT
ATOM      1  C   UNL     1       6.783   6.758  17.436  0.00  0.00    +0.000 C 
ATOM      2  S   UNL     1       7.667   8.157  17.635  0.00  0.00    +0.000 S 
ENDROOT
BRANCH   1   5
ATOM      3  C   UNL     1       7.187   4.885  15.820  0.00  0.00    +0.000 C 
ATOM      4  O   UNL     1       7.879   4.168  16.534  0.00  0.00    +0.000 OA
ATOM      5  N   UNL     1       6.586   6.054  16.254  0.00  0.00    +0.000 N 
ATOM      6  H   UNL     1       5.900   6.465  15.639  0.00  0.00    +0.000 HD
BRANCH   3  10
ATOM      7  C   UNL     1       5.184   2.931  11.628  0.00  0.00    +0.000 C 
ATOM      8  N   UNL     1       5.990   3.614  12.612  0.00  0.00    +0.000 N 
ATOM      9  C   UNL     1       5.827   3.645  13.979  0.00  0.00    +0.000 A 
ATOM     10  C   UNL     1       6.837   4.459  14.469  0.00  0.00    +0.000 A 
ATOM     11  C   UNL     1       7.549   4.842  13.306  0.00  0.00    +0.000 A 
ATOM     12  N   UNL     1       7.043   4.327  12.186  0.00  0.00    +0.000 NA
ENDBRANCH   3  10
ENDBRANCH   1   5
BRANCH   1  13
ATOM     13  N   UNL     1       6.088   6.255  18.518  0.00  0.00    +0.000 N 
ATOM     14  H   UNL     1       6.542   6.351  19.425  0.00  0.00    +0.000 HD
BRANCH  13  15
ATOM     15  C   UNL     1       4.905   5.491  18.460  0.00  0.00    +0.000 A 
ATOM     16  C   UNL     1       3.678   6.068  18.106  0.00  0.00    +0.000 A 
ATOM     17  C   UNL     1       2.499   5.337  18.198  0.00  0.00    +0.000 A 
ATOM     18  C   UNL     1       2.551   4.011  18.618  0.00  0.00    +0.000 A 
ATOM     19 CL   UNL     1       1.089   3.136  18.837  0.00  0.00    +0.000 Cl
ATOM     20  C   UNL     1       3.778   3.401  18.879  0.00  0.00    +0.000 A 
ATOM     21  C   UNL     1       4.964   4.135  18.775  0.00  0.00    +0.000 A 
ENDBRANCH  13  15
ENDBRANCH   1  13
TORSDOF 4
ENDMDL
MODEL 8
REMARK VINA RESULT:      -6.7      4.231      4.830
REMARK  Name = 
REMARK  5 active torsions:
REMARK  status: ('A' for Active; 'I' for Inactive)
REMARK    1  A    between atoms: C_1  and  N_2
REMARK    2  A    between atoms: C_4  and  C_5
REMARK    3  A    between atoms: N_7  and  C_8
REMARK    4  A    between atoms: C_8  and  N_10
REMARK    5  A    between atoms: N_10  and  C_11
REMARK                            x       y       z     vdW  Elec       q    Type
REMARK                         _______ _______ _______ _____ _____    ______ ____
ROOT
ATOM      1  C   UNL     1       6.722   4.592  18.073  0.00  0.00    +0.000 C 
ATOM      2  S   UNL     1       7.537   5.863  18.779  0.00  0.00    +0.000 S 
ENDROOT
BRANCH   1   5
ATOM      3  C   UNL     1       7.000   5.078  15.629  0.00  0.00    +0.000 C 
ATOM      4  O   UNL     1       7.638   6.120  15.717  0.00  0.00    +0.000 OA
ATOM      5  N   UNL     1       6.644   4.299  16.717  0.00  0.00    +0.000 N 
ATOM      6  H   UNL     1       6.279   3.380  16.514  0.00  0.00    +0.000 HD
BRANCH   3  10
ATOM      7  C   UNL     1       5.104   2.715  11.601  0.00  0.00    +0.000 C 
ATOM      8  N   UNL     1       5.889   3.488  12.535  0.00  0.00    +0.000 N 
ATOM      9  C   UNL     1       5.681   3.668  13.884  0.00  0.00    +0.000 A 
ATOM     10  C   UNL     1       6.688   4.515  14.320  0.00  0.00    +0.000 A 
ATOM     11  C   UNL     1       7.446   4.760  13.148  0.00  0.00    +0.000 A 
ATOM     12  N   UNL     1       6.969   4.135  12.073  0.00  0.00    +0.000 NA
ENDBRANCH   3  10
ENDBRANCH   1   5
BRANCH   1  13
ATOM     13  N   UNL     1       5.961   3.765  18.877  0.00  0.00    +0.000 N 
ATOM     14  H   UNL     1       6.480   3.143  19.494  0.00  0.00    +0.000 HD
BRANCH  13  15
ATOM     15  C   UNL     1       4.564   3.594  18.802  0.00  0.00    +0.000 A 
ATOM     16  C   UNL     1       3.724   3.964  19.860  0.00  0.00    +0.000 A 
ATOM     17  C   UNL     1       2.370   3.651  19.830  0.00  0.00    +0.000 A 
ATOM     18  C   UNL     1       1.846   2.992  18.722  0.00  0.00    +0.000 A 
ATOM     19 CL   UNL     1       0.198   2.509  18.726  0.00  0.00    +0.000 Cl
ATOM     20  C   UNL     1       2.657   2.708  17.623  0.00  0.00    +0.000 A 
ATOM     21  C   UNL     1       4.017   3.033  17.649  0.00  0.00    +0.000 A 
ENDBRANCH  13  15
ENDBRANCH   1  13
TORSDOF 4
ENDMDL
MODEL 9
REMARK VINA RESULT:      -6.7      2.976      5.984
REMARK  Name = 
REMARK  5 active torsions:
REMARK  status: ('A' for Active; 'I' for Inactive)
REMARK    1  A    between atoms: C_1  and  N_2
REMARK    2  A    between atoms: C_4  and  C_5
REMARK    3  A    between atoms: N_7  and  C_8
REMARK    4  A    between atoms: C_8  and  N_10
REMARK    5  A    between atoms: N_10  and  C_11
REMARK                            x       y       z     vdW  Elec       q    Type
REMARK                         _______ _______ _______ _____ _____    ______ ____
ROOT
ATOM      1  C   UNL     1       4.672   3.759  19.212  0.00  0.00    +0.000 C 
ATOM      2  S   UNL     1       4.267   2.252  19.798  0.00  0.00    +0.000 S 
ENDROOT
BRANCH   1   5
ATOM      3  C   UNL     1       2.898   5.390  18.520  0.00  0.00    +0.000 C 
ATOM      4  O   UNL     1       2.346   4.712  17.661  0.00  0.00    +0.000 OA
ATOM      5  N   UNL     1       3.927   4.928  19.322  0.00  0.00    +0.000 N 
ATOM      6  H   UNL     1       4.181   5.506  20.108  0.00  0.00    +0.000 HD
BRANCH   3  10
ATOM      7  C   UNL     1       1.269  10.158  18.620  0.00  0.00    +0.000 C 
ATOM      8  N   UNL     1       1.679   8.808  18.927  0.00  0.00    +0.000 N 
ATOM      9  C   UNL     1       2.188   7.854  18.075  0.00  0.00    +0.000 A 
ATOM     10  C   UNL     1       2.393   6.719  18.845  0.00  0.00    +0.000 A 
ATOM     11  C   UNL     1       1.987   7.120  20.142  0.00  0.00    +0.000 A 
ATOM     12  N   UNL     1       1.563   8.382  20.194  0.00  0.00    +0.000 NA
ENDBRANCH   3  10
ENDBRANCH   1   5
BRANCH   1  13
ATOM     13  N   UNL     1       5.823   3.890  18.460  0.00  0.00    +0.000 N 
ATOM     14  H   UNL     1       6.248   3.021  18.139  0.00  0.00    +0.000 HD
BRANCH  13  15
ATOM     15  C   UNL     1       6.537   5.084  18.240  0.00  0.00    +0.000 A 
ATOM     16  C   UNL     1       7.616   5.453  19.054  0.00  0.00    +0.000 A 
ATOM     17  C   UNL     1       8.212   6.701  18.917  0.00  0.00    +0.000 A 
ATOM     18  C   UNL     1       7.746   7.576  17.940  0.00  0.00    +0.000 A 
ATOM     19 CL   UNL     1       8.407   9.158  17.836  0.00  0.00    +0.000 Cl
ATOM     20  C   UNL     1       6.737   7.179  17.062  0.00  0.00    +0.000 A 
ATOM     21  C   UNL     1       6.146   5.918  17.193  0.00  0.00    +0.000 A 
ENDBRANCH  13  15
ENDBRANCH   1  13
TORSDOF 4
ENDMDL
