MODEL 1
REMARK VINA RESULT:      -8.7      0.000      0.000
REMARK  Name = 
REMARK  5 active torsions:
REMARK  status: ('A' for Active; 'I' for Inactive)
REMARK    1  A    between atoms: C_1  and  C_2
REMARK    2  A    between atoms: N_8  and  C_9
REMARK    3  A    between atoms: C_15  and  C_16
REMARK    4  A    between atoms: C_18  and  C_20
REMARK    5  A    between atoms: C_24  and  C_25
REMARK                            x       y       z     vdW  Elec       q    Type
REMARK                         _______ _______ _______ _____ _____    ______ ____
ROOT
ATOM      1  C   UNL     1      -0.061   9.685  17.685  0.00  0.00    +0.000 C 
ATOM      2  C   UNL     1       1.337   9.791  18.318  0.00  0.00    +0.000 C 
ATOM      3  C   UNL     1       1.845  11.255  18.253  0.00  0.00    +0.000 C 
ATOM      4  C   UNL     1       1.432  11.995  19.460  0.00  0.00    +0.000 A 
ATOM      5  C   UNL     1       0.979  11.406  20.612  0.00  0.00    +0.000 A 
ATOM      6  N   UNL     1       0.965  12.332  21.616  0.00  0.00    +0.000 NA
ATOM      7  N   UNL     1       1.444  13.471  21.126  0.00  0.00    +0.000 NA
ATOM      8  N   UNL     1       1.693  13.306  19.799  0.00  0.00    +0.000 N 
ATOM      9  C   UNL     1       0.709   9.950  20.804  0.00  0.00    +0.000 C 
ATOM     10  C   UNL     1      -0.784   9.641  20.927  0.00  0.00    +0.000 C 
ATOM     11  N   UNL     1       1.359   9.183  19.688  0.00  0.00    +0.000 N 
ATOM     12  C   UNL     1       1.806   7.884  20.025  0.00  0.00    +0.000 C 
ATOM     13  O   UNL     1       1.598   7.417  21.146  0.00  0.00    +0.000 OA
ENDROOT
BRANCH  12  14
ATOM     14  C   UNL     1       2.560   7.015  19.058  0.00  0.00    +0.000 A 
ATOM     15  C   UNL     1       3.352   7.613  18.069  0.00  0.00    +0.000 A 
ATOM     16  C   UNL     1       4.142   6.855  17.211  0.00  0.00    +0.000 A 
ATOM     17  C   UNL     1       4.068   5.470  17.247  0.00  0.00    +0.000 A 
ATOM     18  C   UNL     1       3.184   4.825  18.130  0.00  0.00    +0.000 A 
ATOM     19  C   UNL     1       2.432   5.602  19.042  0.00  0.00    +0.000 A 
ATOM     20 CL   UNL     1       1.361   4.777  20.131  0.00  0.00    +0.000 Cl
BRANCH  18  21
ATOM     21  C   UNL     1       3.071   3.319  18.061  0.00  0.00    +0.000 C 
ATOM     22  F   UNL     1       3.961   2.765  17.183  0.00  0.00    +0.000 F 
ATOM     23  F   UNL     1       3.321   2.703  19.249  0.00  0.00    +0.000 F 
ATOM     24  F   UNL     1       1.851   2.889  17.642  0.00  0.00    +0.000 F 
ENDBRANCH  18  21
ENDBRANCH  12  14
BRANCH   8  25
ATOM     25  C   UNL     1       2.184  14.367  19.000  0.00  0.00    +0.000 A 
ATOM     26  C   UNL     1       1.410  15.527  18.855  0.00  0.00    +0.000 A 
ATOM     27  C   UNL     1       1.897  16.601  18.105  0.00  0.00    +0.000 A 
ATOM     28  C   UNL     1       3.134  16.508  17.469  0.00  0.00    +0.000 A 
ATOM     29  C   UNL     1       3.891  15.343  17.583  0.00  0.00    +0.000 A 
ATOM     30  C   UNL     1       3.420  14.277  18.351  0.00  0.00    +0.000 A 
ENDBRANCH   8  25
TORSDOF 3
ENDMDL
MODEL 2
REMARK VINA RESULT:      -8.6      6.991      9.645
REMARK  Name = 
REMARK  5 active torsions:
REMARK  status: ('A' for Active; 'I' for Inactive)
REMARK    1  A    between atoms: C_1  and  C_2
REMARK    2  A    between atoms: N_8  and  C_9
REMARK    3  A    between atoms: C_15  and  C_16
REMARK    4  A    between atoms: C_18  and  C_20
REMARK    5  A    between atoms: C_24  and  C_25
REMARK                            x       y       z     vdW  Elec       q    Type
REMARK                         _______ _______ _______ _____ _____    ______ ____
ROOT
ATOM      1  C   UNL     1      -1.456  13.938  20.165  0.00  0.00    +0.000 C 
ATOM      2  C   UNL     1      -2.193  12.594  20.295  0.00  0.00    +0.000 C 
ATOM      3  C   UNL     1      -1.246  11.425  19.917  0.00  0.00    +0.000 C 
ATOM      4  C   UNL     1      -0.523  10.946  21.110  0.00  0.00    +0.000 A 
ATOM      5  C   UNL     1      -0.877  11.241  22.402  0.00  0.00    +0.000 A 
ATOM      6  N   UNL     1      -0.197  10.419  23.255  0.00  0.00    +0.000 NA
ATOM      7  N   UNL     1       0.536   9.588  22.521  0.00  0.00    +0.000 NA
ATOM      8  N   UNL     1       0.392   9.919  21.209  0.00  0.00    +0.000 N 
ATOM      9  C   UNL     1      -1.961  12.180  22.819  0.00  0.00    +0.000 C 
ATOM     10  C   UNL     1      -1.414  13.462  23.452  0.00  0.00    +0.000 C 
ATOM     11  N   UNL     1      -2.845  12.461  21.637  0.00  0.00    +0.000 N 
ATOM     12  C   UNL     1      -4.202  12.714  21.943  0.00  0.00    +0.000 C 
ATOM     13  O   UNL     1      -4.587  12.763  23.113  0.00  0.00    +0.000 OA
ENDROOT
BRANCH  12  14
ATOM     14  C   UNL     1      -5.243  12.922  20.878  0.00  0.00    +0.000 A 
ATOM     15  C   UNL     1      -5.848  11.807  20.283  0.00  0.00    +0.000 A 
ATOM     16  C   UNL     1      -6.882  11.945  19.362  0.00  0.00    +0.000 A 
ATOM     17  C   UNL     1      -7.255  13.209  18.928  0.00  0.00    +0.000 A 
ATOM     18  C   UNL     1      -6.584  14.353  19.395  0.00  0.00    +0.000 A 
ATOM     19  C   UNL     1      -5.577  14.207  20.379  0.00  0.00    +0.000 A 
ATOM     20 CL   UNL     1      -4.776  15.638  20.948  0.00  0.00    +0.000 Cl
BRANCH  18  21
ATOM     21  C   UNL     1      -6.965  15.697  18.817  0.00  0.00    +0.000 C 
ATOM     22  F   UNL     1      -7.914  15.597  17.838  0.00  0.00    +0.000 F 
ATOM     23  F   UNL     1      -7.497  16.548  19.736  0.00  0.00    +0.000 F 
ATOM     24  F   UNL     1      -5.923  16.347  18.232  0.00  0.00    +0.000 F 
ENDBRANCH  18  21
ENDBRANCH  12  14
BRANCH   8  25
ATOM     25  C   UNL     1       1.086   9.223  20.189  0.00  0.00    +0.000 A 
ATOM     26  C   UNL     1       1.650   7.973  20.478  0.00  0.00    +0.000 A 
ATOM     27  C   UNL     1       2.301   7.253  19.473  0.00  0.00    +0.000 A 
ATOM     28  C   UNL     1       2.424   7.791  18.192  0.00  0.00    +0.000 A 
ATOM     29  C   UNL     1       1.893   9.049  17.911  0.00  0.00    +0.000 A 
ATOM     30  C   UNL     1       1.221   9.761  18.905  0.00  0.00    +0.000 A 
ENDBRANCH   8  25
TORSDOF 3
ENDMDL
MODEL 3
REMARK VINA RESULT:      -8.5      7.042      9.666
REMARK  Name = 
REMARK  5 active torsions:
REMARK  status: ('A' for Active; 'I' for Inactive)
REMARK    1  A    between atoms: C_1  and  C_2
REMARK    2  A    between atoms: N_8  and  C_9
REMARK    3  A    between atoms: C_15  and  C_16
REMARK    4  A    between atoms: C_18  and  C_20
REMARK    5  A    between atoms: C_24  and  C_25
REMARK                            x       y       z     vdW  Elec       q    Type
REMARK                         _______ _______ _______ _____ _____    ______ ____
ROOT
ATOM      1  C   UNL     1      -1.610  14.034  20.309  0.00  0.00    +0.000 C 
ATOM      2  C   UNL     1      -2.328  12.677  20.409  0.00  0.00    +0.000 C 
ATOM      3  C   UNL     1      -1.368  11.531  19.997  0.00  0.00    +0.000 C 
ATOM      4  C   UNL     1      -0.633  11.032  21.173  0.00  0.00    +0.000 A 
ATOM      5  C   UNL     1      -0.984  11.289  22.474  0.00  0.00    +0.000 A 
ATOM      6  N   UNL     1      -0.289  10.455  23.302  0.00  0.00    +0.000 NA
ATOM      7  N   UNL     1       0.452   9.652  22.544  0.00  0.00    +0.000 NA
ATOM      8  N   UNL     1       0.296  10.014  21.242  0.00  0.00    +0.000 N 
ATOM      9  C   UNL     1      -2.078  12.203  22.920  0.00  0.00    +0.000 C 
ATOM     10  C   UNL     1      -1.545  13.475  23.583  0.00  0.00    +0.000 C 
ATOM     11  N   UNL     1      -2.971  12.502  21.750  0.00  0.00    +0.000 N 
ATOM     12  C   UNL     1      -4.330  12.729  22.069  0.00  0.00    +0.000 C 
ATOM     13  O   UNL     1      -4.709  12.743  23.241  0.00  0.00    +0.000 OA
ENDROOT
BRANCH  12  14
ATOM     14  C   UNL     1      -5.379  12.949  21.015  0.00  0.00    +0.000 A 
ATOM     15  C   UNL     1      -6.055  11.847  20.476  0.00  0.00    +0.000 A 
ATOM     16  C   UNL     1      -7.098  12.003  19.569  0.00  0.00    +0.000 A 
ATOM     17  C   UNL     1      -7.412  13.267  19.090  0.00  0.00    +0.000 A 
ATOM     18  C   UNL     1      -6.671  14.391  19.498  0.00  0.00    +0.000 A 
ATOM     19  C   UNL     1      -5.654  14.230  20.469  0.00  0.00    +0.000 A 
ATOM     20 CL   UNL     1      -4.767  15.637  20.965  0.00  0.00    +0.000 Cl
BRANCH  18  21
ATOM     21  C   UNL     1      -6.991  15.729  18.872  0.00  0.00    +0.000 C 
ATOM     22  F   UNL     1      -5.893  16.326  18.318  0.00  0.00    +0.000 F 
ATOM     23  F   UNL     1      -7.895  15.648  17.858  0.00  0.00    +0.000 F 
ATOM     24  F   UNL     1      -7.475  16.637  19.761  0.00  0.00    +0.000 F 
ENDBRANCH  18  21
ENDBRANCH  12  14
BRANCH   8  25
ATOM     25  C   UNL     1       0.993   9.354  20.201  0.00  0.00    +0.000 A 
ATOM     26  C   UNL     1       1.120   9.984  18.956  0.00  0.00    +0.000 A 
ATOM     27  C   UNL     1       1.840   9.366  17.931  0.00  0.00    +0.000 A 
ATOM     28  C   UNL     1       2.402   8.105  18.131  0.00  0.00    +0.000 A 
ATOM     29  C   UNL     1       2.249   7.460  19.357  0.00  0.00    +0.000 A 
ATOM     30  C   UNL     1       1.552   8.085  20.392  0.00  0.00    +0.000 A 
ENDBRANCH   8  25
TORSDOF 3
ENDMDL
MODEL 4
REMARK VINA RESULT:      -8.4      2.794      4.042
REMARK  Name = 
REMARK  5 active torsions:
REMARK  status: ('A' for Active; 'I' for Inactive)
REMARK    1  A    between atoms: C_1  and  C_2
REMARK    2  A    between atoms: N_8  and  C_9
REMARK    3  A    between atoms: C_15  and  C_16
REMARK    4  A    between atoms: C_18  and  C_20
REMARK    5  A    between atoms: C_24  and  C_25
REMARK                            x       y       z     vdW  Elec       q    Type
REMARK                         _______ _______ _______ _____ _____    ______ ____
ROOT
ATOM      1  C   UNL     1       1.446   6.219  17.354  0.00  0.00    +0.000 C 
ATOM      2  C   UNL     1       2.548   7.105  17.961  0.00  0.00    +0.000 C 
ATOM      3  C   UNL     1       2.009   8.538  18.209  0.00  0.00    +0.000 C 
ATOM      4  C   UNL     1       1.426   8.638  19.560  0.00  0.00    +0.000 A 
ATOM      5  C   UNL     1       1.636   7.728  20.564  0.00  0.00    +0.000 A 
ATOM      6  N   UNL     1       1.208   8.257  21.748  0.00  0.00    +0.000 NA
ATOM      7  N   UNL     1       0.781   9.493  21.512  0.00  0.00    +0.000 NA
ATOM      8  N   UNL     1       0.859   9.735  20.175  0.00  0.00    +0.000 N 
ATOM      9  C   UNL     1       2.374   6.436  20.434  0.00  0.00    +0.000 C 
ATOM     10  C   UNL     1       1.448   5.220  20.523  0.00  0.00    +0.000 C 
ATOM     11  N   UNL     1       3.168   6.454  19.159  0.00  0.00    +0.000 N 
ATOM     12  C   UNL     1       4.377   5.721  19.189  0.00  0.00    +0.000 C 
ATOM     13  O   UNL     1       4.693   5.065  20.183  0.00  0.00    +0.000 OA
ENDROOT
BRANCH  12  14
ATOM     14  C   UNL     1       5.339   5.707  18.034  0.00  0.00    +0.000 A 
ATOM     15  C   UNL     1       6.401   6.621  18.014  0.00  0.00    +0.000 A 
ATOM     16  C   UNL     1       7.372   6.587  17.018  0.00  0.00    +0.000 A 
ATOM     17  C   UNL     1       7.237   5.710  15.952  0.00  0.00    +0.000 A 
ATOM     18  C   UNL     1       6.116   4.867  15.857  0.00  0.00    +0.000 A 
ATOM     19  C   UNL     1       5.166   4.863  16.907  0.00  0.00    +0.000 A 
ATOM     20 CL   UNL     1       3.800   3.801  16.771  0.00  0.00    +0.000 Cl
BRANCH  18  21
ATOM     21  C   UNL     1       5.969   4.001  14.627  0.00  0.00    +0.000 C 
ATOM     22  F   UNL     1       7.005   4.156  13.748  0.00  0.00    +0.000 F 
ATOM     23  F   UNL     1       5.942   2.669  14.904  0.00  0.00    +0.000 F 
ATOM     24  F   UNL     1       4.850   4.277  13.904  0.00  0.00    +0.000 F 
ENDBRANCH  18  21
ENDBRANCH  12  14
BRANCH   8  25
ATOM     25  C   UNL     1       0.439  10.968  19.619  0.00  0.00    +0.000 A 
ATOM     26  C   UNL     1       1.252  12.099  19.775  0.00  0.00    +0.000 A 
ATOM     27  C   UNL     1       0.874  13.314  19.197  0.00  0.00    +0.000 A 
ATOM     28  C   UNL     1      -0.329  13.414  18.498  0.00  0.00    +0.000 A 
ATOM     29  C   UNL     1      -1.156  12.299  18.371  0.00  0.00    +0.000 A 
ATOM     30  C   UNL     1      -0.771  11.077  18.925  0.00  0.00    +0.000 A 
ENDBRANCH   8  25
TORSDOF 3
ENDMDL
MODEL 5
REMARK VINA RESULT:      -8.3      0.578      1.055
REMARK  Name = 
REMARK  5 active torsions:
REMARK  status: ('A' for Active; 'I' for Inactive)
REMARK    1  A    between atoms: C_1  and  C_2
REMARK    2  A    between atoms: N_8  and  C_9
REMARK    3  A    between atoms: C_15  and  C_16
REMARK    4  A    between atoms: C_18  and  C_20
REMARK    5  A    between atoms: C_24  and  C_25
REMARK                            x       y       z     vdW  Elec       q    Type
REMARK                         _______ _______ _______ _____ _____    ______ ____
ROOT
ATOM      1  C   UNL     1      -0.387  10.045  18.009  0.00  0.00    +0.000 C 
ATOM      2  C   UNL     1       1.043  10.173  18.563  0.00  0.00    +0.000 C 
ATOM      3  C   UNL     1       1.549  11.631  18.410  0.00  0.00    +0.000 C 
ATOM      4  C   UNL     1       1.201  12.421  19.605  0.00  0.00    +0.000 A 
ATOM      5  C   UNL     1       0.808  11.883  20.804  0.00  0.00    +0.000 A 
ATOM      6  N   UNL     1       0.848  12.850  21.767  0.00  0.00    +0.000 NA
ATOM      7  N   UNL     1       1.303  13.966  21.206  0.00  0.00    +0.000 NA
ATOM      8  N   UNL     1       1.482  13.745  19.875  0.00  0.00    +0.000 N 
ATOM      9  C   UNL     1       0.547  10.436  21.070  0.00  0.00    +0.000 C 
ATOM     10  C   UNL     1      -0.939  10.138  21.284  0.00  0.00    +0.000 C 
ATOM     11  N   UNL     1       1.136   9.622  19.953  0.00  0.00    +0.000 N 
ATOM     12  C   UNL     1       1.598   8.337  20.321  0.00  0.00    +0.000 C 
ATOM     13  O   UNL     1       1.448   7.917  21.469  0.00  0.00    +0.000 OA
ENDROOT
BRANCH  12  14
ATOM     14  C   UNL     1       2.299   7.425  19.352  0.00  0.00    +0.000 A 
ATOM     15  C   UNL     1       2.951   7.974  18.241  0.00  0.00    +0.000 A 
ATOM     16  C   UNL     1       3.693   7.184  17.368  0.00  0.00    +0.000 A 
ATOM     17  C   UNL     1       3.702   5.806  17.523  0.00  0.00    +0.000 A 
ATOM     18  C   UNL     1       2.951   5.196  18.543  0.00  0.00    +0.000 A 
ATOM     19  C   UNL     1       2.251   6.011  19.464  0.00  0.00    +0.000 A 
ATOM     20 CL   UNL     1       1.345   5.232  20.723  0.00  0.00    +0.000 Cl
BRANCH  18  21
ATOM     21  C   UNL     1       2.918   3.686  18.608  0.00  0.00    +0.000 C 
ATOM     22  F   UNL     1       3.628   3.101  17.596  0.00  0.00    +0.000 F 
ATOM     23  F   UNL     1       3.458   3.183  19.751  0.00  0.00    +0.000 F 
ATOM     24  F   UNL     1       1.665   3.169  18.502  0.00  0.00    +0.000 F 
ENDBRANCH  18  21
ENDBRANCH  12  14
BRANCH   8  25
ATOM     25  C   UNL     1       1.931  14.770  19.008  0.00  0.00    +0.000 A 
ATOM     26  C   UNL     1       3.138  14.599  18.316  0.00  0.00    +0.000 A 
ATOM     27  C   UNL     1       3.576  15.581  17.424  0.00  0.00    +0.000 A 
ATOM     28  C   UNL     1       2.834  16.750  17.249  0.00  0.00    +0.000 A 
ATOM     29  C   UNL     1       1.651  16.938  17.962  0.00  0.00    +0.000 A 
ATOM     30  C   UNL     1       1.197  15.949  18.835  0.00  0.00    +0.000 A 
ENDBRANCH   8  25
TORSDOF 3
ENDMDL
MODEL 6
REMARK VINA RESULT:      -7.9      6.181      8.991
REMARK  Name = 
REMARK  5 active torsions:
REMARK  status: ('A' for Active; 'I' for Inactive)
REMARK    1  A    between atoms: C_1  and  C_2
REMARK    2  A    between atoms: N_8  and  C_9
REMARK    3  A    between atoms: C_15  and  C_16
REMARK    4  A    between atoms: C_18  and  C_20
REMARK    5  A    between atoms: C_24  and  C_25
REMARK                            x       y       z     vdW  Elec       q    Type
REMARK                         _______ _______ _______ _____ _____    ______ ____
ROOT
ATOM      1  C   UNL     1      -0.997  14.625  20.303  0.00  0.00    +0.000 C 
ATOM      2  C   UNL     1      -1.904  13.383  20.279  0.00  0.00    +0.000 C 
ATOM      3  C   UNL     1      -1.081  12.126  19.892  0.00  0.00    +0.000 C 
ATOM      4  C   UNL     1      -0.528  11.485  21.099  0.00  0.00    +0.000 A 
ATOM      5  C   UNL     1      -0.951  11.743  22.377  0.00  0.00    +0.000 A 
ATOM      6  N   UNL     1      -0.454  10.789  23.218  0.00  0.00    +0.000 NA
ATOM      7  N   UNL     1       0.231   9.916  22.485  0.00  0.00    +0.000 NA
ATOM      8  N   UNL     1       0.241  10.344  21.193  0.00  0.00    +0.000 N 
ATOM      9  C   UNL     1      -1.941  12.787  22.778  0.00  0.00    +0.000 C 
ATOM     10  C   UNL     1      -1.295  13.945  23.541  0.00  0.00    +0.000 C 
ATOM     11  N   UNL     1      -2.679  13.253  21.555  0.00  0.00    +0.000 N 
ATOM     12  C   UNL     1      -4.016  13.660  21.773  0.00  0.00    +0.000 C 
ATOM     13  O   UNL     1      -4.489  13.686  22.910  0.00  0.00    +0.000 OA
ENDROOT
BRANCH  12  14
ATOM     14  C   UNL     1      -4.928  14.067  20.650  0.00  0.00    +0.000 A 
ATOM     15  C   UNL     1      -5.492  15.349  20.652  0.00  0.00    +0.000 A 
ATOM     16  C   UNL     1      -6.266  15.806  19.590  0.00  0.00    +0.000 A 
ATOM     17  C   UNL     1      -6.590  14.946  18.552  0.00  0.00    +0.000 A 
ATOM     18  C   UNL     1      -6.161  13.607  18.572  0.00  0.00    +0.000 A 
ATOM     19  C   UNL     1      -5.322  13.169  19.624  0.00  0.00    +0.000 A 
ATOM     20 CL   UNL     1      -4.794  11.515  19.615  0.00  0.00    +0.000 Cl
BRANCH  18  21
ATOM     21  C   UNL     1      -6.623  12.686  17.465  0.00  0.00    +0.000 C 
ATOM     22  F   UNL     1      -7.414  13.322  16.549  0.00  0.00    +0.000 F 
ATOM     23  F   UNL     1      -5.600  12.159  16.739  0.00  0.00    +0.000 F 
ATOM     24  F   UNL     1      -7.371  11.641  17.911  0.00  0.00    +0.000 F 
ENDBRANCH  18  21
ENDBRANCH  12  14
BRANCH   8  25
ATOM     25  C   UNL     1       0.927   9.628  20.182  0.00  0.00    +0.000 A 
ATOM     26  C   UNL     1       1.450   8.361  20.477  0.00  0.00    +0.000 A 
ATOM     27  C   UNL     1       2.092   7.622  19.480  0.00  0.00    +0.000 A 
ATOM     28  C   UNL     1       2.248   8.158  18.201  0.00  0.00    +0.000 A 
ATOM     29  C   UNL     1       1.759   9.431  17.914  0.00  0.00    +0.000 A 
ATOM     30  C   UNL     1       1.095  10.163  18.900  0.00  0.00    +0.000 A 
ENDBRANCH   8  25
TORSDOF 3
ENDMDL
MODEL 7
REMARK VINA RESULT:      -7.7      2.332      3.272
REMARK  Name = 
REMARK  5 active torsions:
REMARK  status: ('A' for Active; 'I' for Inactive)
REMARK    1  A    between atoms: C_1  and  C_2
REMARK    2  A    between atoms: N_8  and  C_9
REMARK    3  A    between atoms: C_15  and  C_16
REMARK    4  A    between atoms: C_18  and  C_20
REMARK    5  A    between atoms: C_24  and  C_25
REMARK                            x       y       z     vdW  Elec       q    Type
REMARK                         _______ _______ _______ _____ _____    ______ ____
ROOT
ATOM      1  C   UNL     1      -1.812  11.862  18.672  0.00  0.00    +0.000 C 
ATOM      2  C   UNL     1      -0.324  12.171  18.913  0.00  0.00    +0.000 C 
ATOM      3  C   UNL     1      -0.004  13.628  18.490  0.00  0.00    +0.000 C 
ATOM      4  C   UNL     1      -0.199  14.546  19.627  0.00  0.00    +0.000 A 
ATOM      5  C   UNL     1      -0.305  14.148  20.935  0.00  0.00    +0.000 A 
ATOM      6  N   UNL     1      -0.182  15.237  21.750  0.00  0.00    +0.000 NA
ATOM      7  N   UNL     1       0.045  16.297  20.981  0.00  0.00    +0.000 NA
ATOM      8  N   UNL     1      -0.007  15.911  19.677  0.00  0.00    +0.000 N 
ATOM      9  C   UNL     1      -0.365  12.735  21.418  0.00  0.00    +0.000 C 
ATOM     10  C   UNL     1      -1.747  12.358  21.957  0.00  0.00    +0.000 C 
ATOM     11  N   UNL     1       0.083  11.823  20.312  0.00  0.00    +0.000 N 
ATOM     12  C   UNL     1       0.732  10.638  20.730  0.00  0.00    +0.000 C 
ATOM     13  O   UNL     1       0.843  10.369  21.927  0.00  0.00    +0.000 OA
ENDROOT
BRANCH  12  14
ATOM     14  C   UNL     1       1.327   9.658  19.757  0.00  0.00    +0.000 A 
ATOM     15  C   UNL     1       1.586  10.067  18.443  0.00  0.00    +0.000 A 
ATOM     16  C   UNL     1       2.222   9.230  17.531  0.00  0.00    +0.000 A 
ATOM     17  C   UNL     1       2.508   7.919  17.882  0.00  0.00    +0.000 A 
ATOM     18  C   UNL     1       2.142   7.421  19.146  0.00  0.00    +0.000 A 
ATOM     19  C   UNL     1       1.554   8.298  20.088  0.00  0.00    +0.000 A 
ATOM     20 CL   UNL     1       1.127   7.659  21.645  0.00  0.00    +0.000 Cl
BRANCH  18  21
ATOM     21  C   UNL     1       2.390   5.959  19.442  0.00  0.00    +0.000 C 
ATOM     22  F   UNL     1       3.519   5.757  20.185  0.00  0.00    +0.000 F 
ATOM     23  F   UNL     1       1.390   5.376  20.158  0.00  0.00    +0.000 F 
ATOM     24  F   UNL     1       2.565   5.205  18.323  0.00  0.00    +0.000 F 
ENDBRANCH  18  21
ENDBRANCH  12  14
BRANCH   8  25
ATOM     25  C   UNL     1       0.167  16.840  18.623  0.00  0.00    +0.000 A 
ATOM     26  C   UNL     1       1.451  17.048  18.101  0.00  0.00    +0.000 A 
ATOM     27  C   UNL     1       1.635  17.929  17.032  0.00  0.00    +0.000 A 
ATOM     28  C   UNL     1       0.550  18.631  16.507  0.00  0.00    +0.000 A 
ATOM     29  C   UNL     1      -0.723  18.452  17.046  0.00  0.00    +0.000 A 
ATOM     30  C   UNL     1      -0.916  17.554  18.097  0.00  0.00    +0.000 A 
ENDBRANCH   8  25
TORSDOF 3
ENDMDL
MODEL 8
REMARK VINA RESULT:      -7.7      6.641      8.984
REMARK  Name = 
REMARK  5 active torsions:
REMARK  status: ('A' for Active; 'I' for Inactive)
REMARK    1  A    between atoms: C_1  and  C_2
REMARK    2  A    between atoms: N_8  and  C_9
REMARK    3  A    between atoms: C_15  and  C_16
REMARK    4  A    between atoms: C_18  and  C_20
REMARK    5  A    between atoms: C_24  and  C_25
REMARK                            x       y       z     vdW  Elec       q    Type
REMARK                         _______ _______ _______ _____ _____    ______ ____
ROOT
ATOM      1  C   UNL     1      -0.544  11.043  19.288  0.00  0.00    +0.000 C 
ATOM      2  C   UNL     1      -0.934  12.501  19.589  0.00  0.00    +0.000 C 
ATOM      3  C   UNL     1      -2.462  12.695  19.405  0.00  0.00    +0.000 C 
ATOM      4  C   UNL     1      -3.168  12.428  20.672  0.00  0.00    +0.000 A 
ATOM      5  C   UNL     1      -2.560  12.361  21.899  0.00  0.00    +0.000 A 
ATOM      6  N   UNL     1      -3.512  12.395  22.877  0.00  0.00    +0.000 NA
ATOM      7  N   UNL     1      -4.696  12.529  22.287  0.00  0.00    +0.000 NA
ATOM      8  N   UNL     1      -4.519  12.505  20.939  0.00  0.00    +0.000 N 
ATOM      9  C   UNL     1      -1.089  12.421  22.151  0.00  0.00    +0.000 C 
ATOM     10  C   UNL     1      -0.517  11.077  22.610  0.00  0.00    +0.000 C 
ATOM     11  N   UNL     1      -0.404  12.940  20.919  0.00  0.00    +0.000 N 
ATOM     12  C   UNL     1       0.774  13.687  21.151  0.00  0.00    +0.000 C 
ATOM     13  O   UNL     1       1.219  13.825  22.292  0.00  0.00    +0.000 OA
ENDROOT
BRANCH  12  14
ATOM     14  C   UNL     1       1.534  14.359  20.041  0.00  0.00    +0.000 A 
ATOM     15  C   UNL     1       2.751  13.813  19.613  0.00  0.00    +0.000 A 
ATOM     16  C   UNL     1       3.445  14.341  18.529  0.00  0.00    +0.000 A 
ATOM     17  C   UNL     1       2.994  15.503  17.920  0.00  0.00    +0.000 A 
ATOM     18  C   UNL     1       1.851  16.165  18.402  0.00  0.00    +0.000 A 
ATOM     19  C   UNL     1       1.116  15.586  19.464  0.00  0.00    +0.000 A 
ATOM     20 CL   UNL     1      -0.300  16.417  20.028  0.00  0.00    +0.000 Cl
BRANCH  18  21
ATOM     21  C   UNL     1       1.458  17.478  17.765  0.00  0.00    +0.000 C 
ATOM     22  F   UNL     1       0.169  17.477  17.309  0.00  0.00    +0.000 F 
ATOM     23  F   UNL     1       1.527  18.535  18.620  0.00  0.00    +0.000 F 
ATOM     24  F   UNL     1       2.214  17.798  16.680  0.00  0.00    +0.000 F 
ENDBRANCH  18  21
ENDBRANCH  12  14
BRANCH   8  25
ATOM     25  C   UNL     1      -5.614  12.597  20.046  0.00  0.00    +0.000 A 
ATOM     26  C   UNL     1      -6.411  13.750  20.059  0.00  0.00    +0.000 A 
ATOM     27  C   UNL     1      -7.470  13.876  19.156  0.00  0.00    +0.000 A 
ATOM     28  C   UNL     1      -7.761  12.841  18.267  0.00  0.00    +0.000 A 
ATOM     29  C   UNL     1      -6.991  11.678  18.275  0.00  0.00    +0.000 A 
ATOM     30  C   UNL     1      -5.917  11.558  19.158  0.00  0.00    +0.000 A 
ENDBRANCH   8  25
TORSDOF 3
ENDMDL
MODEL 9
REMARK VINA RESULT:      -7.7      2.219      3.058
REMARK  Name = 
REMARK  5 active torsions:
REMARK  status: ('A' for Active; 'I' for Inactive)
REMARK    1  A    between atoms: C_1  and  C_2
REMARK    2  A    between atoms: N_8  and  C_9
REMARK    3  A    between atoms: C_15  and  C_16
REMARK    4  A    between atoms: C_18  and  C_20
REMARK    5  A    between atoms: C_24  and  C_25
REMARK                            x       y       z     vdW  Elec       q    Type
REMARK                         _______ _______ _______ _____ _____    ______ ____
ROOT
ATOM      1  C   UNL     1      -1.716  11.743  18.675  0.00  0.00    +0.000 C 
ATOM      2  C   UNL     1      -0.223  12.031  18.911  0.00  0.00    +0.000 C 
ATOM      3  C   UNL     1       0.117  13.481  18.479  0.00  0.00    +0.000 C 
ATOM      4  C   UNL     1      -0.063  14.408  19.612  0.00  0.00    +0.000 A 
ATOM      5  C   UNL     1      -0.173  14.019  20.923  0.00  0.00    +0.000 A 
ATOM      6  N   UNL     1      -0.033  15.111  21.731  0.00  0.00    +0.000 NA
ATOM      7  N   UNL     1       0.209  16.163  20.955  0.00  0.00    +0.000 NA
ATOM      8  N   UNL     1       0.149  15.770  19.654  0.00  0.00    +0.000 N 
ATOM      9  C   UNL     1      -0.253  12.610  21.413  0.00  0.00    +0.000 C 
ATOM     10  C   UNL     1      -1.639  12.256  21.956  0.00  0.00    +0.000 C 
ATOM     11  N   UNL     1       0.180  11.685  20.312  0.00  0.00    +0.000 N 
ATOM     12  C   UNL     1       0.813  10.493  20.736  0.00  0.00    +0.000 C 
ATOM     13  O   UNL     1       0.922  10.229  21.934  0.00  0.00    +0.000 OA
ENDROOT
BRANCH  12  14
ATOM     14  C   UNL     1       1.392   9.500  19.768  0.00  0.00    +0.000 A 
ATOM     15  C   UNL     1       1.662   9.899  18.453  0.00  0.00    +0.000 A 
ATOM     16  C   UNL     1       2.285   9.047  17.546  0.00  0.00    +0.000 A 
ATOM     17  C   UNL     1       2.546   7.732  17.902  0.00  0.00    +0.000 A 
ATOM     18  C   UNL     1       2.168   7.245  19.166  0.00  0.00    +0.000 A 
ATOM     19  C   UNL     1       1.593   8.136  20.103  0.00  0.00    +0.000 A 
ATOM     20 CL   UNL     1       1.151   7.511  21.661  0.00  0.00    +0.000 Cl
BRANCH  18  21
ATOM     21  C   UNL     1       2.387   5.780  19.467  0.00  0.00    +0.000 C 
ATOM     22  F   UNL     1       1.255   5.162  19.922  0.00  0.00    +0.000 F 
ATOM     23  F   UNL     1       2.768   5.056  18.379  0.00  0.00    +0.000 F 
ATOM     24  F   UNL     1       3.319   5.562  20.433  0.00  0.00    +0.000 F 
ENDBRANCH  18  21
ENDBRANCH  12  14
BRANCH   8  25
ATOM     25  C   UNL     1       0.335  16.691  18.594  0.00  0.00    +0.000 A 
ATOM     26  C   UNL     1      -0.774  17.384  18.089  0.00  0.00    +0.000 A 
ATOM     27  C   UNL     1      -0.603  18.327  17.072  0.00  0.00    +0.000 A 
ATOM     28  C   UNL     1       0.663  18.553  16.531  0.00  0.00    +0.000 A 
ATOM     29  C   UNL     1       1.762  17.840  17.007  0.00  0.00    +0.000 A 
ATOM     30  C   UNL     1       1.600  16.915  18.040  0.00  0.00    +0.000 A 
ENDBRANCH   8  25
TORSDOF 3
ENDMDL
