MODEL 1
REMARK VINA RESULT:      -7.3      0.000      0.000
REMARK  Name = 
REMARK  5 active torsions:
REMARK  status: ('A' for Active; 'I' for Inactive)
REMARK    1  A    between atoms: C_2  and  C_3
REMARK    2  A    between atoms: C_3  and  C_4
REMARK    3  A    between atoms: C_4  and  C_5
REMARK    4  A    between atoms: C_14  and  O_15
REMARK    5  A    between atoms: C_16  and  O_17
REMARK                            x       y       z     vdW  Elec       q    Type
REMARK                         _______ _______ _______ _____ _____    ______ ____
ROOT
ATOM      1  O   UNL     1       5.164   4.137  15.166  0.00  0.00    +0.000 OA
ATOM      2  C   UNL     1       4.714   4.394  16.283  0.00  0.00    +0.000 C 
ATOM      3  N   UNL     1       5.407   5.208  17.169  0.00  0.00    +0.000 N 
ATOM      4  C   UNL     1       4.978   5.547  18.530  0.00  0.00    +0.000 C 
ATOM      5  C   UNL     1       6.066   5.196  19.538  0.00  0.00    +0.000 C 
ATOM      6  C   UNL     1       7.399   5.837  19.149  0.00  0.00    +0.000 C 
ATOM      7  C   UNL     1       7.798   5.476  17.709  0.00  0.00    +0.000 C 
ATOM      8  C   UNL     1       6.667   5.833  16.739  0.00  0.00    +0.000 C 
ENDROOT
BRANCH   6   9
ATOM      9  O   UNL     1       8.408   5.386  20.055  0.00  0.00    +0.000 OA
ATOM     10  H   UNL     1       9.147   5.080  19.491  0.00  0.00    +0.000 HD
ENDBRANCH   6   9
BRANCH   7  11
ATOM     11  O   UNL     1       8.091   4.067  17.661  0.00  0.00    +0.000 OA
ATOM     12  H   UNL     1       8.571   3.846  18.483  0.00  0.00    +0.000 HD
ENDBRANCH   7  11
BRANCH   2  13
ATOM     13  C   UNL     1       3.394   3.804  16.753  0.00  0.00    +0.000 C 
BRANCH  13  14
ATOM     14  C   UNL     1       3.621   2.611  17.682  0.00  0.00    +0.000 C 
BRANCH  14  15
ATOM     15  C   UNL     1       2.825   2.707  18.959  0.00  0.00    +0.000 A 
ATOM     16  C   UNL     1       3.453   2.576  20.204  0.00  0.00    +0.000 A 
ATOM     17  C   UNL     1       2.717   2.694  21.385  0.00  0.00    +0.000 A 
ATOM     18  C   UNL     1       1.345   2.939  21.332  0.00  0.00    +0.000 A 
ATOM     19  C   UNL     1       0.709   3.060  20.099  0.00  0.00    +0.000 A 
ATOM     20  C   UNL     1       1.443   2.941  18.918  0.00  0.00    +0.000 A 
ENDBRANCH  14  15
ENDBRANCH  13  14
ENDBRANCH   2  13
TORSDOF 5
ENDMDL
MODEL 2
REMARK VINA RESULT:      -7.2      2.457      5.366
REMARK  Name = 
REMARK  5 active torsions:
REMARK  status: ('A' for Active; 'I' for Inactive)
REMARK    1  A    between atoms: C_2  and  C_3
REMARK    2  A    between atoms: C_3  and  C_4
REMARK    3  A    between atoms: C_4  and  C_5
REMARK    4  A    between atoms: C_14  and  O_15
REMARK    5  A    between atoms: C_16  and  O_17
REMARK                            x       y       z     vdW  Elec       q    Type
REMARK                         _______ _______ _______ _____ _____    ______ ____
ROOT
ATOM      1  O   UNL     1       3.287   6.165  20.118  0.00  0.00    +0.000 OA
ATOM      2  C   UNL     1       2.898   5.651  19.068  0.00  0.00    +0.000 C 
ATOM      3  N   UNL     1       2.666   4.285  18.978  0.00  0.00    +0.000 N 
ATOM      4  C   UNL     1       2.237   3.571  17.771  0.00  0.00    +0.000 C 
ATOM      5  C   UNL     1       3.197   2.431  17.452  0.00  0.00    +0.000 C 
ATOM      6  C   UNL     1       3.379   1.514  18.663  0.00  0.00    +0.000 C 
ATOM      7  C   UNL     1       3.804   2.306  19.911  0.00  0.00    +0.000 C 
ATOM      8  C   UNL     1       2.816   3.447  20.177  0.00  0.00    +0.000 C 
ENDROOT
BRANCH   6   9
ATOM      9  O   UNL     1       4.372   0.535  18.353  0.00  0.00    +0.000 OA
ATOM     10  H   UNL     1       5.195   0.856  18.774  0.00  0.00    +0.000 HD
ENDBRANCH   6   9
BRANCH   7  11
ATOM     11  O   UNL     1       5.132   2.816  19.690  0.00  0.00    +0.000 OA
ATOM     12  H   UNL     1       5.347   3.395  20.447  0.00  0.00    +0.000 HD
ENDBRANCH   7  11
BRANCH   2  13
ATOM     13  C   UNL     1       2.687   6.486  17.816  0.00  0.00    +0.000 C 
BRANCH  13  14
ATOM     14  C   UNL     1       3.976   7.195  17.401  0.00  0.00    +0.000 C 
BRANCH  14  15
ATOM     15  C   UNL     1       5.103   6.234  17.115  0.00  0.00    +0.000 A 
ATOM     16  C   UNL     1       5.027   5.345  16.035  0.00  0.00    +0.000 A 
ATOM     17  C   UNL     1       6.085   4.477  15.757  0.00  0.00    +0.000 A 
ATOM     18  C   UNL     1       7.226   4.485  16.558  0.00  0.00    +0.000 A 
ATOM     19  C   UNL     1       7.307   5.358  17.641  0.00  0.00    +0.000 A 
ATOM     20  C   UNL     1       6.251   6.225  17.921  0.00  0.00    +0.000 A 
ENDBRANCH  14  15
ENDBRANCH  13  14
ENDBRANCH   2  13
TORSDOF 5
ENDMDL
MODEL 3
REMARK VINA RESULT:      -7.2      0.300      1.149
REMARK  Name = 
REMARK  5 active torsions:
REMARK  status: ('A' for Active; 'I' for Inactive)
REMARK    1  A    between atoms: C_2  and  C_3
REMARK    2  A    between atoms: C_3  and  C_4
REMARK    3  A    between atoms: C_4  and  C_5
REMARK    4  A    between atoms: C_14  and  O_15
REMARK    5  A    between atoms: C_16  and  O_17
REMARK                            x       y       z     vdW  Elec       q    Type
REMARK                         _______ _______ _______ _____ _____    ______ ____
ROOT
ATOM      1  O   UNL     1       5.200   3.961  15.227  0.00  0.00    +0.000 OA
ATOM      2  C   UNL     1       4.675   4.276  16.296  0.00  0.00    +0.000 C 
ATOM      3  N   UNL     1       5.312   5.126  17.189  0.00  0.00    +0.000 N 
ATOM      4  C   UNL     1       4.790   5.535  18.498  0.00  0.00    +0.000 C 
ATOM      5  C   UNL     1       5.799   5.224  19.598  0.00  0.00    +0.000 C 
ATOM      6  C   UNL     1       7.164   5.835  19.276  0.00  0.00    +0.000 C 
ATOM      7  C   UNL     1       7.661   5.401  17.886  0.00  0.00    +0.000 C 
ATOM      8  C   UNL     1       6.606   5.720  16.822  0.00  0.00    +0.000 C 
ENDROOT
BRANCH   6   9
ATOM      9  O   UNL     1       8.099   5.420  20.272  0.00  0.00    +0.000 OA
ATOM     10  H   UNL     1       8.864   5.059  19.779  0.00  0.00    +0.000 HD
ENDBRANCH   6   9
BRANCH   7  11
ATOM     11  O   UNL     1       7.940   3.990  17.928  0.00  0.00    +0.000 OA
ATOM     12  H   UNL     1       7.270   3.548  17.371  0.00  0.00    +0.000 HD
ENDBRANCH   7  11
BRANCH   2  13
ATOM     13  C   UNL     1       3.317   3.720  16.697  0.00  0.00    +0.000 C 
BRANCH  13  14
ATOM     14  C   UNL     1       3.464   2.569  17.692  0.00  0.00    +0.000 C 
BRANCH  14  15
ATOM     15  C   UNL     1       2.759   2.836  18.999  0.00  0.00    +0.000 A 
ATOM     16  C   UNL     1       1.524   3.497  19.022  0.00  0.00    +0.000 A 
ATOM     17  C   UNL     1       0.861   3.716  20.231  0.00  0.00    +0.000 A 
ATOM     18  C   UNL     1       1.427   3.281  21.428  0.00  0.00    +0.000 A 
ATOM     19  C   UNL     1       2.660   2.632  21.417  0.00  0.00    +0.000 A 
ATOM     20  C   UNL     1       3.324   2.413  20.210  0.00  0.00    +0.000 A 
ENDBRANCH  14  15
ENDBRANCH  13  14
ENDBRANCH   2  13
TORSDOF 5
ENDMDL
MODEL 4
REMARK VINA RESULT:      -7.0      1.877      3.172
REMARK  Name = 
REMARK  5 active torsions:
REMARK  status: ('A' for Active; 'I' for Inactive)
REMARK    1  A    between atoms: C_2  and  C_3
REMARK    2  A    between atoms: C_3  and  C_4
REMARK    3  A    between atoms: C_4  and  C_5
REMARK    4  A    between atoms: C_14  and  O_15
REMARK    5  A    between atoms: C_16  and  O_17
REMARK                            x       y       z     vdW  Elec       q    Type
REMARK                         _______ _______ _______ _____ _____    ______ ____
ROOT
ATOM      1  O   UNL     1       5.113   5.920  19.439  0.00  0.00    +0.000 OA
ATOM      2  C   UNL     1       4.549   5.694  18.367  0.00  0.00    +0.000 C 
ATOM      3  N   UNL     1       5.194   5.014  17.343  0.00  0.00    +0.000 N 
ATOM      4  C   UNL     1       4.627   4.726  16.022  0.00  0.00    +0.000 C 
ATOM      5  C   UNL     1       5.540   5.250  14.920  0.00  0.00    +0.000 C 
ATOM      6  C   UNL     1       6.965   4.721  15.093  0.00  0.00    +0.000 C 
ATOM      7  C   UNL     1       7.511   5.022  16.498  0.00  0.00    +0.000 C 
ATOM      8  C   UNL     1       6.550   4.490  17.567  0.00  0.00    +0.000 C 
ENDROOT
BRANCH   6   9
ATOM      9  O   UNL     1       7.804   5.329  14.110  0.00  0.00    +0.000 OA
ATOM     10  H   UNL     1       7.292   6.087  13.762  0.00  0.00    +0.000 HD
ENDBRANCH   6   9
BRANCH   7  11
ATOM     11  O   UNL     1       7.679   6.447  16.621  0.00  0.00    +0.000 OA
ATOM     12  H   UNL     1       6.785   6.837  16.679  0.00  0.00    +0.000 HD
ENDBRANCH   7  11
BRANCH   2  13
ATOM     13  C   UNL     1       3.132   6.179  18.108  0.00  0.00    +0.000 C 
BRANCH  13  14
ATOM     14  C   UNL     1       2.333   6.270  19.409  0.00  0.00    +0.000 C 
BRANCH  14  15
ATOM     15  C   UNL     1       1.970   4.915  19.965  0.00  0.00    +0.000 A 
ATOM     16  C   UNL     1       1.269   3.988  19.183  0.00  0.00    +0.000 A 
ATOM     17  C   UNL     1       0.959   2.724  19.691  0.00  0.00    +0.000 A 
ATOM     18  C   UNL     1       1.343   2.378  20.986  0.00  0.00    +0.000 A 
ATOM     19  C   UNL     1       2.031   3.297  21.775  0.00  0.00    +0.000 A 
ATOM     20  C   UNL     1       2.340   4.560  21.270  0.00  0.00    +0.000 A 
ENDBRANCH  14  15
ENDBRANCH  13  14
ENDBRANCH   2  13
TORSDOF 5
ENDMDL
MODEL 5
REMARK VINA RESULT:      -7.0      2.939      6.402
REMARK  Name = 
REMARK  5 active torsions:
REMARK  status: ('A' for Active; 'I' for Inactive)
REMARK    1  A    between atoms: C_2  and  C_3
REMARK    2  A    between atoms: C_3  and  C_4
REMARK    3  A    between atoms: C_4  and  C_5
REMARK    4  A    between atoms: C_14  and  O_15
REMARK    5  A    between atoms: C_16  and  O_17
REMARK                            x       y       z     vdW  Elec       q    Type
REMARK                         _______ _______ _______ _____ _____    ______ ____
ROOT
ATOM      1  O   UNL     1       6.017   3.985  18.478  0.00  0.00    +0.000 OA
ATOM      2  C   UNL     1       5.068   4.595  17.985  0.00  0.00    +0.000 C 
ATOM      3  N   UNL     1       3.784   4.468  18.497  0.00  0.00    +0.000 N 
ATOM      4  C   UNL     1       2.584   5.121  17.964  0.00  0.00    +0.000 C 
ATOM      5  C   UNL     1       1.504   4.090  17.658  0.00  0.00    +0.000 C 
ATOM      6  C   UNL     1       1.221   3.215  18.881  0.00  0.00    +0.000 C 
ATOM      7  C   UNL     1       2.508   2.571  19.422  0.00  0.00    +0.000 C 
ATOM      8  C   UNL     1       3.565   3.646  19.697  0.00  0.00    +0.000 C 
ENDROOT
BRANCH   6   9
ATOM      9  O   UNL     1       0.291   2.196  18.511  0.00  0.00    +0.000 OA
ATOM     10  H   UNL     1      -0.384   2.644  17.962  0.00  0.00    +0.000 HD
ENDBRANCH   6   9
BRANCH   7  11
ATOM     11  O   UNL     1       2.981   1.622  18.448  0.00  0.00    +0.000 OA
ATOM     12  H   UNL     1       3.231   2.129  17.651  0.00  0.00    +0.000 HD
ENDBRANCH   7  11
BRANCH   2  13
ATOM     13  C   UNL     1       5.256   5.491  16.771  0.00  0.00    +0.000 C 
BRANCH  13  14
ATOM     14  C   UNL     1       6.670   5.361  16.203  0.00  0.00    +0.000 C 
BRANCH  14  15
ATOM     15  C   UNL     1       6.681   4.894  14.769  0.00  0.00    +0.000 A 
ATOM     16  C   UNL     1       7.641   5.374  13.868  0.00  0.00    +0.000 A 
ATOM     17  C   UNL     1       7.665   4.918  12.549  0.00  0.00    +0.000 A 
ATOM     18  C   UNL     1       6.728   3.981  12.116  0.00  0.00    +0.000 A 
ATOM     19  C   UNL     1       5.763   3.505  13.000  0.00  0.00    +0.000 A 
ATOM     20  C   UNL     1       5.736   3.961  14.318  0.00  0.00    +0.000 A 
ENDBRANCH  14  15
ENDBRANCH  13  14
ENDBRANCH   2  13
TORSDOF 5
ENDMDL
MODEL 6
REMARK VINA RESULT:      -7.0      2.840      6.299
REMARK  Name = 
REMARK  5 active torsions:
REMARK  status: ('A' for Active; 'I' for Inactive)
REMARK    1  A    between atoms: C_2  and  C_3
REMARK    2  A    between atoms: C_3  and  C_4
REMARK    3  A    between atoms: C_4  and  C_5
REMARK    4  A    between atoms: C_14  and  O_15
REMARK    5  A    between atoms: C_16  and  O_17
REMARK                            x       y       z     vdW  Elec       q    Type
REMARK                         _______ _______ _______ _____ _____    ______ ____
ROOT
ATOM      1  O   UNL     1       6.534   4.597  18.750  0.00  0.00    +0.000 OA
ATOM      2  C   UNL     1       5.546   4.905  18.083  0.00  0.00    +0.000 C 
ATOM      3  N   UNL     1       4.266   4.545  18.481  0.00  0.00    +0.000 N 
ATOM      4  C   UNL     1       3.031   4.831  17.744  0.00  0.00    +0.000 C 
ATOM      5  C   UNL     1       2.249   3.548  17.488  0.00  0.00    +0.000 C 
ATOM      6  C   UNL     1       2.010   2.786  18.792  0.00  0.00    +0.000 C 
ATOM      7  C   UNL     1       3.326   2.529  19.545  0.00  0.00    +0.000 C 
ATOM      8  C   UNL     1       4.080   3.845  19.761  0.00  0.00    +0.000 C 
ENDROOT
BRANCH   6   9
ATOM      9  O   UNL     1       1.379   1.540  18.487  0.00  0.00    +0.000 OA
ATOM     10  H   UNL     1       1.343   1.051  19.334  0.00  0.00    +0.000 HD
ENDBRANCH   6   9
BRANCH   7  11
ATOM     11  O   UNL     1       4.115   1.606  18.771  0.00  0.00    +0.000 OA
ATOM     12  H   UNL     1       4.563   1.011  19.403  0.00  0.00    +0.000 HD
ENDBRANCH   7  11
BRANCH   2  13
ATOM     13  C   UNL     1       5.689   5.667  16.775  0.00  0.00    +0.000 C 
BRANCH  13  14
ATOM     14  C   UNL     1       7.030   5.366  16.104  0.00  0.00    +0.000 C 
BRANCH  14  15
ATOM     15  C   UNL     1       6.873   4.836  14.701  0.00  0.00    +0.000 A 
ATOM     16  C   UNL     1       5.856   3.923  14.392  0.00  0.00    +0.000 A 
ATOM     17  C   UNL     1       5.696   3.456  13.086  0.00  0.00    +0.000 A 
ATOM     18  C   UNL     1       6.554   3.893  12.077  0.00  0.00    +0.000 A 
ATOM     19  C   UNL     1       7.575   4.792  12.376  0.00  0.00    +0.000 A 
ATOM     20  C   UNL     1       7.737   5.259  13.681  0.00  0.00    +0.000 A 
ENDBRANCH  14  15
ENDBRANCH  13  14
ENDBRANCH   2  13
TORSDOF 5
ENDMDL
MODEL 7
REMARK VINA RESULT:      -6.9      1.825      3.034
REMARK  Name = 
REMARK  5 active torsions:
REMARK  status: ('A' for Active; 'I' for Inactive)
REMARK    1  A    between atoms: C_2  and  C_3
REMARK    2  A    between atoms: C_3  and  C_4
REMARK    3  A    between atoms: C_4  and  C_5
REMARK    4  A    between atoms: C_14  and  O_15
REMARK    5  A    between atoms: C_16  and  O_17
REMARK                            x       y       z     vdW  Elec       q    Type
REMARK                         _______ _______ _______ _____ _____    ______ ____
ROOT
ATOM      1  O   UNL     1       5.348   5.875  19.583  0.00  0.00    +0.000 OA
ATOM      2  C   UNL     1       4.721   5.726  18.533  0.00  0.00    +0.000 C 
ATOM      3  N   UNL     1       5.277   5.059  17.450  0.00  0.00    +0.000 N 
ATOM      4  C   UNL     1       4.631   4.858  16.148  0.00  0.00    +0.000 C 
ATOM      5  C   UNL     1       5.517   5.382  15.024  0.00  0.00    +0.000 C 
ATOM      6  C   UNL     1       6.917   4.772  15.102  0.00  0.00    +0.000 C 
ATOM      7  C   UNL     1       7.547   4.983  16.489  0.00  0.00    +0.000 C 
ATOM      8  C   UNL     1       6.612   4.456  17.583  0.00  0.00    +0.000 C 
ENDROOT
BRANCH   6   9
ATOM      9  O   UNL     1       7.739   5.379  14.103  0.00  0.00    +0.000 OA
ATOM     10  H   UNL     1       8.198   6.117  14.555  0.00  0.00    +0.000 HD
ENDBRANCH   6   9
BRANCH   7  11
ATOM     11  O   UNL     1       7.797   6.391  16.661  0.00  0.00    +0.000 OA
ATOM     12  H   UNL     1       8.373   6.486  17.444  0.00  0.00    +0.000 HD
ENDBRANCH   7  11
BRANCH   2  13
ATOM     13  C   UNL     1       3.320   6.295  18.367  0.00  0.00    +0.000 C 
BRANCH  13  14
ATOM     14  C   UNL     1       2.495   6.110  19.641  0.00  0.00    +0.000 C 
BRANCH  14  15
ATOM     15  C   UNL     1       1.952   4.710  19.785  0.00  0.00    +0.000 A 
ATOM     16  C   UNL     1       1.868   4.103  21.044  0.00  0.00    +0.000 A 
ATOM     17  C   UNL     1       1.337   2.818  21.177  0.00  0.00    +0.000 A 
ATOM     18  C   UNL     1       0.891   2.126  20.051  0.00  0.00    +0.000 A 
ATOM     19  C   UNL     1       0.981   2.717  18.793  0.00  0.00    +0.000 A 
ATOM     20  C   UNL     1       1.511   4.000  18.659  0.00  0.00    +0.000 A 
ENDBRANCH  14  15
ENDBRANCH  13  14
ENDBRANCH   2  13
TORSDOF 5
ENDMDL
MODEL 8
REMARK VINA RESULT:      -6.9      3.352      6.513
REMARK  Name = 
REMARK  5 active torsions:
REMARK  status: ('A' for Active; 'I' for Inactive)
REMARK    1  A    between atoms: C_2  and  C_3
REMARK    2  A    between atoms: C_3  and  C_4
REMARK    3  A    between atoms: C_4  and  C_5
REMARK    4  A    between atoms: C_14  and  O_15
REMARK    5  A    between atoms: C_16  and  O_17
REMARK                            x       y       z     vdW  Elec       q    Type
REMARK                         _______ _______ _______ _____ _____    ______ ____
ROOT
ATOM      1  O   UNL     1       5.939   4.169  18.671  0.00  0.00    +0.000 OA
ATOM      2  C   UNL     1       4.943   4.324  17.962  0.00  0.00    +0.000 C 
ATOM      3  N   UNL     1       3.704   4.619  18.514  0.00  0.00    +0.000 N 
ATOM      4  C   UNL     1       2.455   4.788  17.765  0.00  0.00    +0.000 C 
ATOM      5  C   UNL     1       1.375   3.858  18.306  0.00  0.00    +0.000 C 
ATOM      6  C   UNL     1       1.203   4.040  19.815  0.00  0.00    +0.000 C 
ATOM      7  C   UNL     1       2.539   3.880  20.559  0.00  0.00    +0.000 C 
ATOM      8  C   UNL     1       3.592   4.823  19.967  0.00  0.00    +0.000 C 
ENDROOT
BRANCH   6   9
ATOM      9  O   UNL     1       0.268   3.070  20.291  0.00  0.00    +0.000 OA
ATOM     10  H   UNL     1       0.467   2.961  21.244  0.00  0.00    +0.000 HD
ENDBRANCH   6   9
BRANCH   7  11
ATOM     11  O   UNL     1       2.957   2.507  20.445  0.00  0.00    +0.000 OA
ATOM     12  H   UNL     1       3.926   2.491  20.567  0.00  0.00    +0.000 HD
ENDBRANCH   7  11
BRANCH   2  13
ATOM     13  C   UNL     1       5.022   4.166  16.452  0.00  0.00    +0.000 C 
BRANCH  13  14
ATOM     14  C   UNL     1       6.230   4.911  15.882  0.00  0.00    +0.000 C 
BRANCH  14  15
ATOM     15  C   UNL     1       6.488   4.579  14.433  0.00  0.00    +0.000 A 
ATOM     16  C   UNL     1       5.710   3.620  13.771  0.00  0.00    +0.000 A 
ATOM     17  C   UNL     1       5.933   3.337  12.422  0.00  0.00    +0.000 A 
ATOM     18  C   UNL     1       6.938   4.005  11.724  0.00  0.00    +0.000 A 
ATOM     19  C   UNL     1       7.724   4.953  12.376  0.00  0.00    +0.000 A 
ATOM     20  C   UNL     1       7.503   5.236  13.724  0.00  0.00    +0.000 A 
ENDBRANCH  14  15
ENDBRANCH  13  14
ENDBRANCH   2  13
TORSDOF 5
ENDMDL
MODEL 9
REMARK VINA RESULT:      -6.9      2.750      5.691
REMARK  Name = 
REMARK  5 active torsions:
REMARK  status: ('A' for Active; 'I' for Inactive)
REMARK    1  A    between atoms: C_2  and  C_3
REMARK    2  A    between atoms: C_3  and  C_4
REMARK    3  A    between atoms: C_4  and  C_5
REMARK    4  A    between atoms: C_14  and  O_15
REMARK    5  A    between atoms: C_16  and  O_17
REMARK                            x       y       z     vdW  Elec       q    Type
REMARK                         _______ _______ _______ _____ _____    ______ ____
ROOT
ATOM      1  O   UNL     1       2.022   3.444  16.493  0.00  0.00    +0.000 OA
ATOM      2  C   UNL     1       3.012   3.324  17.216  0.00  0.00    +0.000 C 
ATOM      3  N   UNL     1       2.933   2.684  18.445  0.00  0.00    +0.000 N 
ATOM      4  C   UNL     1       4.040   2.519  19.393  0.00  0.00    +0.000 C 
ATOM      5  C   UNL     1       3.660   3.069  20.763  0.00  0.00    +0.000 C 
ATOM      6  C   UNL     1       2.349   2.454  21.254  0.00  0.00    +0.000 C 
ATOM      7  C   UNL     1       1.223   2.626  20.221  0.00  0.00    +0.000 C 
ATOM      8  C   UNL     1       1.661   2.073  18.861  0.00  0.00    +0.000 C 
ENDROOT
BRANCH   6   9
ATOM      9  O   UNL     1       1.976   3.084  22.481  0.00  0.00    +0.000 OA
ATOM     10  H   UNL     1       0.997   3.106  22.477  0.00  0.00    +0.000 HD
ENDBRANCH   6   9
BRANCH   7  11
ATOM     11  O   UNL     1       0.907   4.028  20.129  0.00  0.00    +0.000 OA
ATOM     12  H   UNL     1      -0.012   4.094  19.803  0.00  0.00    +0.000 HD
ENDBRANCH   7  11
BRANCH   2  13
ATOM     13  C   UNL     1       4.357   3.901  16.806  0.00  0.00    +0.000 C 
BRANCH  13  14
ATOM     14  C   UNL     1       4.401   5.413  17.032  0.00  0.00    +0.000 C 
BRANCH  14  15
ATOM     15  C   UNL     1       5.711   5.876  17.621  0.00  0.00    +0.000 A 
ATOM     16  C   UNL     1       6.432   6.919  17.026  0.00  0.00    +0.000 A 
ATOM     17  C   UNL     1       7.629   7.364  17.590  0.00  0.00    +0.000 A 
ATOM     18  C   UNL     1       8.120   6.767  18.751  0.00  0.00    +0.000 A 
ATOM     19  C   UNL     1       7.416   5.722  19.345  0.00  0.00    +0.000 A 
ATOM     20  C   UNL     1       6.220   5.275  18.781  0.00  0.00    +0.000 A 
ENDBRANCH  14  15
ENDBRANCH  13  14
ENDBRANCH   2  13
TORSDOF 5
ENDMDL
