MODEL 1
REMARK VINA RESULT:      -7.4      0.000      0.000
REMARK  Name = 
REMARK  13 active torsions:
REMARK  status: ('A' for Active; 'I' for Inactive)
REMARK    1  A    between atoms: C_1  and  C_2
REMARK    2  A    between atoms: C_2  and  O_3
REMARK    3  A    between atoms: O_3  and  C_4
REMARK    4  A    between atoms: N_10  and  C_11
REMARK    5  A    between atoms: C_11  and  C_12
REMARK    6  A    between atoms: C_12  and  C_13
REMARK    7  A    between atoms: C_16  and  O_17
REMARK    8  A    between atoms: O_17  and  C_18
REMARK    9  A    between atoms: C_19  and  O_20
REMARK   10  A    between atoms: O_20  and  C_21
REMARK   11  A    between atoms: C_27  and  O_28
REMARK   12  A    between atoms: O_28  and  C_29
REMARK   13  A    between atoms: C_29  and  C_30
REMARK                            x       y       z     vdW  Elec       q    Type
REMARK                         _______ _______ _______ _____ _____    ______ ____
ROOT
ATOM      1  C   UNL     1       4.229   4.660  19.062  0.00  0.00    +0.000 A 
ATOM      2  C   UNL     1       3.350   5.231  19.991  0.00  0.00    +0.000 A 
ATOM      3  C   UNL     1       2.721   6.435  19.726  0.00  0.00    +0.000 A 
ATOM      4  N   UNL     1       1.860   6.967  20.669  0.00  0.00    +0.000 N 
ATOM      5  C   UNL     1       1.222   8.158  20.525  0.00  0.00    +0.000 A 
ATOM      6  O   UNL     1       0.412   8.473  21.393  0.00  0.00    +0.000 OA
ATOM      7  N   UNL     1       1.541   8.909  19.406  0.00  0.00    +0.000 N 
ATOM      8  C   UNL     1       2.251   8.382  18.319  0.00  0.00    +0.000 A 
ATOM      9  O   UNL     1       2.329   8.915  17.215  0.00  0.00    +0.000 OA
ATOM     10  C   UNL     1       2.936   7.091  18.531  0.00  0.00    +0.000 A 
ATOM     11  C   UNL     1       3.783   6.530  17.569  0.00  0.00    +0.000 A 
ATOM     12  C   UNL     1       4.445   5.316  17.828  0.00  0.00    +0.000 A 
ATOM     13  H   UNL     1       1.645   6.468  21.523  0.00  0.00    +0.000 HD
ENDROOT
BRANCH   1  14
ATOM     14  O   UNL     1       4.896   3.476  19.312  0.00  0.00    +0.000 OA
BRANCH  14  16
ATOM     15  C   UNL     1       3.509   1.789  18.231  0.00  0.00    +0.000 C 
ATOM     16  C   UNL     1       4.056   2.336  19.533  0.00  0.00    +0.000 C 
ENDBRANCH  14  16
ENDBRANCH   1  14
BRANCH   7  17
ATOM     17  C   UNL     1       0.884  10.198  19.197  0.00  0.00    +0.000 C 
BRANCH  17  18
ATOM     18  C   UNL     1      -0.369  10.172  18.309  0.00  0.00    +0.000 C 
BRANCH  18  19
ATOM     19  C   UNL     1      -1.488  10.973  18.926  0.00  0.00    +0.000 A 
ATOM     20  C   UNL     1      -2.718  11.066  18.269  0.00  0.00    +0.000 A 
ATOM     21  C   UNL     1      -3.757  11.823  18.817  0.00  0.00    +0.000 A 
ATOM     22  C   UNL     1      -3.565  12.516  20.017  0.00  0.00    +0.000 A 
ATOM     23  C   UNL     1      -2.324  12.433  20.677  0.00  0.00    +0.000 A 
ATOM     24  C   UNL     1      -1.297  11.652  20.134  0.00  0.00    +0.000 A 
BRANCH  22  25
ATOM     25  O   UNL     1      -4.520  13.307  20.607  0.00  0.00    +0.000 OA
ATOM     26  C   UNL     1      -5.662  12.652  21.142  0.00  0.00    +0.000 C 
ENDBRANCH  22  25
BRANCH  23  27
ATOM     27  O   UNL     1      -2.205  13.111  21.865  0.00  0.00    +0.000 OA
ATOM     28  C   UNL     1      -2.177  12.307  23.039  0.00  0.00    +0.000 C 
ENDBRANCH  23  27
ENDBRANCH  18  19
ENDBRANCH  17  18
ENDBRANCH   7  17
BRANCH  12  29
ATOM     29  O   UNL     1       5.314   4.722  16.941  0.00  0.00    +0.000 OA
BRANCH  29  30
ATOM     30  C   UNL     1       6.569   5.376  16.725  0.00  0.00    +0.000 C 
ATOM     31  C   UNL     1       7.688   4.513  17.282  0.00  0.00    +0.000 C 
ENDBRANCH  29  30
ENDBRANCH  12  29
TORSDOF 9
ENDMDL
MODEL 2
REMARK VINA RESULT:      -7.4      0.716      1.694
REMARK  Name = 
REMARK  13 active torsions:
REMARK  status: ('A' for Active; 'I' for Inactive)
REMARK    1  A    between atoms: C_1  and  C_2
REMARK    2  A    between atoms: C_2  and  O_3
REMARK    3  A    between atoms: O_3  and  C_4
REMARK    4  A    between atoms: N_10  and  C_11
REMARK    5  A    between atoms: C_11  and  C_12
REMARK    6  A    between atoms: C_12  and  C_13
REMARK    7  A    between atoms: C_16  and  O_17
REMARK    8  A    between atoms: O_17  and  C_18
REMARK    9  A    between atoms: C_19  and  O_20
REMARK   10  A    between atoms: O_20  and  C_21
REMARK   11  A    between atoms: C_27  and  O_28
REMARK   12  A    between atoms: O_28  and  C_29
REMARK   13  A    between atoms: C_29  and  C_30
REMARK                            x       y       z     vdW  Elec       q    Type
REMARK                         _______ _______ _______ _____ _____    ______ ____
ROOT
ATOM      1  C   UNL     1       4.103   4.589  19.108  0.00  0.00    +0.000 A 
ATOM      2  C   UNL     1       3.237   5.194  20.027  0.00  0.00    +0.000 A 
ATOM      3  C   UNL     1       2.646   6.414  19.749  0.00  0.00    +0.000 A 
ATOM      4  N   UNL     1       1.796   6.980  20.682  0.00  0.00    +0.000 N 
ATOM      5  C   UNL     1       1.194   8.188  20.524  0.00  0.00    +0.000 A 
ATOM      6  O   UNL     1       0.390   8.534  21.385  0.00  0.00    +0.000 OA
ATOM      7  N   UNL     1       1.541   8.919  19.401  0.00  0.00    +0.000 N 
ATOM      8  C   UNL     1       2.241   8.361  18.322  0.00  0.00    +0.000 A 
ATOM      9  O   UNL     1       2.340   8.882  17.213  0.00  0.00    +0.000 OA
ATOM     10  C   UNL     1       2.886   7.052  18.549  0.00  0.00    +0.000 A 
ATOM     11  C   UNL     1       3.720   6.458  17.596  0.00  0.00    +0.000 A 
ATOM     12  C   UNL     1       4.345   5.228  17.869  0.00  0.00    +0.000 A 
ATOM     13  H   UNL     1       1.562   6.495  21.539  0.00  0.00    +0.000 HD
ENDROOT
BRANCH   1  14
ATOM     14  O   UNL     1       4.734   3.388  19.372  0.00  0.00    +0.000 OA
BRANCH  14  16
ATOM     15  C   UNL     1       3.423   1.607  18.349  0.00  0.00    +0.000 C 
ATOM     16  C   UNL     1       3.859   2.283  19.632  0.00  0.00    +0.000 C 
ENDBRANCH  14  16
ENDBRANCH   1  14
BRANCH   7  17
ATOM     17  C   UNL     1       0.923  10.225  19.177  0.00  0.00    +0.000 C 
BRANCH  17  18
ATOM     18  C   UNL     1      -0.389  10.214  18.380  0.00  0.00    +0.000 C 
BRANCH  18  19
ATOM     19  C   UNL     1      -1.431  11.085  19.036  0.00  0.00    +0.000 A 
ATOM     20  C   UNL     1      -1.157  11.684  20.268  0.00  0.00    +0.000 A 
ATOM     21  C   UNL     1      -2.121  12.475  20.900  0.00  0.00    +0.000 A 
ATOM     22  C   UNL     1      -3.379  12.653  20.314  0.00  0.00    +0.000 A 
ATOM     23  C   UNL     1      -3.662  12.043  19.076  0.00  0.00    +0.000 A 
ATOM     24  C   UNL     1      -2.682  11.273  18.439  0.00  0.00    +0.000 A 
BRANCH  22  25
ATOM     25  O   UNL     1      -4.393  13.386  20.880  0.00  0.00    +0.000 OA
ATOM     26  C   UNL     1      -4.405  13.486  22.297  0.00  0.00    +0.000 C 
ENDBRANCH  22  25
BRANCH  23  27
ATOM     27  O   UNL     1      -4.903  12.278  18.536  0.00  0.00    +0.000 OA
ATOM     28  C   UNL     1      -5.540  11.158  17.933  0.00  0.00    +0.000 C 
ENDBRANCH  23  27
ENDBRANCH  18  19
ENDBRANCH  17  18
ENDBRANCH   7  17
BRANCH  12  29
ATOM     29  O   UNL     1       5.200   4.600  16.992  0.00  0.00    +0.000 OA
BRANCH  29  30
ATOM     30  C   UNL     1       6.407   5.292  16.654  0.00  0.00    +0.000 C 
ATOM     31  C   UNL     1       7.479   4.965  17.679  0.00  0.00    +0.000 C 
ENDBRANCH  29  30
ENDBRANCH  12  29
TORSDOF 9
ENDMDL
MODEL 3
REMARK VINA RESULT:      -7.4      1.670      2.583
REMARK  Name = 
REMARK  13 active torsions:
REMARK  status: ('A' for Active; 'I' for Inactive)
REMARK    1  A    between atoms: C_1  and  C_2
REMARK    2  A    between atoms: C_2  and  O_3
REMARK    3  A    between atoms: O_3  and  C_4
REMARK    4  A    between atoms: N_10  and  C_11
REMARK    5  A    between atoms: C_11  and  C_12
REMARK    6  A    between atoms: C_12  and  C_13
REMARK    7  A    between atoms: C_16  and  O_17
REMARK    8  A    between atoms: O_17  and  C_18
REMARK    9  A    between atoms: C_19  and  O_20
REMARK   10  A    between atoms: O_20  and  C_21
REMARK   11  A    between atoms: C_27  and  O_28
REMARK   12  A    between atoms: O_28  and  C_29
REMARK   13  A    between atoms: C_29  and  C_30
REMARK                            x       y       z     vdW  Elec       q    Type
REMARK                         _______ _______ _______ _____ _____    ______ ____
ROOT
ATOM      1  C   UNL     1       4.006   4.713  18.857  0.00  0.00    +0.000 A 
ATOM      2  C   UNL     1       3.186   5.258  19.853  0.00  0.00    +0.000 A 
ATOM      3  C   UNL     1       2.598   6.500  19.688  0.00  0.00    +0.000 A 
ATOM      4  N   UNL     1       1.794   7.004  20.695  0.00  0.00    +0.000 N 
ATOM      5  C   UNL     1       1.201   8.225  20.649  0.00  0.00    +0.000 A 
ATOM      6  O   UNL     1       0.436   8.515  21.566  0.00  0.00    +0.000 OA
ATOM      7  N   UNL     1       1.509   9.032  19.568  0.00  0.00    +0.000 N 
ATOM      8  C   UNL     1       2.156   8.548  18.423  0.00  0.00    +0.000 A 
ATOM      9  O   UNL     1       2.215   9.146  17.352  0.00  0.00    +0.000 OA
ATOM     10  C   UNL     1       2.795   7.221  18.528  0.00  0.00    +0.000 A 
ATOM     11  C   UNL     1       3.582   6.690  17.500  0.00  0.00    +0.000 A 
ATOM     12  C   UNL     1       4.204   5.437  17.658  0.00  0.00    +0.000 A 
ATOM     13  H   UNL     1       1.591   6.460  21.524  0.00  0.00    +0.000 HD
ENDROOT
BRANCH   1  14
ATOM     14  O   UNL     1       4.633   3.491  19.007  0.00  0.00    +0.000 OA
BRANCH  14  16
ATOM     15  C   UNL     1       3.017   1.806  18.311  0.00  0.00    +0.000 C 
ATOM     16  C   UNL     1       3.790   2.423  19.457  0.00  0.00    +0.000 C 
ENDBRANCH  14  16
ENDBRANCH   1  14
BRANCH   7  17
ATOM     17  C   UNL     1       0.897  10.356  19.464  0.00  0.00    +0.000 C 
BRANCH  17  18
ATOM     18  C   UNL     1      -0.553  10.462  19.959  0.00  0.00    +0.000 C 
BRANCH  18  19
ATOM     19  C   UNL     1      -1.520  10.495  18.802  0.00  0.00    +0.000 A 
ATOM     20  C   UNL     1      -1.162   9.918  17.582  0.00  0.00    +0.000 A 
ATOM     21  C   UNL     1      -2.039   9.961  16.495  0.00  0.00    +0.000 A 
ATOM     22  C   UNL     1      -3.274  10.606  16.613  0.00  0.00    +0.000 A 
ATOM     23  C   UNL     1      -3.635  11.198  17.839  0.00  0.00    +0.000 A 
ATOM     24  C   UNL     1      -2.762  11.128  18.930  0.00  0.00    +0.000 A 
BRANCH  22  25
ATOM     25  O   UNL     1      -4.181  10.722  15.588  0.00  0.00    +0.000 OA
ATOM     26  C   UNL     1      -3.812  10.168  14.332  0.00  0.00    +0.000 C 
ENDBRANCH  22  25
BRANCH  23  27
ATOM     27  O   UNL     1      -4.873  11.791  17.902  0.00  0.00    +0.000 OA
ATOM     28  C   UNL     1      -5.108  12.616  19.038  0.00  0.00    +0.000 C 
ENDBRANCH  23  27
ENDBRANCH  18  19
ENDBRANCH  17  18
ENDBRANCH   7  17
BRANCH  12  29
ATOM     29  O   UNL     1       5.014   4.867  16.703  0.00  0.00    +0.000 OA
BRANCH  29  30
ATOM     30  C   UNL     1       5.386   5.690  15.592  0.00  0.00    +0.000 C 
ATOM     31  C   UNL     1       6.238   4.881  14.630  0.00  0.00    +0.000 C 
ENDBRANCH  29  30
ENDBRANCH  12  29
TORSDOF 9
ENDMDL
MODEL 4
REMARK VINA RESULT:      -7.4      2.529      9.215
REMARK  Name = 
REMARK  13 active torsions:
REMARK  status: ('A' for Active; 'I' for Inactive)
REMARK    1  A    between atoms: C_1  and  C_2
REMARK    2  A    between atoms: C_2  and  O_3
REMARK    3  A    between atoms: O_3  and  C_4
REMARK    4  A    between atoms: N_10  and  C_11
REMARK    5  A    between atoms: C_11  and  C_12
REMARK    6  A    between atoms: C_12  and  C_13
REMARK    7  A    between atoms: C_16  and  O_17
REMARK    8  A    between atoms: O_17  and  C_18
REMARK    9  A    between atoms: C_19  and  O_20
REMARK   10  A    between atoms: O_20  and  C_21
REMARK   11  A    between atoms: C_27  and  O_28
REMARK   12  A    between atoms: O_28  and  C_29
REMARK   13  A    between atoms: C_29  and  C_30
REMARK                            x       y       z     vdW  Elec       q    Type
REMARK                         _______ _______ _______ _____ _____    ______ ____
ROOT
ATOM      1  C   UNL     1       0.671  10.805  20.730  0.00  0.00    +0.000 A 
ATOM      2  C   UNL     1       0.835   9.531  21.289  0.00  0.00    +0.000 A 
ATOM      3  C   UNL     1       1.343   8.486  20.537  0.00  0.00    +0.000 A 
ATOM      4  N   UNL     1       1.490   7.242  21.125  0.00  0.00    +0.000 N 
ATOM      5  C   UNL     1       1.944   6.143  20.468  0.00  0.00    +0.000 A 
ATOM      6  O   UNL     1       2.116   5.122  21.129  0.00  0.00    +0.000 OA
ATOM      7  N   UNL     1       2.175   6.276  19.110  0.00  0.00    +0.000 N 
ATOM      8  C   UNL     1       2.232   7.522  18.471  0.00  0.00    +0.000 A 
ATOM      9  O   UNL     1       2.686   7.706  17.344  0.00  0.00    +0.000 OA
ATOM     10  C   UNL     1       1.715   8.683  19.223  0.00  0.00    +0.000 A 
ATOM     11  C   UNL     1       1.595   9.951  18.645  0.00  0.00    +0.000 A 
ATOM     12  C   UNL     1       1.063  11.021  19.388  0.00  0.00    +0.000 A 
ATOM     13  H   UNL     1       1.279   7.098  22.105  0.00  0.00    +0.000 HD
ENDROOT
BRANCH   1  14
ATOM     14  O   UNL     1       0.136  11.859  21.445  0.00  0.00    +0.000 OA
BRANCH  14  16
ATOM     15  C   UNL     1      -1.769  12.512  22.817  0.00  0.00    +0.000 C 
ATOM     16  C   UNL     1      -0.685  11.487  22.560  0.00  0.00    +0.000 C 
ENDBRANCH  14  16
ENDBRANCH   1  14
BRANCH   7  17
ATOM     17  C   UNL     1       2.667   5.127  18.351  0.00  0.00    +0.000 C 
BRANCH  17  18
ATOM     18  C   UNL     1       4.076   4.638  18.718  0.00  0.00    +0.000 C 
BRANCH  18  19
ATOM     19  C   UNL     1       5.039   4.851  17.577  0.00  0.00    +0.000 A 
ATOM     20  C   UNL     1       5.030   3.975  16.490  0.00  0.00    +0.000 A 
ATOM     21  C   UNL     1       5.932   4.147  15.436  0.00  0.00    +0.000 A 
ATOM     22  C   UNL     1       6.870   5.184  15.475  0.00  0.00    +0.000 A 
ATOM     23  C   UNL     1       6.888   6.064  16.575  0.00  0.00    +0.000 A 
ATOM     24  C   UNL     1       5.965   5.900  17.613  0.00  0.00    +0.000 A 
BRANCH  22  25
ATOM     25  O   UNL     1       7.812   5.405  14.500  0.00  0.00    +0.000 OA
ATOM     26  C   UNL     1       7.517   4.923  13.196  0.00  0.00    +0.000 C 
ENDBRANCH  22  25
BRANCH  23  27
ATOM     27  O   UNL     1       7.812   7.080  16.542  0.00  0.00    +0.000 OA
ATOM     28  C   UNL     1       7.751   8.009  17.619  0.00  0.00    +0.000 C 
ENDBRANCH  23  27
ENDBRANCH  18  19
ENDBRANCH  17  18
ENDBRANCH   7  17
BRANCH  12  29
ATOM     29  O   UNL     1       0.889  12.287  18.876  0.00  0.00    +0.000 OA
BRANCH  29  30
ATOM     30  C   UNL     1       2.034  12.911  18.284  0.00  0.00    +0.000 C 
ATOM     31  C   UNL     1       2.885  13.538  19.374  0.00  0.00    +0.000 C 
ENDBRANCH  29  30
ENDBRANCH  12  29
TORSDOF 9
ENDMDL
MODEL 5
REMARK VINA RESULT:      -7.3      2.630      8.867
REMARK  Name = 
REMARK  13 active torsions:
REMARK  status: ('A' for Active; 'I' for Inactive)
REMARK    1  A    between atoms: C_1  and  C_2
REMARK    2  A    between atoms: C_2  and  O_3
REMARK    3  A    between atoms: O_3  and  C_4
REMARK    4  A    between atoms: N_10  and  C_11
REMARK    5  A    between atoms: C_11  and  C_12
REMARK    6  A    between atoms: C_12  and  C_13
REMARK    7  A    between atoms: C_16  and  O_17
REMARK    8  A    between atoms: O_17  and  C_18
REMARK    9  A    between atoms: C_19  and  O_20
REMARK   10  A    between atoms: O_20  and  C_21
REMARK   11  A    between atoms: C_27  and  O_28
REMARK   12  A    between atoms: O_28  and  C_29
REMARK   13  A    between atoms: C_29  and  C_30
REMARK                            x       y       z     vdW  Elec       q    Type
REMARK                         _______ _______ _______ _____ _____    ______ ____
ROOT
ATOM      1  C   UNL     1       1.070   9.663  20.579  0.00  0.00    +0.000 A 
ATOM      2  C   UNL     1       1.226   8.434  21.232  0.00  0.00    +0.000 A 
ATOM      3  C   UNL     1       1.674   7.318  20.547  0.00  0.00    +0.000 A 
ATOM      4  N   UNL     1       1.815   6.121  21.227  0.00  0.00    +0.000 N 
ATOM      5  C   UNL     1       2.212   4.961  20.642  0.00  0.00    +0.000 A 
ATOM      6  O   UNL     1       2.386   3.991  21.376  0.00  0.00    +0.000 OA
ATOM      7  N   UNL     1       2.387   4.978  19.269  0.00  0.00    +0.000 N 
ATOM      8  C   UNL     1       2.448   6.168  18.530  0.00  0.00    +0.000 A 
ATOM      9  O   UNL     1       2.858   6.248  17.375  0.00  0.00    +0.000 OA
ATOM     10  C   UNL     1       1.994   7.399  19.207  0.00  0.00    +0.000 A 
ATOM     11  C   UNL     1       1.882   8.621  18.534  0.00  0.00    +0.000 A 
ATOM     12  C   UNL     1       1.409   9.761  19.209  0.00  0.00    +0.000 A 
ATOM     13  H   UNL     1       1.643   6.061  22.223  0.00  0.00    +0.000 HD
ENDROOT
BRANCH   1  14
ATOM     14  O   UNL     1       0.593  10.785  21.229  0.00  0.00    +0.000 OA
BRANCH  14  16
ATOM     15  C   UNL     1      -0.948  10.613  23.107  0.00  0.00    +0.000 C 
ATOM     16  C   UNL     1      -0.788  10.732  21.607  0.00  0.00    +0.000 C 
ENDBRANCH  14  16
ENDBRANCH   1  14
BRANCH   7  17
ATOM     17  C   UNL     1       2.817   3.759  18.586  0.00  0.00    +0.000 C 
BRANCH  17  18
ATOM     18  C   UNL     1       4.257   3.308  18.869  0.00  0.00    +0.000 C 
BRANCH  18  19
ATOM     19  C   UNL     1       5.253   4.321  18.363  0.00  0.00    +0.000 A 
ATOM     20  C   UNL     1       5.902   5.166  19.266  0.00  0.00    +0.000 A 
ATOM     21  C   UNL     1       6.810   6.125  18.810  0.00  0.00    +0.000 A 
ATOM     22  C   UNL     1       7.058   6.264  17.440  0.00  0.00    +0.000 A 
ATOM     23  C   UNL     1       6.398   5.420  16.525  0.00  0.00    +0.000 A 
ATOM     24  C   UNL     1       5.510   4.446  16.993  0.00  0.00    +0.000 A 
BRANCH  22  25
ATOM     25  O   UNL     1       7.909   7.199  16.905  0.00  0.00    +0.000 OA
ATOM     26  C   UNL     1       7.996   8.451  17.571  0.00  0.00    +0.000 C 
ENDBRANCH  22  25
BRANCH  23  27
ATOM     27  O   UNL     1       6.704   5.585  15.196  0.00  0.00    +0.000 OA
ATOM     28  C   UNL     1       6.496   4.447  14.366  0.00  0.00    +0.000 C 
ENDBRANCH  23  27
ENDBRANCH  18  19
ENDBRANCH  17  18
ENDBRANCH   7  17
BRANCH  12  29
ATOM     29  O   UNL     1       1.245  10.986  18.605  0.00  0.00    +0.000 OA
BRANCH  29  30
ATOM     30  C   UNL     1       2.410  11.587  18.028  0.00  0.00    +0.000 C 
ATOM     31  C   UNL     1       2.417  13.073  18.341  0.00  0.00    +0.000 C 
ENDBRANCH  29  30
ENDBRANCH  12  29
TORSDOF 9
ENDMDL
MODEL 6
REMARK VINA RESULT:      -7.3      2.516      9.091
REMARK  Name = 
REMARK  13 active torsions:
REMARK  status: ('A' for Active; 'I' for Inactive)
REMARK    1  A    between atoms: C_1  and  C_2
REMARK    2  A    between atoms: C_2  and  O_3
REMARK    3  A    between atoms: O_3  and  C_4
REMARK    4  A    between atoms: N_10  and  C_11
REMARK    5  A    between atoms: C_11  and  C_12
REMARK    6  A    between atoms: C_12  and  C_13
REMARK    7  A    between atoms: C_16  and  O_17
REMARK    8  A    between atoms: O_17  and  C_18
REMARK    9  A    between atoms: C_19  and  O_20
REMARK   10  A    between atoms: O_20  and  C_21
REMARK   11  A    between atoms: C_27  and  O_28
REMARK   12  A    between atoms: O_28  and  C_29
REMARK   13  A    between atoms: C_29  and  C_30
REMARK                            x       y       z     vdW  Elec       q    Type
REMARK                         _______ _______ _______ _____ _____    ______ ____
ROOT
ATOM      1  C   UNL     1      -3.901  11.622  17.514  0.00  0.00    +0.000 A 
ATOM      2  C   UNL     1      -3.268  11.838  18.744  0.00  0.00    +0.000 A 
ATOM      3  C   UNL     1      -2.049  11.247  19.029  0.00  0.00    +0.000 A 
ATOM      4  N   UNL     1      -1.455  11.484  20.256  0.00  0.00    +0.000 N 
ATOM      5  C   UNL     1      -0.281  10.925  20.649  0.00  0.00    +0.000 A 
ATOM      6  O   UNL     1       0.185  11.291  21.725  0.00  0.00    +0.000 OA
ATOM      7  N   UNL     1       0.287   9.995  19.796  0.00  0.00    +0.000 N 
ATOM      8  C   UNL     1      -0.135   9.828  18.470  0.00  0.00    +0.000 A 
ATOM      9  O   UNL     1       0.496   9.217  17.611  0.00  0.00    +0.000 OA
ATOM     10  C   UNL     1      -1.424  10.445  18.097  0.00  0.00    +0.000 A 
ATOM     11  C   UNL     1      -2.014  10.236  16.845  0.00  0.00    +0.000 A 
ATOM     12  C   UNL     1      -3.262  10.813  16.545  0.00  0.00    +0.000 A 
ATOM     13  H   UNL     1      -1.873  12.119  20.926  0.00  0.00    +0.000 HD
ENDROOT
BRANCH   1  14
ATOM     14  O   UNL     1      -5.133  12.171  17.214  0.00  0.00    +0.000 OA
BRANCH  14  16
ATOM     15  C   UNL     1      -6.748  10.824  18.444  0.00  0.00    +0.000 C 
ATOM     16  C   UNL     1      -6.080  12.173  18.290  0.00  0.00    +0.000 C 
ENDBRANCH  14  16
ENDBRANCH   1  14
BRANCH   7  17
ATOM     17  C   UNL     1       1.554   9.364  20.165  0.00  0.00    +0.000 C 
BRANCH  17  18
ATOM     18  C   UNL     1       1.440   8.059  20.967  0.00  0.00    +0.000 C 
BRANCH  18  19
ATOM     19  C   UNL     1       1.948   6.885  20.168  0.00  0.00    +0.000 A 
ATOM     20  C   UNL     1       2.639   7.106  18.974  0.00  0.00    +0.000 A 
ATOM     21  C   UNL     1       3.096   6.027  18.212  0.00  0.00    +0.000 A 
ATOM     22  C   UNL     1       2.842   4.715  18.626  0.00  0.00    +0.000 A 
ATOM     23  C   UNL     1       2.138   4.489  19.825  0.00  0.00    +0.000 A 
ATOM     24  C   UNL     1       1.706   5.575  20.595  0.00  0.00    +0.000 A 
BRANCH  22  25
ATOM     25  O   UNL     1       3.226   3.600  17.924  0.00  0.00    +0.000 OA
ATOM     26  C   UNL     1       4.321   3.744  17.030  0.00  0.00    +0.000 C 
ENDBRANCH  22  25
BRANCH  23  27
ATOM     27  O   UNL     1       1.945   3.180  20.195  0.00  0.00    +0.000 OA
ATOM     28  C   UNL     1       2.386   2.833  21.503  0.00  0.00    +0.000 C 
ENDBRANCH  23  27
ENDBRANCH  18  19
ENDBRANCH  17  18
ENDBRANCH   7  17
BRANCH  12  29
ATOM     29  O   UNL     1      -3.915  10.628  15.348  0.00  0.00    +0.000 OA
BRANCH  29  30
ATOM     30  C   UNL     1      -3.153  10.068  14.273  0.00  0.00    +0.000 C 
ATOM     31  C   UNL     1      -4.054   9.872  13.066  0.00  0.00    +0.000 C 
ENDBRANCH  29  30
ENDBRANCH  12  29
TORSDOF 9
ENDMDL
MODEL 7
REMARK VINA RESULT:      -7.1      2.220      9.359
REMARK  Name = 
REMARK  13 active torsions:
REMARK  status: ('A' for Active; 'I' for Inactive)
REMARK    1  A    between atoms: C_1  and  C_2
REMARK    2  A    between atoms: C_2  and  O_3
REMARK    3  A    between atoms: O_3  and  C_4
REMARK    4  A    between atoms: N_10  and  C_11
REMARK    5  A    between atoms: C_11  and  C_12
REMARK    6  A    between atoms: C_12  and  C_13
REMARK    7  A    between atoms: C_16  and  O_17
REMARK    8  A    between atoms: O_17  and  C_18
REMARK    9  A    between atoms: C_19  and  O_20
REMARK   10  A    between atoms: O_20  and  C_21
REMARK   11  A    between atoms: C_27  and  O_28
REMARK   12  A    between atoms: O_28  and  C_29
REMARK   13  A    between atoms: C_29  and  C_30
REMARK                            x       y       z     vdW  Elec       q    Type
REMARK                         _______ _______ _______ _____ _____    ______ ____
ROOT
ATOM      1  C   UNL     1       0.468  10.591  21.629  0.00  0.00    +0.000 A 
ATOM      2  C   UNL     1       0.752   9.255  21.937  0.00  0.00    +0.000 A 
ATOM      3  C   UNL     1       1.227   8.387  20.969  0.00  0.00    +0.000 A 
ATOM      4  N   UNL     1       1.495   7.075  21.313  0.00  0.00    +0.000 N 
ATOM      5  C   UNL     1       1.929   6.135  20.432  0.00  0.00    +0.000 A 
ATOM      6  O   UNL     1       2.219   5.031  20.884  0.00  0.00    +0.000 OA
ATOM      7  N   UNL     1       2.009   6.512  19.102  0.00  0.00    +0.000 N 
ATOM      8  C   UNL     1       1.938   7.849  18.690  0.00  0.00    +0.000 A 
ATOM      9  O   UNL     1       2.261   8.251  17.575  0.00  0.00    +0.000 OA
ATOM     10  C   UNL     1       1.449   8.829  19.680  0.00  0.00    +0.000 A 
ATOM     11  C   UNL     1       1.207  10.167  19.349  0.00  0.00    +0.000 A 
ATOM     12  C   UNL     1       0.705  11.057  20.315  0.00  0.00    +0.000 A 
ATOM     13  H   UNL     1       1.395   6.753  22.267  0.00  0.00    +0.000 HD
ENDROOT
BRANCH   1  14
ATOM     14  O   UNL     1      -0.038  11.471  22.566  0.00  0.00    +0.000 OA
BRANCH  14  16
ATOM     15  C   UNL     1      -2.232  12.306  23.221  0.00  0.00    +0.000 C 
ATOM     16  C   UNL     1      -1.310  11.109  23.119  0.00  0.00    +0.000 C 
ENDBRANCH  14  16
ENDBRANCH   1  14
BRANCH   7  17
ATOM     17  C   UNL     1       2.473   5.543  18.110  0.00  0.00    +0.000 C 
BRANCH  17  18
ATOM     18  C   UNL     1       3.743   4.764  18.481  0.00  0.00    +0.000 C 
BRANCH  18  19
ATOM     19  C   UNL     1       4.809   4.930  17.426  0.00  0.00    +0.000 A 
ATOM     20  C   UNL     1       4.805   4.101  16.302  0.00  0.00    +0.000 A 
ATOM     21  C   UNL     1       5.799   4.228  15.327  0.00  0.00    +0.000 A 
ATOM     22  C   UNL     1       6.822   5.169  15.483  0.00  0.00    +0.000 A 
ATOM     23  C   UNL     1       6.834   6.000  16.620  0.00  0.00    +0.000 A 
ATOM     24  C   UNL     1       5.820   5.884  17.579  0.00  0.00    +0.000 A 
BRANCH  22  25
ATOM     25  O   UNL     1       7.853   5.338  14.592  0.00  0.00    +0.000 OA
ATOM     26  C   UNL     1       7.562   5.123  13.218  0.00  0.00    +0.000 C 
ENDBRANCH  22  25
BRANCH  23  27
ATOM     27  O   UNL     1       7.846   6.926  16.704  0.00  0.00    +0.000 OA
ATOM     28  C   UNL     1       7.607   8.030  17.568  0.00  0.00    +0.000 C 
ENDBRANCH  23  27
ENDBRANCH  18  19
ENDBRANCH  17  18
ENDBRANCH   7  17
BRANCH  12  29
ATOM     29  O   UNL     1       0.418  12.378  20.052  0.00  0.00    +0.000 OA
BRANCH  29  30
ATOM     30  C   UNL     1      -0.935  12.689  19.701  0.00  0.00    +0.000 C 
ATOM     31  C   UNL     1      -1.236  12.136  18.319  0.00  0.00    +0.000 C 
ENDBRANCH  29  30
ENDBRANCH  12  29
TORSDOF 9
ENDMDL
MODEL 8
REMARK VINA RESULT:      -7.1      0.975      1.248
REMARK  Name = 
REMARK  13 active torsions:
REMARK  status: ('A' for Active; 'I' for Inactive)
REMARK    1  A    between atoms: C_1  and  C_2
REMARK    2  A    between atoms: C_2  and  O_3
REMARK    3  A    between atoms: O_3  and  C_4
REMARK    4  A    between atoms: N_10  and  C_11
REMARK    5  A    between atoms: C_11  and  C_12
REMARK    6  A    between atoms: C_12  and  C_13
REMARK    7  A    between atoms: C_16  and  O_17
REMARK    8  A    between atoms: O_17  and  C_18
REMARK    9  A    between atoms: C_19  and  O_20
REMARK   10  A    between atoms: O_20  and  C_21
REMARK   11  A    between atoms: C_27  and  O_28
REMARK   12  A    between atoms: O_28  and  C_29
REMARK   13  A    between atoms: C_29  and  C_30
REMARK                            x       y       z     vdW  Elec       q    Type
REMARK                         _______ _______ _______ _____ _____    ______ ____
ROOT
ATOM      1  C   UNL     1       4.078   4.661  18.986  0.00  0.00    +0.000 A 
ATOM      2  C   UNL     1       3.231   5.205  19.959  0.00  0.00    +0.000 A 
ATOM      3  C   UNL     1       2.602   6.421  19.754  0.00  0.00    +0.000 A 
ATOM      4  N   UNL     1       1.773   6.926  20.740  0.00  0.00    +0.000 N 
ATOM      5  C   UNL     1       1.139   8.125  20.655  0.00  0.00    +0.000 A 
ATOM      6  O   UNL     1       0.358   8.414  21.557  0.00  0.00    +0.000 OA
ATOM      7  N   UNL     1       1.428   8.910  19.552  0.00  0.00    +0.000 N 
ATOM      8  C   UNL     1       2.101   8.415  18.426  0.00  0.00    +0.000 A 
ATOM      9  O   UNL     1       2.148   8.984  17.338  0.00  0.00    +0.000 OA
ATOM     10  C   UNL     1       2.784   7.114  18.575  0.00  0.00    +0.000 A 
ATOM     11  C   UNL     1       3.597   6.581  17.569  0.00  0.00    +0.000 A 
ATOM     12  C   UNL     1       4.260   5.356  17.768  0.00  0.00    +0.000 A 
ATOM     13  H   UNL     1       1.582   6.400  21.584  0.00  0.00    +0.000 HD
ENDROOT
BRANCH   1  14
ATOM     14  O   UNL     1       4.745   3.466  19.176  0.00  0.00    +0.000 OA
BRANCH  14  16
ATOM     15  C   UNL     1       3.323   1.760  18.175  0.00  0.00    +0.000 C 
ATOM     16  C   UNL     1       3.907   2.335  19.447  0.00  0.00    +0.000 C 
ENDBRANCH  14  16
ENDBRANCH   1  14
BRANCH   7  17
ATOM     17  C   UNL     1       0.772  10.209  19.405  0.00  0.00    +0.000 C 
BRANCH  17  18
ATOM     18  C   UNL     1       0.083  10.460  18.056  0.00  0.00    +0.000 C 
BRANCH  18  19
ATOM     19  C   UNL     1      -1.385  10.749  18.242  0.00  0.00    +0.000 A 
ATOM     20  C   UNL     1      -2.330  10.049  17.489  0.00  0.00    +0.000 A 
ATOM     21  C   UNL     1      -3.693  10.322  17.634  0.00  0.00    +0.000 A 
ATOM     22  C   UNL     1      -4.121  11.319  18.517  0.00  0.00    +0.000 A 
ATOM     23  C   UNL     1      -3.170  12.034  19.271  0.00  0.00    +0.000 A 
ATOM     24  C   UNL     1      -1.809  11.737  19.138  0.00  0.00    +0.000 A 
BRANCH  22  25
ATOM     25  O   UNL     1      -5.435  11.673  18.697  0.00  0.00    +0.000 OA
ATOM     26  C   UNL     1      -6.392  10.622  18.715  0.00  0.00    +0.000 C 
ENDBRANCH  22  25
BRANCH  23  27
ATOM     27  O   UNL     1      -3.652  12.981  20.142  0.00  0.00    +0.000 OA
ATOM     28  C   UNL     1      -3.353  12.769  21.517  0.00  0.00    +0.000 C 
ENDBRANCH  23  27
ENDBRANCH  18  19
ENDBRANCH  17  18
ENDBRANCH   7  17
BRANCH  12  29
ATOM     29  O   UNL     1       5.097   4.787  16.835  0.00  0.00    +0.000 OA
BRANCH  29  30
ATOM     30  C   UNL     1       6.011   5.661  16.163  0.00  0.00    +0.000 C 
ATOM     31  C   UNL     1       6.991   4.834  15.350  0.00  0.00    +0.000 C 
ENDBRANCH  29  30
ENDBRANCH  12  29
TORSDOF 9
ENDMDL
MODEL 9
REMARK VINA RESULT:      -7.1      1.362      2.011
REMARK  Name = 
REMARK  13 active torsions:
REMARK  status: ('A' for Active; 'I' for Inactive)
REMARK    1  A    between atoms: C_1  and  C_2
REMARK    2  A    between atoms: C_2  and  O_3
REMARK    3  A    between atoms: O_3  and  C_4
REMARK    4  A    between atoms: N_10  and  C_11
REMARK    5  A    between atoms: C_11  and  C_12
REMARK    6  A    between atoms: C_12  and  C_13
REMARK    7  A    between atoms: C_16  and  O_17
REMARK    8  A    between atoms: O_17  and  C_18
REMARK    9  A    between atoms: C_19  and  O_20
REMARK   10  A    between atoms: O_20  and  C_21
REMARK   11  A    between atoms: C_27  and  O_28
REMARK   12  A    between atoms: O_28  and  C_29
REMARK   13  A    between atoms: C_29  and  C_30
REMARK                            x       y       z     vdW  Elec       q    Type
REMARK                         _______ _______ _______ _____ _____    ______ ____
ROOT
ATOM      1  C   UNL     1       4.406   4.997  18.940  0.00  0.00    +0.000 A 
ATOM      2  C   UNL     1       3.462   5.397  19.893  0.00  0.00    +0.000 A 
ATOM      3  C   UNL     1       2.722   6.553  19.718  0.00  0.00    +0.000 A 
ATOM      4  N   UNL     1       1.798   6.915  20.683  0.00  0.00    +0.000 N 
ATOM      5  C   UNL     1       1.049   8.047  20.626  0.00  0.00    +0.000 A 
ATOM      6  O   UNL     1       0.199   8.204  21.499  0.00  0.00    +0.000 OA
ATOM      7  N   UNL     1       1.308   8.919  19.583  0.00  0.00    +0.000 N 
ATOM      8  C   UNL     1       2.082   8.559  18.471  0.00  0.00    +0.000 A 
ATOM      9  O   UNL     1       2.122   9.191  17.418  0.00  0.00    +0.000 OA
ATOM     10  C   UNL     1       2.888   7.328  18.588  0.00  0.00    +0.000 A 
ATOM     11  C   UNL     1       3.799   6.937  17.601  0.00  0.00    +0.000 A 
ATOM     12  C   UNL     1       4.574   5.776  17.771  0.00  0.00    +0.000 A 
ATOM     13  H   UNL     1       1.622   6.325  21.486  0.00  0.00    +0.000 HD
ENDROOT
BRANCH   1  14
ATOM     14  O   UNL     1       5.183   3.866  19.103  0.00  0.00    +0.000 OA
BRANCH  14  16
ATOM     15  C   UNL     1       3.592   2.259  18.196  0.00  0.00    +0.000 C 
ATOM     16  C   UNL     1       4.457   2.659  19.372  0.00  0.00    +0.000 C 
ENDBRANCH  14  16
ENDBRANCH   1  14
BRANCH   7  17
ATOM     17  C   UNL     1       0.529  10.152  19.469  0.00  0.00    +0.000 C 
BRANCH  17  18
ATOM     18  C   UNL     1       0.795  11.211  20.548  0.00  0.00    +0.000 C 
BRANCH  18  19
ATOM     19  C   UNL     1      -0.476  11.581  21.271  0.00  0.00    +0.000 A 
ATOM     20  C   UNL     1      -0.686  11.135  22.577  0.00  0.00    +0.000 A 
ATOM     21  C   UNL     1      -1.869  11.450  23.252  0.00  0.00    +0.000 A 
ATOM     22  C   UNL     1      -2.865  12.195  22.613  0.00  0.00    +0.000 A 
ATOM     23  C   UNL     1      -2.662  12.638  21.291  0.00  0.00    +0.000 A 
ATOM     24  C   UNL     1      -1.464  12.340  20.633  0.00  0.00    +0.000 A 
BRANCH  22  25
ATOM     25  O   UNL     1      -4.068  12.522  23.188  0.00  0.00    +0.000 OA
ATOM     26  C   UNL     1      -4.126  12.524  24.608  0.00  0.00    +0.000 C 
ENDBRANCH  22  25
BRANCH  23  27
ATOM     27  O   UNL     1      -3.664  13.390  20.727  0.00  0.00    +0.000 OA
ATOM     28  C   UNL     1      -3.549  14.799  20.888  0.00  0.00    +0.000 C 
ENDBRANCH  23  27
ENDBRANCH  18  19
ENDBRANCH  17  18
ENDBRANCH   7  17
BRANCH  12  29
ATOM     29  O   UNL     1       5.510   5.347  16.857  0.00  0.00    +0.000 OA
BRANCH  29  30
ATOM     30  C   UNL     1       5.020   4.650  15.705  0.00  0.00    +0.000 C 
ATOM     31  C   UNL     1       6.157   3.870  15.069  0.00  0.00    +0.000 C 
ENDBRANCH  29  30
ENDBRANCH  12  29
TORSDOF 9
ENDMDL
