MODEL 1
REMARK VINA RESULT:      -7.4      0.000      0.000
REMARK  Name = 
REMARK  8 active torsions:
REMARK  status: ('A' for Active; 'I' for Inactive)
REMARK    1  A    between atoms: C_1  and  O_2
REMARK    2  A    between atoms: O_2  and  C_3
REMARK    3  A    between atoms: C_12  and  N_13
REMARK    4  A    between atoms: N_13  and  C_14
REMARK    5  A    between atoms: C_14  and  C_15
REMARK    6  A    between atoms: C_15  and  N_16
REMARK    7  A    between atoms: N_16  and  C_17
REMARK    8  A    between atoms: N_16  and  C_18
REMARK                            x       y       z     vdW  Elec       q    Type
REMARK                         _______ _______ _______ _____ _____    ______ ____
ROOT
ATOM      1  C   UNL     1       6.493   5.337  15.545  0.00  0.00    +0.000 A 
ATOM      2  C   UNL     1       7.155   4.348  16.288  0.00  0.00    +0.000 A 
ATOM      3  C   UNL     1       6.749   4.055  17.583  0.00  0.00    +0.000 A 
ATOM      4  C   UNL     1       5.660   4.743  18.120  0.00  0.00    +0.000 A 
ATOM      5  C   UNL     1       5.018   5.802  17.427  0.00  0.00    +0.000 A 
ATOM      6  C   UNL     1       5.456   6.086  16.126  0.00  0.00    +0.000 A 
ATOM      7  C   UNL     1       3.797   6.505  18.014  0.00  0.00    +0.000 A 
ATOM      8  O   UNL     1       3.306   7.502  17.490  0.00  0.00    +0.000 OA
ATOM      9  C   UNL     1       3.172   5.865  19.214  0.00  0.00    +0.000 A 
ATOM     10  C   UNL     1       1.852   5.991  19.686  0.00  0.00    +0.000 A 
ATOM     11  C   UNL     1       1.095   4.802  19.732  0.00  0.00    +0.000 A 
ATOM     12  C   UNL     1       1.746   3.583  20.004  0.00  0.00    +0.000 A 
ATOM     13  C   UNL     1       3.149   3.577  20.059  0.00  0.00    +0.000 A 
ATOM     14  N   UNL     1       4.086   2.609  20.302  0.00  0.00    +0.000 NA
ATOM     15  N   UNL     1       5.267   3.062  19.864  0.00  0.00    +0.000 NA
ATOM     16  N   UNL     1       5.024   4.239  19.254  0.00  0.00    +0.000 N 
ATOM     17  C   UNL     1       3.802   4.708  19.616  0.00  0.00    +0.000 A 
ENDROOT
BRANCH   1  19
ATOM     18  C   UNL     1       6.736   4.540  13.317  0.00  0.00    +0.000 C 
ATOM     19  O   UNL     1       6.780   5.630  14.236  0.00  0.00    +0.000 OA
ENDBRANCH   1  19
BRANCH  10  20
ATOM     20  N   UNL     1       1.615   6.727  21.004  0.00  0.00    +0.000 N 
ATOM     21  H   UNL     1       2.405   6.434  21.584  0.00  0.00    +0.000 HD
BRANCH  20  22
ATOM     22  C   UNL     1       1.745   8.184  20.814  0.00  0.00    +0.000 C 
BRANCH  22  23
ATOM     23  C   UNL     1       1.337   9.017  22.034  0.00  0.00    +0.000 C 
BRANCH  23  24
ATOM     24  N   UNL     1      -0.158   9.360  21.966  0.00  0.00    +0.000 N 
ATOM     25  C   UNL     1      -0.595  10.077  23.216  0.00  0.00    +0.000 C 
ATOM     26  C   UNL     1      -0.449  10.243  20.785  0.00  0.00    +0.000 C 
ATOM     27  O   UNL     1      -0.885   8.202  21.822  0.00  0.00    +0.000 OA
ENDBRANCH  23  24
ENDBRANCH  22  23
ENDBRANCH  20  22
ENDBRANCH  10  20
TORSDOF 5
ENDMDL
MODEL 2
REMARK VINA RESULT:      -7.3      0.812      1.040
REMARK  Name = 
REMARK  8 active torsions:
REMARK  status: ('A' for Active; 'I' for Inactive)
REMARK    1  A    between atoms: C_1  and  O_2
REMARK    2  A    between atoms: O_2  and  C_3
REMARK    3  A    between atoms: C_12  and  N_13
REMARK    4  A    between atoms: N_13  and  C_14
REMARK    5  A    between atoms: C_14  and  C_15
REMARK    6  A    between atoms: C_15  and  N_16
REMARK    7  A    between atoms: N_16  and  C_17
REMARK    8  A    between atoms: N_16  and  C_18
REMARK                            x       y       z     vdW  Elec       q    Type
REMARK                         _______ _______ _______ _____ _____    ______ ____
ROOT
ATOM      1  C   UNL     1       6.237   5.392  15.471  0.00  0.00    +0.000 A 
ATOM      2  C   UNL     1       6.924   4.387  16.168  0.00  0.00    +0.000 A 
ATOM      3  C   UNL     1       6.581   4.085  17.480  0.00  0.00    +0.000 A 
ATOM      4  C   UNL     1       5.532   4.780  18.080  0.00  0.00    +0.000 A 
ATOM      5  C   UNL     1       4.868   5.855  17.433  0.00  0.00    +0.000 A 
ATOM      6  C   UNL     1       5.242   6.148  16.114  0.00  0.00    +0.000 A 
ATOM      7  C   UNL     1       3.689   6.566  18.091  0.00  0.00    +0.000 A 
ATOM      8  O   UNL     1       3.184   7.576  17.604  0.00  0.00    +0.000 OA
ATOM      9  C   UNL     1       3.118   5.922  19.315  0.00  0.00    +0.000 A 
ATOM     10  C   UNL     1       1.827   6.059  19.857  0.00  0.00    +0.000 A 
ATOM     11  C   UNL     1       1.057   4.878  19.930  0.00  0.00    +0.000 A 
ATOM     12  C   UNL     1       1.706   3.648  20.155  0.00  0.00    +0.000 A 
ATOM     13  C   UNL     1       3.110   3.625  20.136  0.00  0.00    +0.000 A 
ATOM     14  N   UNL     1       4.045   2.642  20.319  0.00  0.00    +0.000 NA
ATOM     15  N   UNL     1       5.207   3.085  19.824  0.00  0.00    +0.000 NA
ATOM     16  N   UNL     1       4.948   4.272  19.241  0.00  0.00    +0.000 N 
ATOM     17  C   UNL     1       3.754   4.752  19.672  0.00  0.00    +0.000 A 
ENDROOT
BRANCH   1  19
ATOM     18  C   UNL     1       7.040   4.669  13.353  0.00  0.00    +0.000 C 
ATOM     19  O   UNL     1       6.458   5.697  14.153  0.00  0.00    +0.000 OA
ENDBRANCH   1  19
BRANCH  10  20
ATOM     20  N   UNL     1       1.669   6.783  21.192  0.00  0.00    +0.000 N 
ATOM     21  H   UNL     1       2.553   6.593  21.671  0.00  0.00    +0.000 HD
BRANCH  20  22
ATOM     22  C   UNL     1       1.602   8.241  20.986  0.00  0.00    +0.000 C 
BRANCH  22  23
ATOM     23  C   UNL     1       0.958   9.013  22.144  0.00  0.00    +0.000 C 
BRANCH  23  24
ATOM     24  N   UNL     1       0.258  10.273  21.616  0.00  0.00    +0.000 N 
ATOM     25  C   UNL     1      -0.427   9.990  20.306  0.00  0.00    +0.000 C 
ATOM     26  C   UNL     1      -0.773  10.759  22.597  0.00  0.00    +0.000 C 
ATOM     27  O   UNL     1       1.186  11.272  21.443  0.00  0.00    +0.000 OA
ENDBRANCH  23  24
ENDBRANCH  22  23
ENDBRANCH  20  22
ENDBRANCH  10  20
TORSDOF 5
ENDMDL
MODEL 3
REMARK VINA RESULT:      -6.9      0.971      1.121
REMARK  Name = 
REMARK  8 active torsions:
REMARK  status: ('A' for Active; 'I' for Inactive)
REMARK    1  A    between atoms: C_1  and  O_2
REMARK    2  A    between atoms: O_2  and  C_3
REMARK    3  A    between atoms: C_12  and  N_13
REMARK    4  A    between atoms: N_13  and  C_14
REMARK    5  A    between atoms: C_14  and  C_15
REMARK    6  A    between atoms: C_15  and  N_16
REMARK    7  A    between atoms: N_16  and  C_17
REMARK    8  A    between atoms: N_16  and  C_18
REMARK                            x       y       z     vdW  Elec       q    Type
REMARK                         _______ _______ _______ _____ _____    ______ ____
ROOT
ATOM      1  C   UNL     1       6.355   5.342  15.496  0.00  0.00    +0.000 A 
ATOM      2  C   UNL     1       6.991   4.312  16.204  0.00  0.00    +0.000 A 
ATOM      3  C   UNL     1       6.628   4.035  17.516  0.00  0.00    +0.000 A 
ATOM      4  C   UNL     1       5.607   4.781  18.105  0.00  0.00    +0.000 A 
ATOM      5  C   UNL     1       4.996   5.880  17.445  0.00  0.00    +0.000 A 
ATOM      6  C   UNL     1       5.391   6.147  16.127  0.00  0.00    +0.000 A 
ATOM      7  C   UNL     1       3.846   6.648  18.090  0.00  0.00    +0.000 A 
ATOM      8  O   UNL     1       3.390   7.675  17.593  0.00  0.00    +0.000 OA
ATOM      9  C   UNL     1       3.239   6.038  19.316  0.00  0.00    +0.000 A 
ATOM     10  C   UNL     1       1.952   6.237  19.848  0.00  0.00    +0.000 A 
ATOM     11  C   UNL     1       1.130   5.093  19.924  0.00  0.00    +0.000 A 
ATOM     12  C   UNL     1       1.721   3.837  20.161  0.00  0.00    +0.000 A 
ATOM     13  C   UNL     1       3.122   3.750  20.152  0.00  0.00    +0.000 A 
ATOM     14  N   UNL     1       4.012   2.727  20.348  0.00  0.00    +0.000 NA
ATOM     15  N   UNL     1       5.195   3.115  19.858  0.00  0.00    +0.000 NA
ATOM     16  N   UNL     1       4.994   4.308  19.264  0.00  0.00    +0.000 N 
ATOM     17  C   UNL     1       3.819   4.844  19.684  0.00  0.00    +0.000 A 
ENDROOT
BRANCH   1  19
ATOM     18  C   UNL     1       6.939   4.522  13.341  0.00  0.00    +0.000 C 
ATOM     19  O   UNL     1       6.598   5.627  14.177  0.00  0.00    +0.000 OA
ENDBRANCH   1  19
BRANCH  10  20
ATOM     20  N   UNL     1       1.818   6.977  21.177  0.00  0.00    +0.000 N 
ATOM     21  H   UNL     1       2.690   7.508  21.242  0.00  0.00    +0.000 HD
BRANCH  20  22
ATOM     22  C   UNL     1       0.723   7.963  21.113  0.00  0.00    +0.000 C 
BRANCH  22  23
ATOM     23  C   UNL     1       1.158   9.407  21.388  0.00  0.00    +0.000 C 
BRANCH  23  24
ATOM     24  N   UNL     1       0.631  10.338  20.288  0.00  0.00    +0.000 N 
ATOM     25  C   UNL     1       1.086  11.753  20.528  0.00  0.00    +0.000 C 
ATOM     26  C   UNL     1       1.128   9.902  18.938  0.00  0.00    +0.000 C 
ATOM     27  O   UNL     1      -0.742  10.294  20.272  0.00  0.00    +0.000 OA
ENDBRANCH  23  24
ENDBRANCH  22  23
ENDBRANCH  20  22
ENDBRANCH  10  20
TORSDOF 5
ENDMDL
MODEL 4
REMARK VINA RESULT:      -6.5      3.236      4.713
REMARK  Name = 
REMARK  8 active torsions:
REMARK  status: ('A' for Active; 'I' for Inactive)
REMARK    1  A    between atoms: C_1  and  O_2
REMARK    2  A    between atoms: O_2  and  C_3
REMARK    3  A    between atoms: C_12  and  N_13
REMARK    4  A    between atoms: N_13  and  C_14
REMARK    5  A    between atoms: C_14  and  C_15
REMARK    6  A    between atoms: C_15  and  N_16
REMARK    7  A    between atoms: N_16  and  C_17
REMARK    8  A    between atoms: N_16  and  C_18
REMARK                            x       y       z     vdW  Elec       q    Type
REMARK                         _______ _______ _______ _____ _____    ______ ____
ROOT
ATOM      1  C   UNL     1       6.304   3.686  13.089  0.00  0.00    +0.000 A 
ATOM      2  C   UNL     1       7.248   4.722  13.036  0.00  0.00    +0.000 A 
ATOM      3  C   UNL     1       7.311   5.666  14.053  0.00  0.00    +0.000 A 
ATOM      4  C   UNL     1       6.437   5.551  15.135  0.00  0.00    +0.000 A 
ATOM      5  C   UNL     1       5.418   4.564  15.183  0.00  0.00    +0.000 A 
ATOM      6  C   UNL     1       5.368   3.631  14.137  0.00  0.00    +0.000 A 
ATOM      7  C   UNL     1       4.508   4.427  16.400  0.00  0.00    +0.000 A 
ATOM      8  O   UNL     1       3.544   3.664  16.409  0.00  0.00    +0.000 OA
ATOM      9  C   UNL     1       4.901   5.203  17.618  0.00  0.00    +0.000 A 
ATOM     10  C   UNL     1       4.562   4.955  18.961  0.00  0.00    +0.000 A 
ATOM     11  C   UNL     1       5.641   4.700  19.835  0.00  0.00    +0.000 A 
ATOM     12  C   UNL     1       6.877   5.338  19.604  0.00  0.00    +0.000 A 
ATOM     13  C   UNL     1       7.032   6.076  18.420  0.00  0.00    +0.000 A 
ATOM     14  N   UNL     1       8.057   6.811  17.888  0.00  0.00    +0.000 NA
ATOM     15  N   UNL     1       7.805   6.982  16.585  0.00  0.00    +0.000 NA
ATOM     16  N   UNL     1       6.704   6.255  16.308  0.00  0.00    +0.000 N 
ATOM     17  C   UNL     1       6.055   5.938  17.458  0.00  0.00    +0.000 A 
ENDROOT
BRANCH   1  19
ATOM     18  C   UNL     1       4.997   2.550  11.459  0.00  0.00    +0.000 C 
ATOM     19  O   UNL     1       6.228   2.672  12.170  0.00  0.00    +0.000 OA
ENDBRANCH   1  19
BRANCH  10  20
ATOM     20  N   UNL     1       3.630   5.933  19.672  0.00  0.00    +0.000 N 
ATOM     21  H   UNL     1       3.292   6.532  18.915  0.00  0.00    +0.000 HD
BRANCH  20  22
ATOM     22  C   UNL     1       2.452   5.227  20.212  0.00  0.00    +0.000 C 
BRANCH  22  23
ATOM     23  C   UNL     1       1.713   4.359  19.188  0.00  0.00    +0.000 C 
BRANCH  23  24
ATOM     24  N   UNL     1       1.640   2.906  19.679  0.00  0.00    +0.000 N 
ATOM     25  C   UNL     1       1.262   2.857  21.136  0.00  0.00    +0.000 C 
ATOM     26  C   UNL     1       0.617   2.131  18.896  0.00  0.00    +0.000 C 
ATOM     27  O   UNL     1       2.862   2.302  19.500  0.00  0.00    +0.000 OA
ENDBRANCH  23  24
ENDBRANCH  22  23
ENDBRANCH  20  22
ENDBRANCH  10  20
TORSDOF 5
ENDMDL
MODEL 5
REMARK VINA RESULT:      -6.4      3.124      4.649
REMARK  Name = 
REMARK  8 active torsions:
REMARK  status: ('A' for Active; 'I' for Inactive)
REMARK    1  A    between atoms: C_1  and  O_2
REMARK    2  A    between atoms: O_2  and  C_3
REMARK    3  A    between atoms: C_12  and  N_13
REMARK    4  A    between atoms: N_13  and  C_14
REMARK    5  A    between atoms: C_14  and  C_15
REMARK    6  A    between atoms: C_15  and  N_16
REMARK    7  A    between atoms: N_16  and  C_17
REMARK    8  A    between atoms: N_16  and  C_18
REMARK                            x       y       z     vdW  Elec       q    Type
REMARK                         _______ _______ _______ _____ _____    ______ ____
ROOT
ATOM      1  C   UNL     1       6.309   3.738  13.071  0.00  0.00    +0.000 A 
ATOM      2  C   UNL     1       7.213   4.809  13.007  0.00  0.00    +0.000 A 
ATOM      3  C   UNL     1       7.263   5.747  14.030  0.00  0.00    +0.000 A 
ATOM      4  C   UNL     1       6.418   5.591  15.129  0.00  0.00    +0.000 A 
ATOM      5  C   UNL     1       5.438   4.566  15.191  0.00  0.00    +0.000 A 
ATOM      6  C   UNL     1       5.400   3.641  14.138  0.00  0.00    +0.000 A 
ATOM      7  C   UNL     1       4.560   4.386  16.425  0.00  0.00    +0.000 A 
ATOM      8  O   UNL     1       3.625   3.588  16.449  0.00  0.00    +0.000 OA
ATOM      9  C   UNL     1       4.949   5.167  17.642  0.00  0.00    +0.000 A 
ATOM     10  C   UNL     1       4.650   4.896  18.990  0.00  0.00    +0.000 A 
ATOM     11  C   UNL     1       5.756   4.675  19.838  0.00  0.00    +0.000 A 
ATOM     12  C   UNL     1       6.961   5.359  19.586  0.00  0.00    +0.000 A 
ATOM     13  C   UNL     1       7.064   6.112  18.406  0.00  0.00    +0.000 A 
ATOM     14  N   UNL     1       8.049   6.889  17.858  0.00  0.00    +0.000 NA
ATOM     15  N   UNL     1       7.762   7.060  16.562  0.00  0.00    +0.000 NA
ATOM     16  N   UNL     1       6.683   6.296  16.303  0.00  0.00    +0.000 N 
ATOM     17  C   UNL     1       6.072   5.946  17.463  0.00  0.00    +0.000 A 
ENDROOT
BRANCH   1  19
ATOM     18  C   UNL     1       5.006   2.558  11.470  0.00  0.00    +0.000 C 
ATOM     19  O   UNL     1       6.252   2.729  12.145  0.00  0.00    +0.000 OA
ENDBRANCH   1  19
BRANCH  10  20
ATOM     20  N   UNL     1       3.697   5.833  19.728  0.00  0.00    +0.000 N 
ATOM     21  H   UNL     1       3.615   6.634  19.097  0.00  0.00    +0.000 HD
BRANCH  20  22
ATOM     22  C   UNL     1       2.353   5.233  19.828  0.00  0.00    +0.000 C 
BRANCH  22  23
ATOM     23  C   UNL     1       2.043   4.605  21.191  0.00  0.00    +0.000 C 
BRANCH  23  24
ATOM     24  N   UNL     1       1.844   3.090  21.044  0.00  0.00    +0.000 N 
ATOM     25  C   UNL     1       0.994   2.780  19.841  0.00  0.00    +0.000 C 
ATOM     26  C   UNL     1       3.167   2.392  20.884  0.00  0.00    +0.000 C 
ATOM     27  O   UNL     1       1.236   2.597  22.175  0.00  0.00    +0.000 OA
ENDBRANCH  23  24
ENDBRANCH  22  23
ENDBRANCH  20  22
ENDBRANCH  10  20
TORSDOF 5
ENDMDL
MODEL 6
REMARK VINA RESULT:      -6.4      3.579      5.448
REMARK  Name = 
REMARK  8 active torsions:
REMARK  status: ('A' for Active; 'I' for Inactive)
REMARK    1  A    between atoms: C_1  and  O_2
REMARK    2  A    between atoms: O_2  and  C_3
REMARK    3  A    between atoms: C_12  and  N_13
REMARK    4  A    between atoms: N_13  and  C_14
REMARK    5  A    between atoms: C_14  and  C_15
REMARK    6  A    between atoms: C_15  and  N_16
REMARK    7  A    between atoms: N_16  and  C_17
REMARK    8  A    between atoms: N_16  and  C_18
REMARK                            x       y       z     vdW  Elec       q    Type
REMARK                         _______ _______ _______ _____ _____    ______ ____
ROOT
ATOM      1  C   UNL     1       2.372   4.669  18.430  0.00  0.00    +0.000 A 
ATOM      2  C   UNL     1       2.094   4.506  19.796  0.00  0.00    +0.000 A 
ATOM      3  C   UNL     1       1.889   5.615  20.606  0.00  0.00    +0.000 A 
ATOM      4  C   UNL     1       1.940   6.886  20.036  0.00  0.00    +0.000 A 
ATOM      5  C   UNL     1       2.295   7.092  18.676  0.00  0.00    +0.000 A 
ATOM      6  C   UNL     1       2.510   5.956  17.883  0.00  0.00    +0.000 A 
ATOM      7  C   UNL     1       2.294   8.488  18.062  0.00  0.00    +0.000 A 
ATOM      8  O   UNL     1       2.718   8.701  16.928  0.00  0.00    +0.000 OA
ATOM      9  C   UNL     1       1.669   9.577  18.878  0.00  0.00    +0.000 A 
ATOM     10  C   UNL     1       1.126  10.798  18.439  0.00  0.00    +0.000 A 
ATOM     11  C   UNL     1      -0.246  10.997  18.703  0.00  0.00    +0.000 A 
ATOM     12  C   UNL     1      -0.808  10.441  19.870  0.00  0.00    +0.000 A 
ATOM     13  C   UNL     1      -0.016   9.575  20.641  0.00  0.00    +0.000 A 
ATOM     14  N   UNL     1      -0.223   8.883  21.803  0.00  0.00    +0.000 NA
ATOM     15  N   UNL     1       0.715   7.932  21.886  0.00  0.00    +0.000 NA
ATOM     16  N   UNL     1       1.405   7.971  20.729  0.00  0.00    +0.000 N 
ATOM     17  C   UNL     1       1.171   9.144  20.087  0.00  0.00    +0.000 A 
ENDROOT
BRANCH   1  19
ATOM     18  C   UNL     1       2.553   2.319  18.113  0.00  0.00    +0.000 C 
ATOM     19  O   UNL     1       2.508   3.628  17.548  0.00  0.00    +0.000 OA
ENDBRANCH   1  19
BRANCH  10  20
ATOM     20  N   UNL     1       1.847  12.092  18.809  0.00  0.00    +0.000 N 
ATOM     21  H   UNL     1       2.570  12.176  18.090  0.00  0.00    +0.000 HD
BRANCH  20  22
ATOM     22  C   UNL     1       0.949  13.251  18.646  0.00  0.00    +0.000 C 
BRANCH  22  23
ATOM     23  C   UNL     1       1.230  14.408  19.611  0.00  0.00    +0.000 C 
BRANCH  23  24
ATOM     24  N   UNL     1       0.651  14.094  20.998  0.00  0.00    +0.000 N 
ATOM     25  C   UNL     1       0.997  15.184  21.977  0.00  0.00    +0.000 C 
ATOM     26  C   UNL     1      -0.846  13.970  20.934  0.00  0.00    +0.000 C 
ATOM     27  O   UNL     1       1.159  12.897  21.444  0.00  0.00    +0.000 OA
ENDBRANCH  23  24
ENDBRANCH  22  23
ENDBRANCH  20  22
ENDBRANCH  10  20
TORSDOF 5
ENDMDL
MODEL 7
REMARK VINA RESULT:      -6.3      2.132      7.706
REMARK  Name = 
REMARK  8 active torsions:
REMARK  status: ('A' for Active; 'I' for Inactive)
REMARK    1  A    between atoms: C_1  and  O_2
REMARK    2  A    between atoms: O_2  and  C_3
REMARK    3  A    between atoms: C_12  and  N_13
REMARK    4  A    between atoms: N_13  and  C_14
REMARK    5  A    between atoms: C_14  and  C_15
REMARK    6  A    between atoms: C_15  and  N_16
REMARK    7  A    between atoms: N_16  and  C_17
REMARK    8  A    between atoms: N_16  and  C_18
REMARK                            x       y       z     vdW  Elec       q    Type
REMARK                         _______ _______ _______ _____ _____    ______ ____
ROOT
ATOM      1  C   UNL     1       1.430   7.838  20.682  0.00  0.00    +0.000 A 
ATOM      2  C   UNL     1       1.339   6.531  21.183  0.00  0.00    +0.000 A 
ATOM      3  C   UNL     1       1.928   5.476  20.499  0.00  0.00    +0.000 A 
ATOM      4  C   UNL     1       2.628   5.742  19.323  0.00  0.00    +0.000 A 
ATOM      5  C   UNL     1       2.674   7.038  18.746  0.00  0.00    +0.000 A 
ATOM      6  C   UNL     1       2.059   8.084  19.450  0.00  0.00    +0.000 A 
ATOM      7  C   UNL     1       3.489   7.314  17.486  0.00  0.00    +0.000 A 
ATOM      8  O   UNL     1       3.440   8.395  16.903  0.00  0.00    +0.000 OA
ATOM      9  C   UNL     1       4.421   6.230  17.043  0.00  0.00    +0.000 A 
ATOM     10  C   UNL     1       5.575   6.339  16.245  0.00  0.00    +0.000 A 
ATOM     11  C   UNL     1       6.787   5.945  16.850  0.00  0.00    +0.000 A 
ATOM     12  C   UNL     1       6.774   4.902  17.798  0.00  0.00    +0.000 A 
ATOM     13  C   UNL     1       5.531   4.406  18.221  0.00  0.00    +0.000 A 
ATOM     14  N   UNL     1       5.149   3.421  19.093  0.00  0.00    +0.000 NA
ATOM     15  N   UNL     1       3.862   3.623  19.400  0.00  0.00    +0.000 NA
ATOM     16  N   UNL     1       3.505   4.783  18.816  0.00  0.00    +0.000 N 
ATOM     17  C   UNL     1       4.409   5.121  17.861  0.00  0.00    +0.000 A 
ENDROOT
BRANCH   1  19
ATOM     18  C   UNL     1      -0.356   8.824  21.905  0.00  0.00    +0.000 C 
ATOM     19  O   UNL     1       0.946   8.943  21.335  0.00  0.00    +0.000 OA
ENDBRANCH   1  19
BRANCH  10  20
ATOM     20  N   UNL     1       5.553   5.731  14.844  0.00  0.00    +0.000 N 
ATOM     21  H   UNL     1       5.724   6.534  14.233  0.00  0.00    +0.000 HD
BRANCH  20  22
ATOM     22  C   UNL     1       6.690   4.810  14.661  0.00  0.00    +0.000 C 
BRANCH  22  23
ATOM     23  C   UNL     1       6.317   3.463  14.034  0.00  0.00    +0.000 C 
BRANCH  23  24
ATOM     24  N   UNL     1       6.303   3.576  12.503  0.00  0.00    +0.000 N 
ATOM     25  C   UNL     1       6.911   2.351  11.874  0.00  0.00    +0.000 C 
ATOM     26  C   UNL     1       4.896   3.724  11.993  0.00  0.00    +0.000 C 
ATOM     27  O   UNL     1       7.014   4.689  12.122  0.00  0.00    +0.000 OA
ENDBRANCH  23  24
ENDBRANCH  22  23
ENDBRANCH  20  22
ENDBRANCH  10  20
TORSDOF 5
ENDMDL
MODEL 8
REMARK VINA RESULT:      -6.3      3.593      5.980
REMARK  Name = 
REMARK  8 active torsions:
REMARK  status: ('A' for Active; 'I' for Inactive)
REMARK    1  A    between atoms: C_1  and  O_2
REMARK    2  A    between atoms: O_2  and  C_3
REMARK    3  A    between atoms: C_12  and  N_13
REMARK    4  A    between atoms: N_13  and  C_14
REMARK    5  A    between atoms: C_14  and  C_15
REMARK    6  A    between atoms: C_15  and  N_16
REMARK    7  A    between atoms: N_16  and  C_17
REMARK    8  A    between atoms: N_16  and  C_18
REMARK                            x       y       z     vdW  Elec       q    Type
REMARK                         _______ _______ _______ _____ _____    ______ ____
ROOT
ATOM      1  C   UNL     1       2.329   4.665  18.606  0.00  0.00    +0.000 A 
ATOM      2  C   UNL     1       2.047   4.531  19.974  0.00  0.00    +0.000 A 
ATOM      3  C   UNL     1       1.838   5.657  20.760  0.00  0.00    +0.000 A 
ATOM      4  C   UNL     1       1.891   6.916  20.162  0.00  0.00    +0.000 A 
ATOM      5  C   UNL     1       2.251   7.092  18.800  0.00  0.00    +0.000 A 
ATOM      6  C   UNL     1       2.470   5.940  18.032  0.00  0.00    +0.000 A 
ATOM      7  C   UNL     1       2.253   8.476  18.157  0.00  0.00    +0.000 A 
ATOM      8  O   UNL     1       2.681   8.664  17.020  0.00  0.00    +0.000 OA
ATOM      9  C   UNL     1       1.624   9.581  18.946  0.00  0.00    +0.000 A 
ATOM     10  C   UNL     1       1.082  10.793  18.480  0.00  0.00    +0.000 A 
ATOM     11  C   UNL     1      -0.291  10.996  18.734  0.00  0.00    +0.000 A 
ATOM     12  C   UNL     1      -0.857  10.465  19.910  0.00  0.00    +0.000 A 
ATOM     13  C   UNL     1      -0.069   9.616  20.702  0.00  0.00    +0.000 A 
ATOM     14  N   UNL     1      -0.280   8.948  21.878  0.00  0.00    +0.000 NA
ATOM     15  N   UNL     1       0.658   8.000  21.985  0.00  0.00    +0.000 NA
ATOM     16  N   UNL     1       1.352   8.014  20.830  0.00  0.00    +0.000 N 
ATOM     17  C   UNL     1       1.121   9.174  20.163  0.00  0.00    +0.000 A 
ENDROOT
BRANCH   1  19
ATOM     18  C   UNL     1       3.292   2.529  18.195  0.00  0.00    +0.000 C 
ATOM     19  O   UNL     1       2.469   3.606  17.747  0.00  0.00    +0.000 OA
ENDBRANCH   1  19
BRANCH  10  20
ATOM     20  N   UNL     1       1.802  12.095  18.825  0.00  0.00    +0.000 N 
ATOM     21  H   UNL     1       2.641  12.065  18.242  0.00  0.00    +0.000 HD
BRANCH  20  22
ATOM     22  C   UNL     1       1.014  13.257  18.376  0.00  0.00    +0.000 C 
BRANCH  22  23
ATOM     23  C   UNL     1       1.166  14.502  19.257  0.00  0.00    +0.000 C 
BRANCH  23  24
ATOM     24  N   UNL     1       2.430  15.279  18.864  0.00  0.00    +0.000 N 
ATOM     25  C   UNL     1       2.089  16.703  18.513  0.00  0.00    +0.000 C 
ATOM     26  C   UNL     1       3.420  15.292  19.995  0.00  0.00    +0.000 C 
ATOM     27  O   UNL     1       3.023  14.669  17.785  0.00  0.00    +0.000 OA
ENDBRANCH  23  24
ENDBRANCH  22  23
ENDBRANCH  20  22
ENDBRANCH  10  20
TORSDOF 5
ENDMDL
MODEL 9
REMARK VINA RESULT:      -6.2      3.800      6.152
REMARK  Name = 
REMARK  8 active torsions:
REMARK  status: ('A' for Active; 'I' for Inactive)
REMARK    1  A    between atoms: C_1  and  O_2
REMARK    2  A    between atoms: O_2  and  C_3
REMARK    3  A    between atoms: C_12  and  N_13
REMARK    4  A    between atoms: N_13  and  C_14
REMARK    5  A    between atoms: C_14  and  C_15
REMARK    6  A    between atoms: C_15  and  N_16
REMARK    7  A    between atoms: N_16  and  C_17
REMARK    8  A    between atoms: N_16  and  C_18
REMARK                            x       y       z     vdW  Elec       q    Type
REMARK                         _______ _______ _______ _____ _____    ______ ____
ROOT
ATOM      1  C   UNL     1       2.443   5.231  18.424  0.00  0.00    +0.000 A 
ATOM      2  C   UNL     1       2.197   4.988  19.784  0.00  0.00    +0.000 A 
ATOM      3  C   UNL     1       1.922   6.042  20.646  0.00  0.00    +0.000 A 
ATOM      4  C   UNL     1       1.871   7.338  20.131  0.00  0.00    +0.000 A 
ATOM      5  C   UNL     1       2.192   7.628  18.779  0.00  0.00    +0.000 A 
ATOM      6  C   UNL     1       2.479   6.547  17.934  0.00  0.00    +0.000 A 
ATOM      7  C   UNL     1       2.080   9.047  18.228  0.00  0.00    +0.000 A 
ATOM      8  O   UNL     1       2.471   9.339  17.100  0.00  0.00    +0.000 OA
ATOM      9  C   UNL     1       1.387  10.049  19.098  0.00  0.00    +0.000 A 
ATOM     10  C   UNL     1       0.750  11.245  18.720  0.00  0.00    +0.000 A 
ATOM     11  C   UNL     1      -0.629  11.330  19.008  0.00  0.00    +0.000 A 
ATOM     12  C   UNL     1      -1.133  10.683  20.154  0.00  0.00    +0.000 A 
ATOM     13  C   UNL     1      -0.269   9.845  20.877  0.00  0.00    +0.000 A 
ATOM     14  N   UNL     1      -0.408   9.089  22.010  0.00  0.00    +0.000 NA
ATOM     15  N   UNL     1       0.598   8.207  22.040  0.00  0.00    +0.000 NA
ATOM     16  N   UNL     1       1.267   8.348  20.878  0.00  0.00    +0.000 N 
ATOM     17  C   UNL     1       0.939   9.528  20.292  0.00  0.00    +0.000 A 
ENDROOT
BRANCH   1  19
ATOM     18  C   UNL     1       2.500   2.900  17.955  0.00  0.00    +0.000 C 
ATOM     19  O   UNL     1       2.643   4.243  17.495  0.00  0.00    +0.000 OA
ENDBRANCH   1  19
BRANCH  10  20
ATOM     20  N   UNL     1       1.379  12.571  19.140  0.00  0.00    +0.000 N 
ATOM     21  H   UNL     1       1.885  12.334  19.997  0.00  0.00    +0.000 HD
BRANCH  20  22
ATOM     22  C   UNL     1       2.391  13.000  18.156  0.00  0.00    +0.000 C 
BRANCH  22  23
ATOM     23  C   UNL     1       3.387  14.037  18.686  0.00  0.00    +0.000 C 
BRANCH  23  24
ATOM     24  N   UNL     1       2.791  15.447  18.581  0.00  0.00    +0.000 N 
ATOM     25  C   UNL     1       3.150  16.267  19.792  0.00  0.00    +0.000 C 
ATOM     26  C   UNL     1       3.307  16.154  17.358  0.00  0.00    +0.000 C 
ATOM     27  O   UNL     1       1.423  15.358  18.476  0.00  0.00    +0.000 OA
ENDBRANCH  23  24
ENDBRANCH  22  23
ENDBRANCH  20  22
ENDBRANCH  10  20
TORSDOF 5
ENDMDL
