MODEL 1
REMARK VINA RESULT:      -8.9      0.000      0.000
REMARK  Name = 
REMARK  5 active torsions:
REMARK  status: ('A' for Active; 'I' for Inactive)
REMARK    1  A    between atoms: N_2  and  C_4
REMARK    2  A    between atoms: N_10  and  C_11
REMARK    3  A    between atoms: C_11  and  C_12
REMARK    4  A    between atoms: C_11  and  C_20
REMARK    5  A    between atoms: C_12  and  C_13
REMARK                            x       y       z     vdW  Elec       q    Type
REMARK                         _______ _______ _______ _____ _____    ______ ____
ROOT
ATOM      1  C   UNL     1       3.709   6.392  18.099  0.00  0.00    +0.000 C 
ENDROOT
BRANCH   1   8
ATOM      2  C   UNL     1      -1.060  10.768  19.386  0.00  0.00    +0.000 A 
ATOM      3  C   UNL     1      -0.666  10.240  20.632  0.00  0.00    +0.000 A 
ATOM      4  C   UNL     1       0.500   9.469  20.752  0.00  0.00    +0.000 A 
ATOM      5  C   UNL     1       1.194   9.240  19.568  0.00  0.00    +0.000 A 
ATOM      6  O   UNL     1       2.285   8.440  19.382  0.00  0.00    +0.000 OA
ATOM      7  C   UNL     1       2.511   8.503  18.033  0.00  0.00    +0.000 A 
ATOM      8  N   UNL     1       3.453   7.709  17.493  0.00  0.00    +0.000 N 
ATOM      9  N   UNL     1       1.719   9.322  17.379  0.00  0.00    +0.000 NA
ATOM     10  C   UNL     1       0.845   9.764  18.335  0.00  0.00    +0.000 A 
ATOM     11  C   UNL     1      -0.294  10.571  18.223  0.00  0.00    +0.000 A 
ATOM     12  H   UNL     1       3.399   7.687  16.479  0.00  0.00    +0.000 HD
BRANCH   2  14
ATOM     13  O   UNL     1      -3.106  11.180  18.368  0.00  0.00    +0.000 OA
ATOM     14  N   UNL     1      -2.332  11.499  19.282  0.00  0.00    +0.000 N 
ATOM     15  O   UNL     1      -2.546  12.404  20.101  0.00  0.00    +0.000 OA
ENDBRANCH   2  14
ENDBRANCH   1   8
BRANCH   1  16
ATOM     16  C   UNL     1       4.955   5.726  17.506  0.00  0.00    +0.000 A 
ATOM     17  C   UNL     1       4.881   4.928  16.360  0.00  0.00    +0.000 A 
ATOM     18  C   UNL     1       6.020   4.261  15.919  0.00  0.00    +0.000 A 
ATOM     19  C   UNL     1       7.206   4.401  16.629  0.00  0.00    +0.000 A 
ATOM     20  C   UNL     1       7.202   5.206  17.752  0.00  0.00    +0.000 A 
ATOM     21  N   UNL     1       6.111   5.862  18.208  0.00  0.00    +0.000 NA
ENDBRANCH   1  16
BRANCH   1  22
ATOM     22  C   UNL     1       2.516   5.423  17.866  0.00  0.00    +0.000 C 
BRANCH  22  23
ATOM     23  C   UNL     1       2.083   4.519  19.008  0.00  0.00    +0.000 A 
ATOM     24  C   UNL     1       2.491   4.849  20.315  0.00  0.00    +0.000 A 
ATOM     25  C   UNL     1       2.127   4.054  21.406  0.00  0.00    +0.000 A 
ATOM     26  C   UNL     1       1.336   2.933  21.197  0.00  0.00    +0.000 A 
ATOM     27  F   UNL     1       0.992   2.163  22.239  0.00  0.00    +0.000 F 
ATOM     28  C   UNL     1       0.880   2.614  19.925  0.00  0.00    +0.000 A 
ATOM     29  C   UNL     1       1.244   3.409  18.830  0.00  0.00    +0.000 A 
ENDBRANCH  22  23
ENDBRANCH   1  22
TORSDOF 5
ENDMDL
MODEL 2
REMARK VINA RESULT:      -8.9      0.538      1.060
REMARK  Name = 
REMARK  5 active torsions:
REMARK  status: ('A' for Active; 'I' for Inactive)
REMARK    1  A    between atoms: N_2  and  C_4
REMARK    2  A    between atoms: N_10  and  C_11
REMARK    3  A    between atoms: C_11  and  C_12
REMARK    4  A    between atoms: C_11  and  C_20
REMARK    5  A    between atoms: C_12  and  C_13
REMARK                            x       y       z     vdW  Elec       q    Type
REMARK                         _______ _______ _______ _____ _____    ______ ____
ROOT
ATOM      1  C   UNL     1       3.701   6.336  18.161  0.00  0.00    +0.000 C 
ENDROOT
BRANCH   1   8
ATOM      2  C   UNL     1      -1.046  10.769  19.333  0.00  0.00    +0.000 A 
ATOM      3  C   UNL     1      -0.667  10.258  20.591  0.00  0.00    +0.000 A 
ATOM      4  C   UNL     1       0.491   9.480  20.734  0.00  0.00    +0.000 A 
ATOM      5  C   UNL     1       1.194   9.227  19.561  0.00  0.00    +0.000 A 
ATOM      6  O   UNL     1       2.280   8.415  19.398  0.00  0.00    +0.000 OA
ATOM      7  C   UNL     1       2.521   8.455  18.051  0.00  0.00    +0.000 A 
ATOM      8  N   UNL     1       3.461   7.645  17.533  0.00  0.00    +0.000 N 
ATOM      9  N   UNL     1       1.741   9.270  17.376  0.00  0.00    +0.000 NA
ATOM     10  C   UNL     1       0.861   9.734  18.316  0.00  0.00    +0.000 A 
ATOM     11  C   UNL     1      -0.270  10.548  18.181  0.00  0.00    +0.000 A 
ATOM     12  H   UNL     1       3.417   7.608  16.519  0.00  0.00    +0.000 HD
BRANCH   2  14
ATOM     13  O   UNL     1      -2.509  12.449  19.988  0.00  0.00    +0.000 OA
ATOM     14  N   UNL     1      -2.310  11.509  19.205  0.00  0.00    +0.000 N 
ATOM     15  O   UNL     1      -3.109  11.139  18.334  0.00  0.00    +0.000 OA
ENDBRANCH   2  14
ENDBRANCH   1   8
BRANCH   1  16
ATOM     16  C   UNL     1       4.950   5.653  17.595  0.00  0.00    +0.000 A 
ATOM     17  C   UNL     1       6.040   5.333  18.410  0.00  0.00    +0.000 A 
ATOM     18  C   UNL     1       7.192   4.807  17.833  0.00  0.00    +0.000 A 
ATOM     19  C   UNL     1       7.234   4.614  16.458  0.00  0.00    +0.000 A 
ATOM     20  C   UNL     1       6.118   4.954  15.717  0.00  0.00    +0.000 A 
ATOM     21  N   UNL     1       4.987   5.470  16.249  0.00  0.00    +0.000 NA
ENDBRANCH   1  16
BRANCH   1  22
ATOM     22  C   UNL     1       2.504   5.371  17.929  0.00  0.00    +0.000 C 
BRANCH  22  23
ATOM     23  C   UNL     1       2.072   4.464  19.068  0.00  0.00    +0.000 A 
ATOM     24  C   UNL     1       2.473   4.795  20.377  0.00  0.00    +0.000 A 
ATOM     25  C   UNL     1       2.109   3.998  21.466  0.00  0.00    +0.000 A 
ATOM     26  C   UNL     1       1.324   2.873  21.253  0.00  0.00    +0.000 A 
ATOM     27  F   UNL     1       0.980   2.100  22.293  0.00  0.00    +0.000 F 
ATOM     28  C   UNL     1       0.874   2.553  19.979  0.00  0.00    +0.000 A 
ATOM     29  C   UNL     1       1.239   3.351  18.886  0.00  0.00    +0.000 A 
ENDBRANCH  22  23
ENDBRANCH   1  22
TORSDOF 5
ENDMDL
MODEL 3
REMARK VINA RESULT:      -8.8      0.213      1.105
REMARK  Name = 
REMARK  5 active torsions:
REMARK  status: ('A' for Active; 'I' for Inactive)
REMARK    1  A    between atoms: N_2  and  C_4
REMARK    2  A    between atoms: N_10  and  C_11
REMARK    3  A    between atoms: C_11  and  C_12
REMARK    4  A    between atoms: C_11  and  C_20
REMARK    5  A    between atoms: C_12  and  C_13
REMARK                            x       y       z     vdW  Elec       q    Type
REMARK                         _______ _______ _______ _____ _____    ______ ____
ROOT
ATOM      1  C   UNL     1       3.777   6.448  18.068  0.00  0.00    +0.000 C 
ENDROOT
BRANCH   1   8
ATOM      2  C   UNL     1      -1.091  10.721  19.334  0.00  0.00    +0.000 A 
ATOM      3  C   UNL     1      -0.698  10.194  20.580  0.00  0.00    +0.000 A 
ATOM      4  C   UNL     1       0.481   9.445  20.707  0.00  0.00    +0.000 A 
ATOM      5  C   UNL     1       1.191   9.237  19.529  0.00  0.00    +0.000 A 
ATOM      6  O   UNL     1       2.299   8.460  19.349  0.00  0.00    +0.000 OA
ATOM      7  C   UNL     1       2.538   8.536  18.003  0.00  0.00    +0.000 A 
ATOM      8  N   UNL     1       3.501   7.764  17.468  0.00  0.00    +0.000 N 
ATOM      9  N   UNL     1       1.737   9.343  17.346  0.00  0.00    +0.000 NA
ATOM     10  C   UNL     1       0.844   9.761  18.296  0.00  0.00    +0.000 A 
ATOM     11  C   UNL     1      -0.309  10.547  18.177  0.00  0.00    +0.000 A 
ATOM     12  H   UNL     1       3.458   7.747  16.453  0.00  0.00    +0.000 HD
BRANCH   2  14
ATOM     13  O   UNL     1      -2.596  12.351  20.018  0.00  0.00    +0.000 OA
ATOM     14  N   UNL     1      -2.375  11.429  19.221  0.00  0.00    +0.000 N 
ATOM     15  O   UNL     1      -3.168  11.049  18.348  0.00  0.00    +0.000 OA
ENDBRANCH   2  14
ENDBRANCH   1   8
BRANCH   1  16
ATOM     16  C   UNL     1       4.986   5.768  17.418  0.00  0.00    +0.000 A 
ATOM     17  C   UNL     1       4.976   5.393  16.072  0.00  0.00    +0.000 A 
ATOM     18  C   UNL     1       6.057   4.687  15.552  0.00  0.00    +0.000 A 
ATOM     19  C   UNL     1       7.122   4.367  16.385  0.00  0.00    +0.000 A 
ATOM     20  C   UNL     1       7.061   4.771  17.705  0.00  0.00    +0.000 A 
ATOM     21  N   UNL     1       6.023   5.454  18.239  0.00  0.00    +0.000 NA
ENDBRANCH   1  16
BRANCH   1  22
ATOM     22  C   UNL     1       2.565   5.487  17.902  0.00  0.00    +0.000 C 
BRANCH  22  23
ATOM     23  C   UNL     1       2.146   4.637  19.089  0.00  0.00    +0.000 A 
ATOM     24  C   UNL     1       1.331   3.513  18.852  0.00  0.00    +0.000 A 
ATOM     25  C   UNL     1       0.911   2.692  19.904  0.00  0.00    +0.000 A 
ATOM     26  C   UNL     1       1.320   2.984  21.198  0.00  0.00    +0.000 A 
ATOM     27  F   UNL     1       0.912   2.206  22.211  0.00  0.00    +0.000 F 
ATOM     28  C   UNL     1       2.163   4.057  21.451  0.00  0.00    +0.000 A 
ATOM     29  C   UNL     1       2.585   4.880  20.398  0.00  0.00    +0.000 A 
ENDBRANCH  22  23
ENDBRANCH   1  22
TORSDOF 5
ENDMDL
MODEL 4
REMARK VINA RESULT:      -8.2      3.713      5.799
REMARK  Name = 
REMARK  5 active torsions:
REMARK  status: ('A' for Active; 'I' for Inactive)
REMARK    1  A    between atoms: N_2  and  C_4
REMARK    2  A    between atoms: N_10  and  C_11
REMARK    3  A    between atoms: C_11  and  C_12
REMARK    4  A    between atoms: C_11  and  C_20
REMARK    5  A    between atoms: C_12  and  C_13
REMARK                            x       y       z     vdW  Elec       q    Type
REMARK                         _______ _______ _______ _____ _____    ______ ____
ROOT
ATOM      1  C   UNL     1       5.515   4.252  16.958  0.00  0.00    +0.000 C 
ENDROOT
BRANCH   1   8
ATOM      2  C   UNL     1       1.456   8.062  20.502  0.00  0.00    +0.000 A 
ATOM      3  C   UNL     1       1.685   8.751  19.294  0.00  0.00    +0.000 A 
ATOM      4  C   UNL     1       2.300   8.113  18.205  0.00  0.00    +0.000 A 
ATOM      5  C   UNL     1       2.690   6.796  18.423  0.00  0.00    +0.000 A 
ATOM      6  O   UNL     1       3.401   5.988  17.583  0.00  0.00    +0.000 OA
ATOM      7  C   UNL     1       3.585   4.841  18.309  0.00  0.00    +0.000 A 
ATOM      8  N   UNL     1       4.375   3.874  17.810  0.00  0.00    +0.000 N 
ATOM      9  N   UNL     1       2.994   4.831  19.482  0.00  0.00    +0.000 NA
ATOM     10  C   UNL     1       2.458   6.086  19.589  0.00  0.00    +0.000 A 
ATOM     11  C   UNL     1       1.803   6.708  20.659  0.00  0.00    +0.000 A 
ATOM     12  H   UNL     1       4.604   3.169  18.505  0.00  0.00    +0.000 HD
BRANCH   2  14
ATOM     13  O   UNL     1      -0.327   8.657  21.865  0.00  0.00    +0.000 OA
ATOM     14  N   UNL     1       0.886   8.785  21.649  0.00  0.00    +0.000 N 
ATOM     15  O   UNL     1       1.649   9.493  22.320  0.00  0.00    +0.000 OA
ENDBRANCH   2  14
ENDBRANCH   1   8
BRANCH   1  16
ATOM     16  C   UNL     1       6.408   5.297  17.633  0.00  0.00    +0.000 A 
ATOM     17  C   UNL     1       6.640   6.547  17.049  0.00  0.00    +0.000 A 
ATOM     18  C   UNL     1       7.539   7.423  17.648  0.00  0.00    +0.000 A 
ATOM     19  C   UNL     1       8.190   7.038  18.813  0.00  0.00    +0.000 A 
ATOM     20  C   UNL     1       7.911   5.787  19.331  0.00  0.00    +0.000 A 
ATOM     21  N   UNL     1       7.046   4.912  18.770  0.00  0.00    +0.000 NA
ENDBRANCH   1  16
BRANCH   1  22
ATOM     22  C   UNL     1       5.034   4.860  15.610  0.00  0.00    +0.000 C 
BRANCH  22  23
ATOM     23  C   UNL     1       5.766   4.471  14.337  0.00  0.00    +0.000 A 
ATOM     24  C   UNL     1       5.122   3.605  13.432  0.00  0.00    +0.000 A 
ATOM     25  C   UNL     1       5.745   3.209  12.244  0.00  0.00    +0.000 A 
ATOM     26  C   UNL     1       7.011   3.693  11.947  0.00  0.00    +0.000 A 
ATOM     27  F   UNL     1       7.616   3.309  10.814  0.00  0.00    +0.000 F 
ATOM     28  C   UNL     1       7.647   4.587  12.799  0.00  0.00    +0.000 A 
ATOM     29  C   UNL     1       7.024   4.984  13.990  0.00  0.00    +0.000 A 
ENDBRANCH  22  23
ENDBRANCH   1  22
TORSDOF 5
ENDMDL
MODEL 5
REMARK VINA RESULT:      -8.1      3.963      8.016
REMARK  Name = 
REMARK  5 active torsions:
REMARK  status: ('A' for Active; 'I' for Inactive)
REMARK    1  A    between atoms: N_2  and  C_4
REMARK    2  A    between atoms: N_10  and  C_11
REMARK    3  A    between atoms: C_11  and  C_12
REMARK    4  A    between atoms: C_11  and  C_20
REMARK    5  A    between atoms: C_12  and  C_13
REMARK                            x       y       z     vdW  Elec       q    Type
REMARK                         _______ _______ _______ _____ _____    ______ ____
ROOT
ATOM      1  C   UNL     1       0.569  10.580  19.625  0.00  0.00    +0.000 C 
ENDROOT
BRANCH   1   8
ATOM      2  C   UNL     1       2.261   4.202  19.506  0.00  0.00    +0.000 A 
ATOM      3  C   UNL     1       2.808   4.775  18.340  0.00  0.00    +0.000 A 
ATOM      4  C   UNL     1       2.856   6.167  18.174  0.00  0.00    +0.000 A 
ATOM      5  C   UNL     1       2.297   6.915  19.206  0.00  0.00    +0.000 A 
ATOM      6  O   UNL     1       2.112   8.267  19.250  0.00  0.00    +0.000 OA
ATOM      7  C   UNL     1       1.454   8.469  20.434  0.00  0.00    +0.000 A 
ATOM      8  N   UNL     1       0.999   9.701  20.725  0.00  0.00    +0.000 N 
ATOM      9  N   UNL     1       1.285   7.388  21.162  0.00  0.00    +0.000 NA
ATOM     10  C   UNL     1       1.775   6.383  20.373  0.00  0.00    +0.000 A 
ATOM     11  C   UNL     1       1.769   4.995  20.559  0.00  0.00    +0.000 A 
ATOM     12  H   UNL     1       0.360   9.696  21.514  0.00  0.00    +0.000 HD
BRANCH   2  14
ATOM     13  O   UNL     1       1.617   2.273  20.626  0.00  0.00    +0.000 OA
ATOM     14  N   UNL     1       2.151   2.740  19.609  0.00  0.00    +0.000 N 
ATOM     15  O   UNL     1       2.615   2.059  18.683  0.00  0.00    +0.000 OA
ENDBRANCH   2  14
ENDBRANCH   1   8
BRANCH   1  16
ATOM     16  C   UNL     1       1.350  11.898  19.612  0.00  0.00    +0.000 A 
ATOM     17  C   UNL     1       1.857  12.436  18.425  0.00  0.00    +0.000 A 
ATOM     18  C   UNL     1       2.647  13.580  18.476  0.00  0.00    +0.000 A 
ATOM     19  C   UNL     1       2.917  14.163  19.708  0.00  0.00    +0.000 A 
ATOM     20  C   UNL     1       2.382  13.575  20.839  0.00  0.00    +0.000 A 
ATOM     21  N   UNL     1       1.615  12.461  20.821  0.00  0.00    +0.000 NA
ENDBRANCH   1  16
BRANCH   1  22
ATOM     22  C   UNL     1      -0.939  10.940  19.746  0.00  0.00    +0.000 C 
BRANCH  22  23
ATOM     23  C   UNL     1      -1.821  10.793  18.519  0.00  0.00    +0.000 A 
ATOM     24  C   UNL     1      -2.983  11.584  18.430  0.00  0.00    +0.000 A 
ATOM     25  C   UNL     1      -3.836  11.492  17.326  0.00  0.00    +0.000 A 
ATOM     26  C   UNL     1      -3.520  10.618  16.295  0.00  0.00    +0.000 A 
ATOM     27  F   UNL     1      -4.340  10.519  15.239  0.00  0.00    +0.000 F 
ATOM     28  C   UNL     1      -2.355   9.864  16.335  0.00  0.00    +0.000 A 
ATOM     29  C   UNL     1      -1.499   9.955  17.441  0.00  0.00    +0.000 A 
ENDBRANCH  22  23
ENDBRANCH   1  22
TORSDOF 5
ENDMDL
MODEL 6
REMARK VINA RESULT:      -8.0      3.872      8.150
REMARK  Name = 
REMARK  5 active torsions:
REMARK  status: ('A' for Active; 'I' for Inactive)
REMARK    1  A    between atoms: N_2  and  C_4
REMARK    2  A    between atoms: N_10  and  C_11
REMARK    3  A    between atoms: C_11  and  C_12
REMARK    4  A    between atoms: C_11  and  C_20
REMARK    5  A    between atoms: C_12  and  C_13
REMARK                            x       y       z     vdW  Elec       q    Type
REMARK                         _______ _______ _______ _____ _____    ______ ____
ROOT
ATOM      1  C   UNL     1       0.304  10.429  19.221  0.00  0.00    +0.000 C 
ENDROOT
BRANCH   1   8
ATOM      2  C   UNL     1       2.709   4.294  19.590  0.00  0.00    +0.000 A 
ATOM      3  C   UNL     1       3.176   4.826  18.371  0.00  0.00    +0.000 A 
ATOM      4  C   UNL     1       3.063   6.196  18.092  0.00  0.00    +0.000 A 
ATOM      5  C   UNL     1       2.434   6.959  19.070  0.00  0.00    +0.000 A 
ATOM      6  O   UNL     1       2.096   8.281  19.008  0.00  0.00    +0.000 OA
ATOM      7  C   UNL     1       1.431   8.505  20.183  0.00  0.00    +0.000 A 
ATOM      8  N   UNL     1       0.841   9.698  20.381  0.00  0.00    +0.000 N 
ATOM      9  N   UNL     1       1.392   7.477  20.999  0.00  0.00    +0.000 NA
ATOM     10  C   UNL     1       1.986   6.471  20.286  0.00  0.00    +0.000 A 
ATOM     11  C   UNL     1       2.140   5.111  20.584  0.00  0.00    +0.000 A 
ATOM     12  H   UNL     1       0.215   9.688  21.181  0.00  0.00    +0.000 HD
BRANCH   2  14
ATOM     13  O   UNL     1       3.818   2.371  20.269  0.00  0.00    +0.000 OA
ATOM     14  N   UNL     1       2.766   2.842  19.814  0.00  0.00    +0.000 N 
ATOM     15  O   UNL     1       1.767   2.173  19.518  0.00  0.00    +0.000 OA
ENDBRANCH   2  14
ENDBRANCH   1   8
BRANCH   1  16
ATOM     16  C   UNL     1       0.979  11.794  19.047  0.00  0.00    +0.000 A 
ATOM     17  C   UNL     1       0.363  12.973  19.476  0.00  0.00    +0.000 A 
ATOM     18  C   UNL     1       0.967  14.197  19.203  0.00  0.00    +0.000 A 
ATOM     19  C   UNL     1       2.170  14.220  18.509  0.00  0.00    +0.000 A 
ATOM     20  C   UNL     1       2.719  13.014  18.117  0.00  0.00    +0.000 A 
ATOM     21  N   UNL     1       2.153  11.810  18.363  0.00  0.00    +0.000 NA
ENDBRANCH   1  16
BRANCH   1  22
ATOM     22  C   UNL     1      -1.221  10.687  19.375  0.00  0.00    +0.000 C 
BRANCH  22  23
ATOM     23  C   UNL     1      -2.089  10.666  18.128  0.00  0.00    +0.000 A 
ATOM     24  C   UNL     1      -1.720   9.812  17.070  0.00  0.00    +0.000 A 
ATOM     25  C   UNL     1      -2.477   9.750  15.896  0.00  0.00    +0.000 A 
ATOM     26  C   UNL     1      -3.620  10.529  15.783  0.00  0.00    +0.000 A 
ATOM     27  F   UNL     1      -4.344  10.479  14.655  0.00  0.00    +0.000 F 
ATOM     28  C   UNL     1      -4.033  11.341  16.831  0.00  0.00    +0.000 A 
ATOM     29  C   UNL     1      -3.274  11.405  18.008  0.00  0.00    +0.000 A 
ENDBRANCH  22  23
ENDBRANCH   1  22
TORSDOF 5
ENDMDL
MODEL 7
REMARK VINA RESULT:      -8.0      3.901      8.126
REMARK  Name = 
REMARK  5 active torsions:
REMARK  status: ('A' for Active; 'I' for Inactive)
REMARK    1  A    between atoms: N_2  and  C_4
REMARK    2  A    between atoms: N_10  and  C_11
REMARK    3  A    between atoms: C_11  and  C_12
REMARK    4  A    between atoms: C_11  and  C_20
REMARK    5  A    between atoms: C_12  and  C_13
REMARK                            x       y       z     vdW  Elec       q    Type
REMARK                         _______ _______ _______ _____ _____    ______ ____
ROOT
ATOM      1  C   UNL     1       0.337  10.610  19.221  0.00  0.00    +0.000 C 
ENDROOT
BRANCH   1   8
ATOM      2  C   UNL     1       2.522   4.403  19.719  0.00  0.00    +0.000 A 
ATOM      3  C   UNL     1       2.992   4.886  18.481  0.00  0.00    +0.000 A 
ATOM      4  C   UNL     1       2.925   6.252  18.168  0.00  0.00    +0.000 A 
ATOM      5  C   UNL     1       2.337   7.062  19.134  0.00  0.00    +0.000 A 
ATOM      6  O   UNL     1       2.047   8.393  19.041  0.00  0.00    +0.000 OA
ATOM      7  C   UNL     1       1.406   8.671  20.219  0.00  0.00    +0.000 A 
ATOM      8  N   UNL     1       0.862   9.889  20.392  0.00  0.00    +0.000 N 
ATOM      9  N   UNL     1       1.340   7.666  21.061  0.00  0.00    +0.000 NA
ATOM     10  C   UNL     1       1.887   6.621  20.367  0.00  0.00    +0.000 A 
ATOM     11  C   UNL     1       1.996   5.265  20.698  0.00  0.00    +0.000 A 
ATOM     12  H   UNL     1       0.247   9.922  21.199  0.00  0.00    +0.000 HD
BRANCH   2  14
ATOM     13  O   UNL     1       2.114   2.207  19.084  0.00  0.00    +0.000 OA
ATOM     14  N   UNL     1       2.529   2.955  19.980  0.00  0.00    +0.000 N 
ATOM     15  O   UNL     1       2.933   2.571  21.086  0.00  0.00    +0.000 OA
ENDBRANCH   2  14
ENDBRANCH   1   8
BRANCH   1  16
ATOM     16  C   UNL     1       0.974  11.996  19.072  0.00  0.00    +0.000 A 
ATOM     17  C   UNL     1       0.303  13.155  19.474  0.00  0.00    +0.000 A 
ATOM     18  C   UNL     1       0.878  14.397  19.225  0.00  0.00    +0.000 A 
ATOM     19  C   UNL     1       2.108  14.459  18.581  0.00  0.00    +0.000 A 
ATOM     20  C   UNL     1       2.711  13.271  18.213  0.00  0.00    +0.000 A 
ATOM     21  N   UNL     1       2.175  12.050  18.437  0.00  0.00    +0.000 NA
ENDBRANCH   1  16
BRANCH   1  22
ATOM     22  C   UNL     1      -1.200  10.820  19.330  0.00  0.00    +0.000 C 
BRANCH  22  23
ATOM     23  C   UNL     1      -2.043  10.673  18.076  0.00  0.00    +0.000 A 
ATOM     24  C   UNL     1      -3.193  11.476  17.944  0.00  0.00    +0.000 A 
ATOM     25  C   UNL     1      -4.010  11.385  16.813  0.00  0.00    +0.000 A 
ATOM     26  C   UNL     1      -3.670  10.501  15.799  0.00  0.00    +0.000 A 
ATOM     27  F   UNL     1      -4.457  10.403  14.717  0.00  0.00    +0.000 F 
ATOM     28  C   UNL     1      -2.516   9.734  15.882  0.00  0.00    +0.000 A 
ATOM     29  C   UNL     1      -1.696   9.824  17.015  0.00  0.00    +0.000 A 
ENDBRANCH  22  23
ENDBRANCH   1  22
TORSDOF 5
ENDMDL
MODEL 8
REMARK VINA RESULT:      -7.7      3.600      5.780
REMARK  Name = 
REMARK  5 active torsions:
REMARK  status: ('A' for Active; 'I' for Inactive)
REMARK    1  A    between atoms: N_2  and  C_4
REMARK    2  A    between atoms: N_10  and  C_11
REMARK    3  A    between atoms: C_11  and  C_12
REMARK    4  A    between atoms: C_11  and  C_20
REMARK    5  A    between atoms: C_12  and  C_13
REMARK                            x       y       z     vdW  Elec       q    Type
REMARK                         _______ _______ _______ _____ _____    ______ ____
ROOT
ATOM      1  C   UNL     1       5.702   4.395  17.025  0.00  0.00    +0.000 C 
ENDROOT
BRANCH   1   8
ATOM      2  C   UNL     1       1.541   8.472  20.126  0.00  0.00    +0.000 A 
ATOM      3  C   UNL     1       1.657   8.958  18.809  0.00  0.00    +0.000 A 
ATOM      4  C   UNL     1       2.265   8.187  17.806  0.00  0.00    +0.000 A 
ATOM      5  C   UNL     1       2.766   6.956  18.216  0.00  0.00    +0.000 A 
ATOM      6  O   UNL     1       3.495   6.066  17.480  0.00  0.00    +0.000 OA
ATOM      7  C   UNL     1       3.801   5.075  18.374  0.00  0.00    +0.000 A 
ATOM      8  N   UNL     1       4.638   4.092  17.996  0.00  0.00    +0.000 N 
ATOM      9  N   UNL     1       3.270   5.225  19.567  0.00  0.00    +0.000 NA
ATOM     10  C   UNL     1       2.646   6.441  19.496  0.00  0.00    +0.000 A 
ATOM     11  C   UNL     1       1.999   7.191  20.485  0.00  0.00    +0.000 A 
ATOM     12  H   UNL     1       4.953   3.533  18.783  0.00  0.00    +0.000 HD
BRANCH   2  14
ATOM     13  O   UNL     1       1.617   9.470  22.221  0.00  0.00    +0.000 OA
ATOM     14  N   UNL     1       0.975   9.339  21.170  0.00  0.00    +0.000 N 
ATOM     15  O   UNL     1      -0.120   9.874  20.944  0.00  0.00    +0.000 OA
ENDBRANCH   2  14
ENDBRANCH   1   8
BRANCH   1  16
ATOM     16  C   UNL     1       6.644   5.490  17.536  0.00  0.00    +0.000 A 
ATOM     17  C   UNL     1       7.405   5.316  18.695  0.00  0.00    +0.000 A 
ATOM     18  C   UNL     1       8.167   6.375  19.177  0.00  0.00    +0.000 A 
ATOM     19  C   UNL     1       8.154   7.586  18.495  0.00  0.00    +0.000 A 
ATOM     20  C   UNL     1       7.376   7.684  17.357  0.00  0.00    +0.000 A 
ATOM     21  N   UNL     1       6.622   6.674  16.867  0.00  0.00    +0.000 NA
ENDBRANCH   1  16
BRANCH   1  22
ATOM     22  C   UNL     1       5.110   4.891  15.675  0.00  0.00    +0.000 C 
BRANCH  22  23
ATOM     23  C   UNL     1       5.800   4.482  14.386  0.00  0.00    +0.000 A 
ATOM     24  C   UNL     1       5.121   3.615  13.509  0.00  0.00    +0.000 A 
ATOM     25  C   UNL     1       5.706   3.201  12.308  0.00  0.00    +0.000 A 
ATOM     26  C   UNL     1       6.968   3.669  11.970  0.00  0.00    +0.000 A 
ATOM     27  F   UNL     1       7.537   3.267  10.824  0.00  0.00    +0.000 F 
ATOM     28  C   UNL     1       7.638   4.563  12.794  0.00  0.00    +0.000 A 
ATOM     29  C   UNL     1       7.053   4.979  13.998  0.00  0.00    +0.000 A 
ENDBRANCH  22  23
ENDBRANCH   1  22
TORSDOF 5
ENDMDL
MODEL 9
REMARK VINA RESULT:      -7.7      3.916      8.253
REMARK  Name = 
REMARK  5 active torsions:
REMARK  status: ('A' for Active; 'I' for Inactive)
REMARK    1  A    between atoms: N_2  and  C_4
REMARK    2  A    between atoms: N_10  and  C_11
REMARK    3  A    between atoms: C_11  and  C_12
REMARK    4  A    between atoms: C_11  and  C_20
REMARK    5  A    between atoms: C_12  and  C_13
REMARK                            x       y       z     vdW  Elec       q    Type
REMARK                         _______ _______ _______ _____ _____    ______ ____
ROOT
ATOM      1  C   UNL     1       0.085  10.903  19.040  0.00  0.00    +0.000 C 
ENDROOT
BRANCH   1   8
ATOM      2  C   UNL     1       2.569   4.823  19.687  0.00  0.00    +0.000 A 
ATOM      3  C   UNL     1       3.053   5.315  18.459  0.00  0.00    +0.000 A 
ATOM      4  C   UNL     1       2.926   6.673  18.126  0.00  0.00    +0.000 A 
ATOM      5  C   UNL     1       2.266   7.462  19.062  0.00  0.00    +0.000 A 
ATOM      6  O   UNL     1       1.911   8.775  18.943  0.00  0.00    +0.000 OA
ATOM      7  C   UNL     1       1.219   9.033  20.096  0.00  0.00    +0.000 A 
ATOM      8  N   UNL     1       0.608  10.223  20.237  0.00  0.00    +0.000 N 
ATOM      9  N   UNL     1       1.178   8.035  20.949  0.00  0.00    +0.000 NA
ATOM     10  C   UNL     1       1.800   7.012  20.286  0.00  0.00    +0.000 A 
ATOM     11  C   UNL     1       1.968   5.667  20.638  0.00  0.00    +0.000 A 
ATOM     12  H   UNL     1      -0.034  10.233  21.024  0.00  0.00    +0.000 HD
BRANCH   2  14
ATOM     13  O   UNL     1       3.103   2.646  19.082  0.00  0.00    +0.000 OA
ATOM     14  N   UNL     1       2.642   3.381  19.967  0.00  0.00    +0.000 N 
ATOM     15  O   UNL     1       2.223   2.984  21.063  0.00  0.00    +0.000 OA
ENDBRANCH   2  14
ENDBRANCH   1   8
BRANCH   1  16
ATOM     16  C   UNL     1       0.618  12.334  18.919  0.00  0.00    +0.000 A 
ATOM     17  C   UNL     1       1.988  12.608  18.954  0.00  0.00    +0.000 A 
ATOM     18  C   UNL     1       2.420  13.930  18.945  0.00  0.00    +0.000 A 
ATOM     19  C   UNL     1       1.479  14.952  18.902  0.00  0.00    +0.000 A 
ATOM     20  C   UNL     1       0.142  14.604  18.870  0.00  0.00    +0.000 A 
ATOM     21  N   UNL     1      -0.308  13.328  18.883  0.00  0.00    +0.000 NA
ENDBRANCH   1  16
BRANCH   1  22
ATOM     22  C   UNL     1      -1.467  10.992  19.076  0.00  0.00    +0.000 C 
BRANCH  22  23
ATOM     23  C   UNL     1      -2.239  10.715  17.798  0.00  0.00    +0.000 A 
ATOM     24  C   UNL     1      -3.415  11.451  17.553  0.00  0.00    +0.000 A 
ATOM     25  C   UNL     1      -4.170  11.239  16.395  0.00  0.00    +0.000 A 
ATOM     26  C   UNL     1      -3.741  10.302  15.466  0.00  0.00    +0.000 A 
ATOM     27  F   UNL     1      -4.467  10.089  14.359  0.00  0.00    +0.000 F 
ATOM     28  C   UNL     1      -2.560   9.599  15.660  0.00  0.00    +0.000 A 
ATOM     29  C   UNL     1      -1.802   9.810  16.820  0.00  0.00    +0.000 A 
ENDBRANCH  22  23
ENDBRANCH   1  22
TORSDOF 5
ENDMDL
