MODEL 1
REMARK VINA RESULT:      -5.0      0.000      0.000
REMARK  Name = 
REMARK  1 active torsions:
REMARK  status: ('A' for Active; 'I' for Inactive)
REMARK    1  A    between atoms: C_8  and  C_9
REMARK                            x       y       z     vdW  Elec       q    Type
REMARK                         _______ _______ _______ _____ _____    ______ ____
ROOT
ATOM      1  C   UNL     1       8.335  14.996  19.882  0.00  0.00    +0.000 A 
ATOM      2  C   UNL     1       8.663  14.672  21.225  0.00  0.00    +0.000 A 
ATOM      3 CL   UNL     1      10.321  14.795  21.766  0.00  0.00    +0.000 Cl
ATOM      4  C   UNL     1       7.667  14.303  22.153  0.00  0.00    +0.000 A 
ATOM      5 CL   UNL     1       8.119  13.647  23.703  0.00  0.00    +0.000 Cl
ATOM      6  C   UNL     1       6.312  14.438  21.816  0.00  0.00    +0.000 A 
ATOM      7 CL   UNL     1       5.077  14.098  22.998  0.00  0.00    +0.000 Cl
ATOM      8  C   UNL     1       5.956  14.842  20.521  0.00  0.00    +0.000 A 
ATOM      9 CL   UNL     1       4.288  15.164  20.136  0.00  0.00    +0.000 Cl
ATOM     10  C   UNL     1       6.956  15.023  19.542  0.00  0.00    +0.000 A 
ATOM     11 CL   UNL     1       6.479  15.223  17.873  0.00  0.00    +0.000 Cl
ENDROOT
BRANCH   1  19
ATOM     12 CL   UNL     1      11.155  18.553  17.143  0.00  0.00    +0.000 Cl
ATOM     13  C   UNL     1      10.769  16.942  17.626  0.00  0.00    +0.000 A 
ATOM     14  C   UNL     1      11.408  15.914  16.947  0.00  0.00    +0.000 A 
ATOM     15  C   UNL     1      11.073  14.588  17.210  0.00  0.00    +0.000 A 
ATOM     16 CL   UNL     1      12.016  13.362  16.427  0.00  0.00    +0.000 Cl
ATOM     17  C   UNL     1      10.020  14.283  18.094  0.00  0.00    +0.000 A 
ATOM     18 CL   UNL     1       9.449  12.641  18.194  0.00  0.00    +0.000 Cl
ATOM     19  C   UNL     1       9.403  15.308  18.870  0.00  0.00    +0.000 A 
ATOM     20  C   UNL     1       9.829  16.641  18.631  0.00  0.00    +0.000 A 
ATOM     21 CL   UNL     1       9.240  17.951  19.627  0.00  0.00    +0.000 Cl
ENDBRANCH   1  19
TORSDOF 1
ENDMDL
MODEL 2
REMARK VINA RESULT:      -4.9      0.142      3.676
REMARK  Name = 
REMARK  1 active torsions:
REMARK  status: ('A' for Active; 'I' for Inactive)
REMARK    1  A    between atoms: C_8  and  C_9
REMARK                            x       y       z     vdW  Elec       q    Type
REMARK                         _______ _______ _______ _____ _____    ______ ____
ROOT
ATOM      1  C   UNL     1       8.282  15.104  19.956  0.00  0.00    +0.000 A 
ATOM      2  C   UNL     1       6.899  15.120  19.637  0.00  0.00    +0.000 A 
ATOM      3 CL   UNL     1       6.395  15.312  17.974  0.00  0.00    +0.000 Cl
ATOM      4  C   UNL     1       5.917  14.927  20.631  0.00  0.00    +0.000 A 
ATOM      5 CL   UNL     1       4.238  15.226  20.267  0.00  0.00    +0.000 Cl
ATOM      6  C   UNL     1       6.295  14.523  21.920  0.00  0.00    +0.000 A 
ATOM      7 CL   UNL     1       5.080  14.169  23.118  0.00  0.00    +0.000 Cl
ATOM      8  C   UNL     1       7.655  14.413  22.241  0.00  0.00    +0.000 A 
ATOM      9 CL   UNL     1       8.137  13.764  23.784  0.00  0.00    +0.000 Cl
ATOM     10  C   UNL     1       8.634  14.793  21.297  0.00  0.00    +0.000 A 
ATOM     11 CL   UNL     1      10.296  14.942  21.815  0.00  0.00    +0.000 Cl
ENDROOT
BRANCH   1  19
ATOM     12 CL   UNL     1      11.800  13.366  16.390  0.00  0.00    +0.000 Cl
ATOM     13  C   UNL     1      10.930  14.611  17.208  0.00  0.00    +0.000 A 
ATOM     14  C   UNL     1      11.320  15.918  16.953  0.00  0.00    +0.000 A 
ATOM     15  C   UNL     1      10.734  16.972  17.652  0.00  0.00    +0.000 A 
ATOM     16 CL   UNL     1      11.171  18.579  17.175  0.00  0.00    +0.000 Cl
ATOM     17  C   UNL     1       9.813  16.713  18.686  0.00  0.00    +0.000 A 
ATOM     18 CL   UNL     1       9.308  18.024  19.715  0.00  0.00    +0.000 Cl
ATOM     19  C   UNL     1       9.329  15.391  18.914  0.00  0.00    +0.000 A 
ATOM     20  C   UNL     1       9.892  14.354  18.125  0.00  0.00    +0.000 A 
ATOM     21 CL   UNL     1       9.266  12.725  18.226  0.00  0.00    +0.000 Cl
ENDBRANCH   1  19
TORSDOF 1
ENDMDL
MODEL 3
REMARK VINA RESULT:      -4.9      9.065     10.884
REMARK  Name = 
REMARK  1 active torsions:
REMARK  status: ('A' for Active; 'I' for Inactive)
REMARK    1  A    between atoms: C_8  and  C_9
REMARK                            x       y       z     vdW  Elec       q    Type
REMARK                         _______ _______ _______ _____ _____    ______ ____
ROOT
ATOM      1  C   UNL     1      -1.127  13.401  20.752  0.00  0.00    +0.000 A 
ATOM      2  C   UNL     1      -0.828  14.727  20.341  0.00  0.00    +0.000 A 
ATOM      3 CL   UNL     1      -0.424  15.046  18.671  0.00  0.00    +0.000 Cl
ATOM      4  C   UNL     1      -0.904  15.807  21.245  0.00  0.00    +0.000 A 
ATOM      5 CL   UNL     1      -0.269  17.367  20.794  0.00  0.00    +0.000 Cl
ATOM      6  C   UNL     1      -1.464  15.618  22.517  0.00  0.00    +0.000 A 
ATOM      7 CL   UNL     1      -1.670  16.973  23.593  0.00  0.00    +0.000 Cl
ATOM      8  C   UNL     1      -1.852  14.333  22.920  0.00  0.00    +0.000 A 
ATOM      9 CL   UNL     1      -2.690  14.108  24.431  0.00  0.00    +0.000 Cl
ATOM     10  C   UNL     1      -1.595  13.226  22.082  0.00  0.00    +0.000 A 
ATOM     11 CL   UNL     1      -1.800  11.614  22.724  0.00  0.00    +0.000 Cl
ENDROOT
BRANCH   1  19
ATOM     12 CL   UNL     1      -3.287   9.623  17.724  0.00  0.00    +0.000 Cl
ATOM     13  C   UNL     1      -1.945  10.507  18.352  0.00  0.00    +0.000 A 
ATOM     14  C   UNL     1      -0.680  10.024  18.051  0.00  0.00    +0.000 A 
ATOM     15  C   UNL     1       0.449  10.623  18.606  0.00  0.00    +0.000 A 
ATOM     16 CL   UNL     1       1.994  10.053  18.068  0.00  0.00    +0.000 Cl
ATOM     17  C   UNL     1       0.310  11.661  19.549  0.00  0.00    +0.000 A 
ATOM     18 CL   UNL     1       1.717  12.201  20.421  0.00  0.00    +0.000 Cl
ATOM     19  C   UNL     1      -0.967  12.237  19.814  0.00  0.00    +0.000 A 
ATOM     20  C   UNL     1      -2.085  11.649  19.166  0.00  0.00    +0.000 A 
ATOM     21 CL   UNL     1      -3.671  12.367  19.311  0.00  0.00    +0.000 Cl
ENDBRANCH   1  19
TORSDOF 1
ENDMDL
MODEL 4
REMARK VINA RESULT:      -4.9      9.127     10.919
REMARK  Name = 
REMARK  1 active torsions:
REMARK  status: ('A' for Active; 'I' for Inactive)
REMARK    1  A    between atoms: C_8  and  C_9
REMARK                            x       y       z     vdW  Elec       q    Type
REMARK                         _______ _______ _______ _____ _____    ______ ____
ROOT
ATOM      1  C   UNL     1      -1.125  13.372  20.740  0.00  0.00    +0.000 A 
ATOM      2  C   UNL     1      -0.803  14.689  20.319  0.00  0.00    +0.000 A 
ATOM      3 CL   UNL     1      -0.415  14.993  18.642  0.00  0.00    +0.000 Cl
ATOM      4  C   UNL     1      -0.843  15.775  21.219  0.00  0.00    +0.000 A 
ATOM      5 CL   UNL     1      -0.182  17.319  20.753  0.00  0.00    +0.000 Cl
ATOM      6  C   UNL     1      -1.390  15.603  22.499  0.00  0.00    +0.000 A 
ATOM      7 CL   UNL     1      -1.552  16.966  23.573  0.00  0.00    +0.000 Cl
ATOM      8  C   UNL     1      -1.799  14.328  22.914  0.00  0.00    +0.000 A 
ATOM      9 CL   UNL     1      -2.621  14.127  24.436  0.00  0.00    +0.000 Cl
ATOM     10  C   UNL     1      -1.578  13.212  22.077  0.00  0.00    +0.000 A 
ATOM     11 CL   UNL     1      -1.809  11.608  22.729  0.00  0.00    +0.000 Cl
ENDROOT
BRANCH   1  19
ATOM     12 CL   UNL     1       1.901   9.975  18.017  0.00  0.00    +0.000 Cl
ATOM     13  C   UNL     1       0.380  10.571  18.573  0.00  0.00    +0.000 A 
ATOM     14  C   UNL     1      -0.757   9.997  18.024  0.00  0.00    +0.000 A 
ATOM     15  C   UNL     1      -2.018  10.495  18.346  0.00  0.00    +0.000 A 
ATOM     16 CL   UNL     1      -3.391   9.633  17.733  0.00  0.00    +0.000 Cl
ATOM     17  C   UNL     1      -2.143  11.641  19.156  0.00  0.00    +0.000 A 
ATOM     18 CL   UNL     1      -3.704  12.393  19.317  0.00  0.00    +0.000 Cl
ATOM     19  C   UNL     1      -1.003  12.201  19.804  0.00  0.00    +0.000 A 
ATOM     20  C   UNL     1       0.257  11.614  19.512  0.00  0.00    +0.000 A 
ATOM     21 CL   UNL     1       1.693  12.133  20.362  0.00  0.00    +0.000 Cl
ENDBRANCH   1  19
TORSDOF 1
ENDMDL
MODEL 5
REMARK VINA RESULT:      -4.9      9.089     10.798
REMARK  Name = 
REMARK  1 active torsions:
REMARK  status: ('A' for Active; 'I' for Inactive)
REMARK    1  A    between atoms: C_8  and  C_9
REMARK                            x       y       z     vdW  Elec       q    Type
REMARK                         _______ _______ _______ _____ _____    ______ ____
ROOT
ATOM      1  C   UNL     1      -1.170  13.406  20.714  0.00  0.00    +0.000 A 
ATOM      2  C   UNL     1      -1.650  13.232  22.039  0.00  0.00    +0.000 A 
ATOM      3 CL   UNL     1      -1.897  11.619  22.666  0.00  0.00    +0.000 Cl
ATOM      4  C   UNL     1      -1.883  14.337  22.883  0.00  0.00    +0.000 A 
ATOM      5 CL   UNL     1      -2.728  14.119  24.392  0.00  0.00    +0.000 Cl
ATOM      6  C   UNL     1      -1.459  15.617  22.496  0.00  0.00    +0.000 A 
ATOM      7 CL   UNL     1      -1.635  16.966  23.584  0.00  0.00    +0.000 Cl
ATOM      8  C   UNL     1      -0.898  15.806  21.224  0.00  0.00    +0.000 A 
ATOM      9 CL   UNL     1      -0.226  17.353  20.789  0.00  0.00    +0.000 Cl
ATOM     10  C   UNL     1      -0.846  14.729  20.312  0.00  0.00    +0.000 A 
ATOM     11 CL   UNL     1      -0.434  15.053  18.645  0.00  0.00    +0.000 Cl
ENDROOT
BRANCH   1  19
ATOM     12 CL   UNL     1      -3.299   9.602  17.696  0.00  0.00    +0.000 Cl
ATOM     13  C   UNL     1      -1.964  10.495  18.327  0.00  0.00    +0.000 A 
ATOM     14  C   UNL     1      -0.695  10.014  18.037  0.00  0.00    +0.000 A 
ATOM     15  C   UNL     1       0.428  10.620  18.595  0.00  0.00    +0.000 A 
ATOM     16 CL   UNL     1       1.979  10.052  18.070  0.00  0.00    +0.000 Cl
ATOM     17  C   UNL     1       0.281  11.663  19.530  0.00  0.00    +0.000 A 
ATOM     18 CL   UNL     1       1.680  12.214  20.408  0.00  0.00    +0.000 Cl
ATOM     19  C   UNL     1      -1.000  12.236  19.784  0.00  0.00    +0.000 A 
ATOM     20  C   UNL     1      -2.112  11.640  19.133  0.00  0.00    +0.000 A 
ATOM     21 CL   UNL     1      -3.702  12.355  19.265  0.00  0.00    +0.000 Cl
ENDBRANCH   1  19
TORSDOF 1
ENDMDL
MODEL 6
REMARK VINA RESULT:      -4.8      6.049      8.356
REMARK  Name = 
REMARK  1 active torsions:
REMARK  status: ('A' for Active; 'I' for Inactive)
REMARK    1  A    between atoms: C_8  and  C_9
REMARK                            x       y       z     vdW  Elec       q    Type
REMARK                         _______ _______ _______ _____ _____    ______ ____
ROOT
ATOM      1  C   UNL     1       1.233  13.276  20.211  0.00  0.00    +0.000 A 
ATOM      2  C   UNL     1       1.540  12.215  19.319  0.00  0.00    +0.000 A 
ATOM      3 CL   UNL     1       2.715  12.463  18.049  0.00  0.00    +0.000 Cl
ATOM      4  C   UNL     1       0.956  10.940  19.470  0.00  0.00    +0.000 A 
ATOM      5 CL   UNL     1       1.131   9.746  18.212  0.00  0.00    +0.000 Cl
ATOM      6  C   UNL     1       0.209  10.644  20.620  0.00  0.00    +0.000 A 
ATOM      7 CL   UNL     1      -0.415   9.036  20.869  0.00  0.00    +0.000 Cl
ATOM      8  C   UNL     1      -0.038  11.650  21.565  0.00  0.00    +0.000 A 
ATOM      9 CL   UNL     1      -0.827  11.260  23.068  0.00  0.00    +0.000 Cl
ATOM     10  C   UNL     1       0.388  12.972  21.312  0.00  0.00    +0.000 A 
ATOM     11 CL   UNL     1      -0.191  14.258  22.342  0.00  0.00    +0.000 Cl
ENDROOT
BRANCH   1  19
ATOM     12 CL   UNL     1       4.771  17.026  21.447  0.00  0.00    +0.000 Cl
ATOM     13  C   UNL     1       3.460  16.398  20.518  0.00  0.00    +0.000 A 
ATOM     14  C   UNL     1       2.844  17.273  19.634  0.00  0.00    +0.000 A 
ATOM     15  C   UNL     1       1.715  16.870  18.924  0.00  0.00    +0.000 A 
ATOM     16 CL   UNL     1       1.091  17.968  17.736  0.00  0.00    +0.000 Cl
ATOM     17  C   UNL     1       1.135  15.610  19.168  0.00  0.00    +0.000 A 
ATOM     18 CL   UNL     1      -0.419  15.246  18.471  0.00  0.00    +0.000 Cl
ATOM     19  C   UNL     1       1.790  14.658  20.003  0.00  0.00    +0.000 A 
ATOM     20  C   UNL     1       2.983  15.079  20.647  0.00  0.00    +0.000 A 
ATOM     21 CL   UNL     1       3.937  13.946  21.575  0.00  0.00    +0.000 Cl
ENDBRANCH   1  19
TORSDOF 1
ENDMDL
MODEL 7
REMARK VINA RESULT:      -4.8      9.086     10.813
REMARK  Name = 
REMARK  1 active torsions:
REMARK  status: ('A' for Active; 'I' for Inactive)
REMARK    1  A    between atoms: C_8  and  C_9
REMARK                            x       y       z     vdW  Elec       q    Type
REMARK                         _______ _______ _______ _____ _____    ______ ____
ROOT
ATOM      1  C   UNL     1      -1.184  13.432  20.730  0.00  0.00    +0.000 A 
ATOM      2  C   UNL     1      -1.666  13.266  22.056  0.00  0.00    +0.000 A 
ATOM      3 CL   UNL     1      -1.916  11.657  22.691  0.00  0.00    +0.000 Cl
ATOM      4  C   UNL     1      -1.896  14.376  22.895  0.00  0.00    +0.000 A 
ATOM      5 CL   UNL     1      -2.742  14.168  24.404  0.00  0.00    +0.000 Cl
ATOM      6  C   UNL     1      -1.469  15.653  22.500  0.00  0.00    +0.000 A 
ATOM      7 CL   UNL     1      -1.642  17.008  23.582  0.00  0.00    +0.000 Cl
ATOM      8  C   UNL     1      -0.907  15.834  21.228  0.00  0.00    +0.000 A 
ATOM      9 CL   UNL     1      -0.231  17.377  20.785  0.00  0.00    +0.000 Cl
ATOM     10  C   UNL     1      -0.857  14.753  20.322  0.00  0.00    +0.000 A 
ATOM     11 CL   UNL     1      -0.443  15.067  18.654  0.00  0.00    +0.000 Cl
ENDROOT
BRANCH   1  19
ATOM     12 CL   UNL     1       1.972  10.094  18.084  0.00  0.00    +0.000 Cl
ATOM     13  C   UNL     1       0.428  10.655  18.611  0.00  0.00    +0.000 A 
ATOM     14  C   UNL     1      -0.685  10.048  18.047  0.00  0.00    +0.000 A 
ATOM     15  C   UNL     1      -1.964  10.515  18.346  0.00  0.00    +0.000 A 
ATOM     16 CL   UNL     1      -3.304   9.614  17.717  0.00  0.00    +0.000 Cl
ATOM     17  C   UNL     1      -2.131  11.664  19.144  0.00  0.00    +0.000 A 
ATOM     18 CL   UNL     1      -3.714  12.376  19.274  0.00  0.00    +0.000 Cl
ATOM     19  C   UNL     1      -1.017  12.257  19.806  0.00  0.00    +0.000 A 
ATOM     20  C   UNL     1       0.262  11.701  19.539  0.00  0.00    +0.000 A 
ATOM     21 CL   UNL     1       1.670  12.263  20.408  0.00  0.00    +0.000 Cl
ENDBRANCH   1  19
TORSDOF 1
ENDMDL
MODEL 8
REMARK VINA RESULT:      -4.8      6.075      8.260
REMARK  Name = 
REMARK  1 active torsions:
REMARK  status: ('A' for Active; 'I' for Inactive)
REMARK    1  A    between atoms: C_8  and  C_9
REMARK                            x       y       z     vdW  Elec       q    Type
REMARK                         _______ _______ _______ _____ _____    ______ ____
ROOT
ATOM      1  C   UNL     1       1.277  13.413  20.264  0.00  0.00    +0.000 A 
ATOM      2  C   UNL     1       0.403  13.085  21.333  0.00  0.00    +0.000 A 
ATOM      3 CL   UNL     1      -0.195  14.348  22.383  0.00  0.00    +0.000 Cl
ATOM      4  C   UNL     1      -0.039  11.761  21.536  0.00  0.00    +0.000 A 
ATOM      5 CL   UNL     1      -0.878  11.337  23.004  0.00  0.00    +0.000 Cl
ATOM      6  C   UNL     1       0.222  10.779  20.569  0.00  0.00    +0.000 A 
ATOM      7 CL   UNL     1      -0.423   9.172  20.756  0.00  0.00    +0.000 Cl
ATOM      8  C   UNL     1       1.011  11.097  19.454  0.00  0.00    +0.000 A 
ATOM      9 CL   UNL     1       1.213   9.937  18.170  0.00  0.00    +0.000 Cl
ATOM     10  C   UNL     1       1.609  12.372  19.356  0.00  0.00    +0.000 A 
ATOM     11 CL   UNL     1       2.824  12.644  18.130  0.00  0.00    +0.000 Cl
ENDROOT
BRANCH   1  19
ATOM     12 CL   UNL     1       4.777  17.168  21.591  0.00  0.00    +0.000 Cl
ATOM     13  C   UNL     1       3.468  16.552  20.651  0.00  0.00    +0.000 A 
ATOM     14  C   UNL     1       2.836  17.445  19.796  0.00  0.00    +0.000 A 
ATOM     15  C   UNL     1       1.708  17.049  19.081  0.00  0.00    +0.000 A 
ATOM     16 CL   UNL     1       1.065  18.174  17.929  0.00  0.00    +0.000 Cl
ATOM     17  C   UNL     1       1.145  15.775  19.291  0.00  0.00    +0.000 A 
ATOM     18 CL   UNL     1      -0.408  15.414  18.592  0.00  0.00    +0.000 Cl
ATOM     19  C   UNL     1       1.816  14.807  20.094  0.00  0.00    +0.000 A 
ATOM     20  C   UNL     1       3.008  15.224  20.743  0.00  0.00    +0.000 A 
ATOM     21 CL   UNL     1       3.980  14.076  21.632  0.00  0.00    +0.000 Cl
ENDBRANCH   1  19
TORSDOF 1
ENDMDL
MODEL 9
REMARK VINA RESULT:      -4.8      6.067      8.193
REMARK  Name = 
REMARK  1 active torsions:
REMARK  status: ('A' for Active; 'I' for Inactive)
REMARK    1  A    between atoms: C_8  and  C_9
REMARK                            x       y       z     vdW  Elec       q    Type
REMARK                         _______ _______ _______ _____ _____    ______ ____
ROOT
ATOM      1  C   UNL     1       1.278  13.405  20.268  0.00  0.00    +0.000 A 
ATOM      2  C   UNL     1       0.405  13.071  21.337  0.00  0.00    +0.000 A 
ATOM      3 CL   UNL     1      -0.192  14.329  22.394  0.00  0.00    +0.000 Cl
ATOM      4  C   UNL     1      -0.036  11.746  21.534  0.00  0.00    +0.000 A 
ATOM      5 CL   UNL     1      -0.874  11.314  23.000  0.00  0.00    +0.000 Cl
ATOM      6  C   UNL     1       0.224  10.769  20.561  0.00  0.00    +0.000 A 
ATOM      7 CL   UNL     1      -0.421   9.160  20.741  0.00  0.00    +0.000 Cl
ATOM      8  C   UNL     1       1.011  11.092  19.447  0.00  0.00    +0.000 A 
ATOM      9 CL   UNL     1       1.212   9.939  18.157  0.00  0.00    +0.000 Cl
ATOM     10  C   UNL     1       1.609  12.368  19.355  0.00  0.00    +0.000 A 
ATOM     11 CL   UNL     1       2.823  12.646  18.130  0.00  0.00    +0.000 Cl
ENDROOT
BRANCH   1  19
ATOM     12 CL   UNL     1       1.059  18.160  17.934  0.00  0.00    +0.000 Cl
ATOM     13  C   UNL     1       1.701  17.039  19.078  0.00  0.00    +0.000 A 
ATOM     14  C   UNL     1       2.834  17.434  19.775  0.00  0.00    +0.000 A 
ATOM     15  C   UNL     1       3.469  16.546  20.640  0.00  0.00    +0.000 A 
ATOM     16 CL   UNL     1       4.788  17.161  21.580  0.00  0.00    +0.000 Cl
ATOM     17  C   UNL     1       3.025  15.213  20.740  0.00  0.00    +0.000 A 
ATOM     18 CL   UNL     1       3.996  14.063  21.615  0.00  0.00    +0.000 Cl
ATOM     19  C   UNL     1       1.817  14.800  20.106  0.00  0.00    +0.000 A 
ATOM     20  C   UNL     1       1.154  15.759  19.296  0.00  0.00    +0.000 A 
ATOM     21 CL   UNL     1      -0.404  15.399  18.592  0.00  0.00    +0.000 Cl
ENDBRANCH   1  19
TORSDOF 1
ENDMDL
