MODEL 1
REMARK VINA RESULT:      -8.1      0.000      0.000
REMARK  Name = 
REMARK  10 active torsions:
REMARK  status: ('A' for Active; 'I' for Inactive)
REMARK    1  A    between atoms: C_1  and  O_2
REMARK    2  A    between atoms: O_2  and  C_3
REMARK    3  A    between atoms: C_7  and  C_8
REMARK    4  A    between atoms: C_8  and  N_9
REMARK    5  A    between atoms: N_9  and  C_10
REMARK    6  A    between atoms: C_10  and  C_11
REMARK    7  A    between atoms: C_11  and  C_12
REMARK    8  A    between atoms: C_11  and  C_13
REMARK    9  A    between atoms: C_14  and  C_16
REMARK   10  A    between atoms: C_16  and  N_17
REMARK                            x       y       z     vdW  Elec       q    Type
REMARK                         _______ _______ _______ _____ _____    ______ ____
ROOT
ATOM      1  N   UNL     1       5.656   5.185  16.840  0.00  0.00    +0.000 N 
ATOM      2  C   UNL     1       4.385   4.623  17.043  0.00  0.00    +0.000 C 
ATOM      3  O   UNL     1       4.066   3.569  16.484  0.00  0.00    +0.000 OA
ENDROOT
BRANCH   1   4
ATOM      4  C   UNL     1       6.613   4.441  16.005  0.00  0.00    +0.000 C 
BRANCH   4   9
ATOM      5  C   UNL     1       6.086   3.311  12.375  0.00  0.00    +0.000 A 
ATOM      6  C   UNL     1       7.086   4.061  11.750  0.00  0.00    +0.000 A 
ATOM      7  C   UNL     1       7.778   5.049  12.443  0.00  0.00    +0.000 A 
ATOM      8  C   UNL     1       7.514   5.266  13.795  0.00  0.00    +0.000 A 
ATOM      9  C   UNL     1       6.562   4.492  14.478  0.00  0.00    +0.000 A 
ATOM     10  C   UNL     1       5.803   3.550  13.730  0.00  0.00    +0.000 A 
BRANCH   5  12
ATOM     11  C   UNL     1       6.323   1.265  11.090  0.00  0.00    +0.000 C 
ATOM     12  O   UNL     1       5.558   2.365  11.546  0.00  0.00    +0.000 OA
ENDBRANCH   5  12
ENDBRANCH   4   9
ENDBRANCH   1   4
BRANCH   1  13
ATOM     13  C   UNL     1       5.995   6.553  17.259  0.00  0.00    +0.000 C 
BRANCH  13  14
ATOM     14  C   UNL     1       7.455   6.895  17.665  0.00  0.00    +0.000 C 
ATOM     15  C   UNL     1       7.774   8.390  17.663  0.00  0.00    +0.000 C 
ATOM     16  C   UNL     1       7.938   6.236  18.956  0.00  0.00    +0.000 C 
ENDBRANCH  13  14
ENDBRANCH   1  13
BRANCH   2  17
ATOM     17  C   UNL     1       3.354   5.329  17.961  0.00  0.00    +0.000 C 
BRANCH  17  18
ATOM     18  N   UNL     1       2.687   4.418  18.902  0.00  0.00    +0.000 N 
ATOM     19  C   UNL     1       3.441   3.813  19.900  0.00  0.00    +0.000 C 
ATOM     20  O   UNL     1       4.655   3.984  20.036  0.00  0.00    +0.000 OA
ATOM     21  C   UNL     1       2.742   2.825  20.807  0.00  0.00    +0.000 C 
ATOM     22  C   UNL     1       1.263   3.098  20.819  0.00  0.00    +0.000 C 
ATOM     23  N   UNL     1       0.799   3.172  19.466  0.00  0.00    +0.000 N 
ATOM     24  C   UNL     1       1.447   3.929  18.530  0.00  0.00    +0.000 C 
ATOM     25  O   UNL     1       0.920   4.093  17.436  0.00  0.00    +0.000 OA
ATOM     26  H   UNL     1      -0.147   2.915  19.216  0.00  0.00    +0.000 HD
ENDBRANCH  17  18
ENDBRANCH   2  17
TORSDOF 7
ENDMDL
MODEL 2
REMARK VINA RESULT:      -7.7      0.848      1.728
REMARK  Name = 
REMARK  10 active torsions:
REMARK  status: ('A' for Active; 'I' for Inactive)
REMARK    1  A    between atoms: C_1  and  O_2
REMARK    2  A    between atoms: O_2  and  C_3
REMARK    3  A    between atoms: C_7  and  C_8
REMARK    4  A    between atoms: C_8  and  N_9
REMARK    5  A    between atoms: N_9  and  C_10
REMARK    6  A    between atoms: C_10  and  C_11
REMARK    7  A    between atoms: C_11  and  C_12
REMARK    8  A    between atoms: C_11  and  C_13
REMARK    9  A    between atoms: C_14  and  C_16
REMARK   10  A    between atoms: C_16  and  N_17
REMARK                            x       y       z     vdW  Elec       q    Type
REMARK                         _______ _______ _______ _____ _____    ______ ____
ROOT
ATOM      1  N   UNL     1       5.680   5.264  16.760  0.00  0.00    +0.000 N 
ATOM      2  C   UNL     1       4.424   4.674  16.972  0.00  0.00    +0.000 C 
ATOM      3  O   UNL     1       4.124   3.613  16.413  0.00  0.00    +0.000 OA
ENDROOT
BRANCH   1   4
ATOM      4  C   UNL     1       6.648   4.543  15.918  0.00  0.00    +0.000 C 
BRANCH   4   9
ATOM      5  C   UNL     1       5.862   3.469  12.318  0.00  0.00    +0.000 A 
ATOM      6  C   UNL     1       6.962   4.028  11.663  0.00  0.00    +0.000 A 
ATOM      7  C   UNL     1       7.827   4.893  12.326  0.00  0.00    +0.000 A 
ATOM      8  C   UNL     1       7.631   5.171  13.679  0.00  0.00    +0.000 A 
ATOM      9  C   UNL     1       6.575   4.580  14.391  0.00  0.00    +0.000 A 
ATOM     10  C   UNL     1       5.651   3.772  13.673  0.00  0.00    +0.000 A 
BRANCH   5  12
ATOM     11  C   UNL     1       3.869   2.932  11.039  0.00  0.00    +0.000 C 
ATOM     12  O   UNL     1       5.164   2.616  11.515  0.00  0.00    +0.000 OA
ENDBRANCH   5  12
ENDBRANCH   4   9
ENDBRANCH   1   4
BRANCH   1  13
ATOM     13  C   UNL     1       5.991   6.638  17.179  0.00  0.00    +0.000 C 
BRANCH  13  14
ATOM     14  C   UNL     1       7.435   7.000  17.627  0.00  0.00    +0.000 C 
ATOM     15  C   UNL     1       7.720   8.501  17.677  0.00  0.00    +0.000 C 
ATOM     16  C   UNL     1       7.904   6.312  18.908  0.00  0.00    +0.000 C 
ENDBRANCH  13  14
ENDBRANCH   1  13
BRANCH   2  17
ATOM     17  C   UNL     1       3.383   5.355  17.897  0.00  0.00    +0.000 C 
BRANCH  17  18
ATOM     18  N   UNL     1       2.641   4.408  18.741  0.00  0.00    +0.000 N 
ATOM     19  C   UNL     1       1.437   3.893  18.276  0.00  0.00    +0.000 C 
ATOM     20  O   UNL     1       0.939   4.199  17.190  0.00  0.00    +0.000 OA
ATOM     21  C   UNL     1       0.662   2.978  19.199  0.00  0.00    +0.000 C 
ATOM     22  C   UNL     1       1.592   2.359  20.206  0.00  0.00    +0.000 C 
ATOM     23  N   UNL     1       2.357   3.400  20.824  0.00  0.00    +0.000 N 
ATOM     24  C   UNL     1       2.982   4.363  20.082  0.00  0.00    +0.000 C 
ATOM     25  O   UNL     1       3.758   5.128  20.642  0.00  0.00    +0.000 OA
ATOM     26  H   UNL     1       2.697   3.314  21.773  0.00  0.00    +0.000 HD
ENDBRANCH  17  18
ENDBRANCH   2  17
TORSDOF 7
ENDMDL
MODEL 3
REMARK VINA RESULT:      -7.6      3.789      8.372
REMARK  Name = 
REMARK  10 active torsions:
REMARK  status: ('A' for Active; 'I' for Inactive)
REMARK    1  A    between atoms: C_1  and  O_2
REMARK    2  A    between atoms: O_2  and  C_3
REMARK    3  A    between atoms: C_7  and  C_8
REMARK    4  A    between atoms: C_8  and  N_9
REMARK    5  A    between atoms: N_9  and  C_10
REMARK    6  A    between atoms: C_10  and  C_11
REMARK    7  A    between atoms: C_11  and  C_12
REMARK    8  A    between atoms: C_11  and  C_13
REMARK    9  A    between atoms: C_14  and  C_16
REMARK   10  A    between atoms: C_16  and  N_17
REMARK                            x       y       z     vdW  Elec       q    Type
REMARK                         _______ _______ _______ _____ _____    ______ ____
ROOT
ATOM      1  N   UNL     1       3.002   6.004  19.215  0.00  0.00    +0.000 N 
ATOM      2  C   UNL     1       4.023   6.315  18.304  0.00  0.00    +0.000 C 
ATOM      3  O   UNL     1       3.855   7.186  17.443  0.00  0.00    +0.000 OA
ENDROOT
BRANCH   1   4
ATOM      4  C   UNL     1       1.762   6.796  19.160  0.00  0.00    +0.000 C 
BRANCH   4   9
ATOM      5  C   UNL     1       0.938   9.651  21.588  0.00  0.00    +0.000 A 
ATOM      6  C   UNL     1       0.733  10.686  20.670  0.00  0.00    +0.000 A 
ATOM      7  C   UNL     1       1.046  10.521  19.325  0.00  0.00    +0.000 A 
ATOM      8  C   UNL     1       1.521   9.292  18.865  0.00  0.00    +0.000 A 
ATOM      9  C   UNL     1       1.680   8.207  19.743  0.00  0.00    +0.000 A 
ATOM     10  C   UNL     1       1.441   8.424  21.128  0.00  0.00    +0.000 A 
BRANCH   5  12
ATOM     11  C   UNL     1      -0.839  10.153  23.164  0.00  0.00    +0.000 C 
ATOM     12  O   UNL     1       0.530   9.991  22.845  0.00  0.00    +0.000 OA
ENDBRANCH   5  12
ENDBRANCH   4   9
ENDBRANCH   1   4
BRANCH   1  13
ATOM     13  C   UNL     1       3.044   4.814  20.077  0.00  0.00    +0.000 C 
BRANCH  13  14
ATOM     14  C   UNL     1       1.741   4.014  20.351  0.00  0.00    +0.000 C 
ATOM     15  C   UNL     1       1.246   3.191  19.162  0.00  0.00    +0.000 C 
ATOM     16  C   UNL     1       1.756   3.173  21.627  0.00  0.00    +0.000 C 
ENDBRANCH  13  14
ENDBRANCH   1  13
BRANCH   2  17
ATOM     17  C   UNL     1       5.375   5.557  18.350  0.00  0.00    +0.000 C 
BRANCH  17  18
ATOM     18  N   UNL     1       5.889   5.194  17.022  0.00  0.00    +0.000 N 
ATOM     19  C   UNL     1       5.393   4.057  16.396  0.00  0.00    +0.000 C 
ATOM     20  O   UNL     1       4.547   3.315  16.902  0.00  0.00    +0.000 OA
ATOM     21  C   UNL     1       5.995   3.670  15.064  0.00  0.00    +0.000 C 
ATOM     22  C   UNL     1       6.611   4.877  14.410  0.00  0.00    +0.000 C 
ATOM     23  N   UNL     1       7.483   5.513  15.351  0.00  0.00    +0.000 N 
ATOM     24  C   UNL     1       7.081   5.779  16.630  0.00  0.00    +0.000 C 
ATOM     25  O   UNL     1       7.798   6.470  17.342  0.00  0.00    +0.000 OA
ATOM     26  H   UNL     1       8.297   6.032  15.050  0.00  0.00    +0.000 HD
ENDBRANCH  17  18
ENDBRANCH   2  17
TORSDOF 7
ENDMDL
MODEL 4
REMARK VINA RESULT:      -7.6      1.100      1.641
REMARK  Name = 
REMARK  10 active torsions:
REMARK  status: ('A' for Active; 'I' for Inactive)
REMARK    1  A    between atoms: C_1  and  O_2
REMARK    2  A    between atoms: O_2  and  C_3
REMARK    3  A    between atoms: C_7  and  C_8
REMARK    4  A    between atoms: C_8  and  N_9
REMARK    5  A    between atoms: N_9  and  C_10
REMARK    6  A    between atoms: C_10  and  C_11
REMARK    7  A    between atoms: C_11  and  C_12
REMARK    8  A    between atoms: C_11  and  C_13
REMARK    9  A    between atoms: C_14  and  C_16
REMARK   10  A    between atoms: C_16  and  N_17
REMARK                            x       y       z     vdW  Elec       q    Type
REMARK                         _______ _______ _______ _____ _____    ______ ____
ROOT
ATOM      1  N   UNL     1       4.963   4.771  17.029  0.00  0.00    +0.000 N 
ATOM      2  C   UNL     1       3.609   4.404  16.990  0.00  0.00    +0.000 C 
ATOM      3  O   UNL     1       3.226   3.483  16.262  0.00  0.00    +0.000 OA
ENDROOT
BRANCH   1   4
ATOM      4  C   UNL     1       5.916   3.976  16.236  0.00  0.00    +0.000 C 
BRANCH   4   9
ATOM      5  C   UNL     1       5.993   3.349  12.451  0.00  0.00    +0.000 A 
ATOM      6  C   UNL     1       7.104   4.125  12.108  0.00  0.00    +0.000 A 
ATOM      7  C   UNL     1       7.690   4.982  13.034  0.00  0.00    +0.000 A 
ATOM      8  C   UNL     1       7.203   5.036  14.340  0.00  0.00    +0.000 A 
ATOM      9  C   UNL     1       6.129   4.226  14.743  0.00  0.00    +0.000 A 
ATOM     10  C   UNL     1       5.487   3.425  13.759  0.00  0.00    +0.000 A 
BRANCH   5  12
ATOM     11  C   UNL     1       6.194   1.284  11.190  0.00  0.00    +0.000 C 
ATOM     12  O   UNL     1       5.593   2.543  11.425  0.00  0.00    +0.000 OA
ENDBRANCH   5  12
ENDBRANCH   4   9
ENDBRANCH   1   4
BRANCH   1  13
ATOM     13  C   UNL     1       5.431   6.012  17.662  0.00  0.00    +0.000 C 
BRANCH  13  14
ATOM     14  C   UNL     1       6.955   6.292  17.779  0.00  0.00    +0.000 C 
ATOM     15  C   UNL     1       7.357   7.729  17.450  0.00  0.00    +0.000 C 
ATOM     16  C   UNL     1       7.598   5.831  19.086  0.00  0.00    +0.000 C 
ENDBRANCH  13  14
ENDBRANCH   1  13
BRANCH   2  17
ATOM     17  C   UNL     1       2.565   5.165  17.849  0.00  0.00    +0.000 C 
BRANCH  17  18
ATOM     18  N   UNL     1       2.309   4.535  19.152  0.00  0.00    +0.000 N 
ATOM     19  C   UNL     1       1.479   3.422  19.209  0.00  0.00    +0.000 C 
ATOM     20  O   UNL     1       0.924   2.934  18.221  0.00  0.00    +0.000 OA
ATOM     21  C   UNL     1       1.175   2.843  20.573  0.00  0.00    +0.000 C 
ATOM     22  C   UNL     1       2.258   3.225  21.544  0.00  0.00    +0.000 C 
ATOM     23  N   UNL     1       2.456   4.642  21.476  0.00  0.00    +0.000 N 
ATOM     24  C   UNL     1       2.599   5.285  20.278  0.00  0.00    +0.000 C 
ATOM     25  O   UNL     1       2.931   6.464  20.278  0.00  0.00    +0.000 OA
ATOM     26  H   UNL     1       2.773   5.171  22.277  0.00  0.00    +0.000 HD
ENDBRANCH  17  18
ENDBRANCH   2  17
TORSDOF 7
ENDMDL
MODEL 5
REMARK VINA RESULT:      -7.5      3.175      7.819
REMARK  Name = 
REMARK  10 active torsions:
REMARK  status: ('A' for Active; 'I' for Inactive)
REMARK    1  A    between atoms: C_1  and  O_2
REMARK    2  A    between atoms: O_2  and  C_3
REMARK    3  A    between atoms: C_7  and  C_8
REMARK    4  A    between atoms: C_8  and  N_9
REMARK    5  A    between atoms: N_9  and  C_10
REMARK    6  A    between atoms: C_10  and  C_11
REMARK    7  A    between atoms: C_11  and  C_12
REMARK    8  A    between atoms: C_11  and  C_13
REMARK    9  A    between atoms: C_14  and  C_16
REMARK   10  A    between atoms: C_16  and  N_17
REMARK                            x       y       z     vdW  Elec       q    Type
REMARK                         _______ _______ _______ _____ _____    ______ ____
ROOT
ATOM      1  N   UNL     1       3.087   5.002  19.532  0.00  0.00    +0.000 N 
ATOM      2  C   UNL     1       4.481   5.000  19.361  0.00  0.00    +0.000 C 
ATOM      3  O   UNL     1       5.170   5.925  19.804  0.00  0.00    +0.000 OA
ENDROOT
BRANCH   1   4
ATOM      4  C   UNL     1       2.490   6.094  20.318  0.00  0.00    +0.000 C 
BRANCH   4   9
ATOM      5  C   UNL     1       0.848   9.512  19.724  0.00  0.00    +0.000 A 
ATOM      6  C   UNL     1       1.031   9.621  18.342  0.00  0.00    +0.000 A 
ATOM      7  C   UNL     1       1.833   8.717  17.653  0.00  0.00    +0.000 A 
ATOM      8  C   UNL     1       2.425   7.652  18.332  0.00  0.00    +0.000 A 
ATOM      9  C   UNL     1       2.215   7.469  19.709  0.00  0.00    +0.000 A 
ATOM     10  C   UNL     1       1.467   8.455  20.410  0.00  0.00    +0.000 A 
BRANCH   5  12
ATOM     11  C   UNL     1      -0.217  10.635  21.594  0.00  0.00    +0.000 C 
ATOM     12  O   UNL     1      -0.005  10.461  20.206  0.00  0.00    +0.000 OA
ENDBRANCH   5  12
ENDBRANCH   4   9
ENDBRANCH   1   4
BRANCH   1  13
ATOM     13  C   UNL     1       2.198   4.081  18.809  0.00  0.00    +0.000 C 
BRANCH  13  14
ATOM     14  C   UNL     1       1.117   3.282  19.587  0.00  0.00    +0.000 C 
ATOM     15  C   UNL     1       0.502   2.125  18.800  0.00  0.00    +0.000 C 
ATOM     16  C   UNL     1       1.532   2.829  20.987  0.00  0.00    +0.000 C 
ENDBRANCH  13  14
ENDBRANCH   1  13
BRANCH   2  17
ATOM     17  C   UNL     1       5.175   3.846  18.594  0.00  0.00    +0.000 C 
BRANCH  17  18
ATOM     18  N   UNL     1       5.731   4.256  17.296  0.00  0.00    +0.000 N 
ATOM     19  C   UNL     1       4.997   4.009  16.143  0.00  0.00    +0.000 C 
ATOM     20  O   UNL     1       3.900   3.446  16.140  0.00  0.00    +0.000 OA
ATOM     21  C   UNL     1       5.628   4.376  14.818  0.00  0.00    +0.000 C 
ATOM     22  C   UNL     1       6.676   5.435  15.025  0.00  0.00    +0.000 C 
ATOM     23  N   UNL     1       7.563   5.006  16.065  0.00  0.00    +0.000 N 
ATOM     24  C   UNL     1       7.089   4.523  17.252  0.00  0.00    +0.000 C 
ATOM     25  O   UNL     1       7.879   4.327  18.167  0.00  0.00    +0.000 OA
ATOM     26  H   UNL     1       8.532   5.294  16.086  0.00  0.00    +0.000 HD
ENDBRANCH  17  18
ENDBRANCH   2  17
TORSDOF 7
ENDMDL
MODEL 6
REMARK VINA RESULT:      -7.4      0.713      1.041
REMARK  Name = 
REMARK  10 active torsions:
REMARK  status: ('A' for Active; 'I' for Inactive)
REMARK    1  A    between atoms: C_1  and  O_2
REMARK    2  A    between atoms: O_2  and  C_3
REMARK    3  A    between atoms: C_7  and  C_8
REMARK    4  A    between atoms: C_8  and  N_9
REMARK    5  A    between atoms: N_9  and  C_10
REMARK    6  A    between atoms: C_10  and  C_11
REMARK    7  A    between atoms: C_11  and  C_12
REMARK    8  A    between atoms: C_11  and  C_13
REMARK    9  A    between atoms: C_14  and  C_16
REMARK   10  A    between atoms: C_16  and  N_17
REMARK                            x       y       z     vdW  Elec       q    Type
REMARK                         _______ _______ _______ _____ _____    ______ ____
ROOT
ATOM      1  N   UNL     1       5.964   5.104  16.857  0.00  0.00    +0.000 N 
ATOM      2  C   UNL     1       4.862   4.445  17.426  0.00  0.00    +0.000 C 
ATOM      3  O   UNL     1       4.577   3.291  17.091  0.00  0.00    +0.000 OA
ENDROOT
BRANCH   1   4
ATOM      4  C   UNL     1       6.806   4.350  15.913  0.00  0.00    +0.000 C 
BRANCH   4   9
ATOM      5  C   UNL     1       5.838   3.432  12.315  0.00  0.00    +0.000 A 
ATOM      6  C   UNL     1       6.857   4.094  11.623  0.00  0.00    +0.000 A 
ATOM      7  C   UNL     1       7.713   4.973  12.280  0.00  0.00    +0.000 A 
ATOM      8  C   UNL     1       7.595   5.163  13.657  0.00  0.00    +0.000 A 
ATOM      9  C   UNL     1       6.626   4.468  14.400  0.00  0.00    +0.000 A 
ATOM     10  C   UNL     1       5.704   3.645  13.696  0.00  0.00    +0.000 A 
BRANCH   5  12
ATOM     11  C   UNL     1       3.862   2.924  10.998  0.00  0.00    +0.000 C 
ATOM     12  O   UNL     1       5.138   2.583  11.509  0.00  0.00    +0.000 OA
ENDBRANCH   5  12
ENDBRANCH   4   9
ENDBRANCH   1   4
BRANCH   1  13
ATOM     13  C   UNL     1       6.193   6.547  17.014  0.00  0.00    +0.000 C 
BRANCH  13  14
ATOM     14  C   UNL     1       7.123   7.062  18.148  0.00  0.00    +0.000 C 
ATOM     15  C   UNL     1       7.932   5.968  18.843  0.00  0.00    +0.000 C 
ATOM     16  C   UNL     1       8.015   8.242  17.764  0.00  0.00    +0.000 C 
ENDBRANCH  13  14
ENDBRANCH   1  13
BRANCH   2  17
ATOM     17  C   UNL     1       3.972   5.165  18.471  0.00  0.00    +0.000 C 
BRANCH  17  18
ATOM     18  N   UNL     1       3.022   4.270  19.147  0.00  0.00    +0.000 N 
ATOM     19  C   UNL     1       3.514   3.281  19.990  0.00  0.00    +0.000 C 
ATOM     20  O   UNL     1       4.716   3.095  20.195  0.00  0.00    +0.000 OA
ATOM     21  C   UNL     1       2.516   2.330  20.613  0.00  0.00    +0.000 C 
ATOM     22  C   UNL     1       1.155   2.968  20.652  0.00  0.00    +0.000 C 
ATOM     23  N   UNL     1       0.843   3.464  19.345  0.00  0.00    +0.000 N 
ATOM     24  C   UNL     1       1.737   4.218  18.636  0.00  0.00    +0.000 C 
ATOM     25  O   UNL     1       1.365   4.756  17.600  0.00  0.00    +0.000 OA
ATOM     26  H   UNL     1      -0.111   3.525  19.015  0.00  0.00    +0.000 HD
ENDBRANCH  17  18
ENDBRANCH   2  17
TORSDOF 7
ENDMDL
MODEL 7
REMARK VINA RESULT:      -7.3      3.082      4.914
REMARK  Name = 
REMARK  10 active torsions:
REMARK  status: ('A' for Active; 'I' for Inactive)
REMARK    1  A    between atoms: C_1  and  O_2
REMARK    2  A    between atoms: O_2  and  C_3
REMARK    3  A    between atoms: C_7  and  C_8
REMARK    4  A    between atoms: C_8  and  N_9
REMARK    5  A    between atoms: N_9  and  C_10
REMARK    6  A    between atoms: C_10  and  C_11
REMARK    7  A    between atoms: C_11  and  C_12
REMARK    8  A    between atoms: C_11  and  C_13
REMARK    9  A    between atoms: C_14  and  C_16
REMARK   10  A    between atoms: C_16  and  N_17
REMARK                            x       y       z     vdW  Elec       q    Type
REMARK                         _______ _______ _______ _____ _____    ______ ____
ROOT
ATOM      1  N   UNL     1       3.648   4.977  17.295  0.00  0.00    +0.000 N 
ATOM      2  C   UNL     1       3.706   3.601  17.021  0.00  0.00    +0.000 C 
ATOM      3  O   UNL     1       4.621   3.133  16.336  0.00  0.00    +0.000 OA
ENDROOT
BRANCH   1   4
ATOM      4  C   UNL     1       4.748   5.824  16.806  0.00  0.00    +0.000 C 
BRANCH   4   9
ATOM      5  C   UNL     1       7.828   7.761  18.028  0.00  0.00    +0.000 A 
ATOM      6  C   UNL     1       8.355   6.822  18.919  0.00  0.00    +0.000 A 
ATOM      7  C   UNL     1       7.636   5.683  19.266  0.00  0.00    +0.000 A 
ATOM      8  C   UNL     1       6.393   5.439  18.682  0.00  0.00    +0.000 A 
ATOM      9  C   UNL     1       5.855   6.325  17.734  0.00  0.00    +0.000 A 
ATOM     10  C   UNL     1       6.564   7.527  17.462  0.00  0.00    +0.000 A 
BRANCH   5  12
ATOM     11  C   UNL     1       8.721   9.951  18.577  0.00  0.00    +0.000 C 
ATOM     12  O   UNL     1       8.699   8.782  17.781  0.00  0.00    +0.000 OA
ENDBRANCH   5  12
ENDBRANCH   4   9
ENDBRANCH   1   4
BRANCH   1  13
ATOM     13  C   UNL     1       2.459   5.623  17.871  0.00  0.00    +0.000 C 
BRANCH  13  14
ATOM     14  C   UNL     1       2.597   6.994  18.587  0.00  0.00    +0.000 C 
ATOM     15  C   UNL     1       1.958   8.162  17.837  0.00  0.00    +0.000 C 
ATOM     16  C   UNL     1       2.182   6.999  20.058  0.00  0.00    +0.000 C 
ENDBRANCH  13  14
ENDBRANCH   1  13
BRANCH   2  17
ATOM     17  C   UNL     1       2.608   2.648  17.560  0.00  0.00    +0.000 C 
BRANCH  17  18
ATOM     18  N   UNL     1       2.329   2.826  18.992  0.00  0.00    +0.000 N 
ATOM     19  C   UNL     1       3.343   2.584  19.910  0.00  0.00    +0.000 C 
ATOM     20  O   UNL     1       4.474   2.208  19.593  0.00  0.00    +0.000 OA
ATOM     21  C   UNL     1       3.004   2.705  21.379  0.00  0.00    +0.000 C 
ATOM     22  C   UNL     1       1.806   3.597  21.557  0.00  0.00    +0.000 C 
ATOM     23  N   UNL     1       0.761   3.140  20.689  0.00  0.00    +0.000 N 
ATOM     24  C   UNL     1       0.998   2.865  19.371  0.00  0.00    +0.000 C 
ATOM     25  O   UNL     1       0.045   2.640  18.636  0.00  0.00    +0.000 OA
ATOM     26  H   UNL     1      -0.214   3.268  20.923  0.00  0.00    +0.000 HD
ENDBRANCH  17  18
ENDBRANCH   2  17
TORSDOF 7
ENDMDL
MODEL 8
REMARK VINA RESULT:      -7.3      0.901      1.606
REMARK  Name = 
REMARK  10 active torsions:
REMARK  status: ('A' for Active; 'I' for Inactive)
REMARK    1  A    between atoms: C_1  and  O_2
REMARK    2  A    between atoms: O_2  and  C_3
REMARK    3  A    between atoms: C_7  and  C_8
REMARK    4  A    between atoms: C_8  and  N_9
REMARK    5  A    between atoms: N_9  and  C_10
REMARK    6  A    between atoms: C_10  and  C_11
REMARK    7  A    between atoms: C_11  and  C_12
REMARK    8  A    between atoms: C_11  and  C_13
REMARK    9  A    between atoms: C_14  and  C_16
REMARK   10  A    between atoms: C_16  and  N_17
REMARK                            x       y       z     vdW  Elec       q    Type
REMARK                         _______ _______ _______ _____ _____    ______ ____
ROOT
ATOM      1  N   UNL     1       5.795   5.076  16.917  0.00  0.00    +0.000 N 
ATOM      2  C   UNL     1       4.572   4.489  17.277  0.00  0.00    +0.000 C 
ATOM      3  O   UNL     1       4.230   3.402  16.799  0.00  0.00    +0.000 OA
ENDROOT
BRANCH   1   4
ATOM      4  C   UNL     1       6.684   4.322  16.017  0.00  0.00    +0.000 C 
BRANCH   4   9
ATOM      5  C   UNL     1       6.036   3.358  12.359  0.00  0.00    +0.000 A 
ATOM      6  C   UNL     1       7.017   4.135  11.736  0.00  0.00    +0.000 A 
ATOM      7  C   UNL     1       7.733   5.090  12.451  0.00  0.00    +0.000 A 
ATOM      8  C   UNL     1       7.514   5.246  13.819  0.00  0.00    +0.000 A 
ATOM      9  C   UNL     1       6.583   4.442  14.496  0.00  0.00    +0.000 A 
ATOM     10  C   UNL     1       5.797   3.536  13.732  0.00  0.00    +0.000 A 
BRANCH   5  12
ATOM     11  C   UNL     1       6.124   1.231  11.193  0.00  0.00    +0.000 C 
ATOM     12  O   UNL     1       5.479   2.451  11.505  0.00  0.00    +0.000 OA
ENDBRANCH   5  12
ENDBRANCH   4   9
ENDBRANCH   1   4
BRANCH   1  13
ATOM     13  C   UNL     1       6.132   6.470  17.240  0.00  0.00    +0.000 C 
BRANCH  13  14
ATOM     14  C   UNL     1       7.568   6.826  17.715  0.00  0.00    +0.000 C 
ATOM     15  C   UNL     1       7.890   8.320  17.678  0.00  0.00    +0.000 C 
ATOM     16  C   UNL     1       7.976   6.213  19.054  0.00  0.00    +0.000 C 
ENDBRANCH  13  14
ENDBRANCH   1  13
BRANCH   2  17
ATOM     17  C   UNL     1       3.619   5.206  18.268  0.00  0.00    +0.000 C 
BRANCH  17  18
ATOM     18  N   UNL     1       3.080   4.319  19.309  0.00  0.00    +0.000 N 
ATOM     19  C   UNL     1       1.853   4.625  19.883  0.00  0.00    +0.000 C 
ATOM     20  O   UNL     1       1.187   5.618  19.580  0.00  0.00    +0.000 OA
ATOM     21  C   UNL     1       1.360   3.734  21.002  0.00  0.00    +0.000 C 
ATOM     22  C   UNL     1       2.011   2.382  20.904  0.00  0.00    +0.000 C 
ATOM     23  N   UNL     1       3.428   2.560  20.799  0.00  0.00    +0.000 N 
ATOM     24  C   UNL     1       3.971   3.450  19.914  0.00  0.00    +0.000 C 
ATOM     25  O   UNL     1       5.184   3.447  19.744  0.00  0.00    +0.000 OA
ATOM     26  H   UNL     1       4.076   1.868  21.149  0.00  0.00    +0.000 HD
ENDBRANCH  17  18
ENDBRANCH   2  17
TORSDOF 7
ENDMDL
MODEL 9
REMARK VINA RESULT:      -7.3      4.044      8.451
REMARK  Name = 
REMARK  10 active torsions:
REMARK  status: ('A' for Active; 'I' for Inactive)
REMARK    1  A    between atoms: C_1  and  O_2
REMARK    2  A    between atoms: O_2  and  C_3
REMARK    3  A    between atoms: C_7  and  C_8
REMARK    4  A    between atoms: C_8  and  N_9
REMARK    5  A    between atoms: N_9  and  C_10
REMARK    6  A    between atoms: C_10  and  C_11
REMARK    7  A    between atoms: C_11  and  C_12
REMARK    8  A    between atoms: C_11  and  C_13
REMARK    9  A    between atoms: C_14  and  C_16
REMARK   10  A    between atoms: C_16  and  N_17
REMARK                            x       y       z     vdW  Elec       q    Type
REMARK                         _______ _______ _______ _____ _____    ______ ____
ROOT
ATOM      1  N   UNL     1       2.933   7.024  18.452  0.00  0.00    +0.000 N 
ATOM      2  C   UNL     1       4.028   6.957  17.575  0.00  0.00    +0.000 C 
ATOM      3  O   UNL     1       4.049   7.633  16.542  0.00  0.00    +0.000 OA
ENDROOT
BRANCH   1   4
ATOM      4  C   UNL     1       1.856   7.977  18.138  0.00  0.00    +0.000 C 
BRANCH   4   9
ATOM      5  C   UNL     1       0.286   9.653  21.212  0.00  0.00    +0.000 A 
ATOM      6  C   UNL     1      -0.079  10.879  20.648  0.00  0.00    +0.000 A 
ATOM      7  C   UNL     1       0.345  11.234  19.371  0.00  0.00    +0.000 A 
ATOM      8  C   UNL     1       1.101  10.338  18.615  0.00  0.00    +0.000 A 
ATOM      9  C   UNL     1       1.435   9.071  19.119  0.00  0.00    +0.000 A 
ATOM     10  C   UNL     1       1.070   8.765  20.459  0.00  0.00    +0.000 A 
BRANCH   5  12
ATOM     11  C   UNL     1      -0.955  10.512  23.114  0.00  0.00    +0.000 C 
ATOM     12  O   UNL     1      -0.263   9.472  22.448  0.00  0.00    +0.000 OA
ENDBRANCH   5  12
ENDBRANCH   4   9
ENDBRANCH   1   4
BRANCH   1  13
ATOM     13  C   UNL     1       2.731   6.061  19.544  0.00  0.00    +0.000 C 
BRANCH  13  14
ATOM     14  C   UNL     1       2.097   4.675  19.244  0.00  0.00    +0.000 C 
ATOM     15  C   UNL     1       1.112   4.190  20.307  0.00  0.00    +0.000 C 
ATOM     16  C   UNL     1       1.504   4.527  17.843  0.00  0.00    +0.000 C 
ENDBRANCH  13  14
ENDBRANCH   1  13
BRANCH   2  17
ATOM     17  C   UNL     1       5.222   6.016  17.882  0.00  0.00    +0.000 C 
BRANCH  17  18
ATOM     18  N   UNL     1       5.832   5.433  16.679  0.00  0.00    +0.000 N 
ATOM     19  C   UNL     1       5.402   4.186  16.244  0.00  0.00    +0.000 C 
ATOM     20  O   UNL     1       4.539   3.522  16.823  0.00  0.00    +0.000 OA
ATOM     21  C   UNL     1       6.101   3.581  15.046  0.00  0.00    +0.000 C 
ATOM     22  C   UNL     1       6.736   4.666  14.222  0.00  0.00    +0.000 C 
ATOM     23  N   UNL     1       7.530   5.491  15.082  0.00  0.00    +0.000 N 
ATOM     24  C   UNL     1       7.036   5.974  16.262  0.00  0.00    +0.000 C 
ATOM     25  O   UNL     1       7.690   6.806  16.879  0.00  0.00    +0.000 OA
ATOM     26  H   UNL     1       8.352   5.972  14.743  0.00  0.00    +0.000 HD
ENDBRANCH  17  18
ENDBRANCH   2  17
TORSDOF 7
ENDMDL
