MODEL 1
REMARK VINA RESULT:      -8.1      0.000      0.000
REMARK  Name = 
REMARK  4 active torsions:
REMARK  status: ('A' for Active; 'I' for Inactive)
REMARK    1  A    between atoms: N_1  and  C_2
REMARK    2  A    between atoms: C_5  and  C_6
REMARK    3  A    between atoms: C_13  and  C_14
REMARK    4  A    between atoms: C_14  and  C_16
REMARK                            x       y       z     vdW  Elec       q    Type
REMARK                         _______ _______ _______ _____ _____    ______ ____
ROOT
ATOM      1  C   UNL     1       3.963   2.886  19.951  0.00  0.00    +0.000 A 
ATOM      2  S   UNL     1       2.438   2.510  20.630  0.00  0.00    +0.000 S 
ATOM      3  C   UNL     1       1.862   4.085  20.387  0.00  0.00    +0.000 A 
ATOM      4  C   UNL     1       2.781   4.914  19.772  0.00  0.00    +0.000 A 
ATOM      5  C   UNL     1       4.037   4.202  19.512  0.00  0.00    +0.000 A 
ENDROOT
BRANCH   4   6
ATOM      6  C   UNL     1       2.406   6.305  19.454  0.00  0.00    +0.000 A 
ATOM      7  C   UNL     1       2.592   6.827  18.160  0.00  0.00    +0.000 A 
ATOM      8  C   UNL     1       2.270   8.155  17.864  0.00  0.00    +0.000 A 
ATOM      9  C   UNL     1       1.726   8.977  18.847  0.00  0.00    +0.000 A 
ATOM     10  C   UNL     1       1.524   8.469  20.126  0.00  0.00    +0.000 A 
ATOM     11 BR   UNL     1       0.747   9.566  21.457  0.00  0.00    +0.000 Br
ATOM     12  C   UNL     1       1.881   7.156  20.438  0.00  0.00    +0.000 A 
ENDBRANCH   4   6
BRANCH   1  13
ATOM     13  N   UNL     1       4.890   1.902  19.937  0.00  0.00    +0.000 N 
ATOM     14  H   UNL     1       5.875   2.152  19.988  0.00  0.00    +0.000 HD
ATOM     15  H   UNL     1       4.720   0.983  19.541  0.00  0.00    +0.000 HD
ENDBRANCH   1  13
BRANCH   5  16
ATOM     16  C   UNL     1       5.242   4.839  18.952  0.00  0.00    +0.000 C 
ATOM     17  O   UNL     1       5.997   5.508  19.665  0.00  0.00    +0.000 OA
BRANCH  16  18
ATOM     18  C   UNL     1       5.635   4.705  17.520  0.00  0.00    +0.000 A 
ATOM     19  C   UNL     1       6.975   4.972  17.194  0.00  0.00    +0.000 A 
ATOM     20  C   UNL     1       7.430   4.823  15.886  0.00  0.00    +0.000 A 
ATOM     21  C   UNL     1       6.549   4.409  14.889  0.00  0.00    +0.000 A 
ATOM     22  C   UNL     1       5.206   4.180  15.193  0.00  0.00    +0.000 A 
ATOM     23  C   UNL     1       4.741   4.349  16.503  0.00  0.00    +0.000 A 
ENDBRANCH  16  18
ENDBRANCH   5  16
TORSDOF 4
ENDMDL
MODEL 2
REMARK VINA RESULT:      -8.1      0.125      1.062
REMARK  Name = 
REMARK  4 active torsions:
REMARK  status: ('A' for Active; 'I' for Inactive)
REMARK    1  A    between atoms: N_1  and  C_2
REMARK    2  A    between atoms: C_5  and  C_6
REMARK    3  A    between atoms: C_13  and  C_14
REMARK    4  A    between atoms: C_14  and  C_16
REMARK                            x       y       z     vdW  Elec       q    Type
REMARK                         _______ _______ _______ _____ _____    ______ ____
ROOT
ATOM      1  C   UNL     1       3.957   2.841  19.800  0.00  0.00    +0.000 A 
ATOM      2  S   UNL     1       2.408   2.447  20.412  0.00  0.00    +0.000 S 
ATOM      3  C   UNL     1       1.844   4.031  20.201  0.00  0.00    +0.000 A 
ATOM      4  C   UNL     1       2.786   4.877  19.647  0.00  0.00    +0.000 A 
ATOM      5  C   UNL     1       4.050   4.171  19.408  0.00  0.00    +0.000 A 
ENDROOT
BRANCH   4   6
ATOM      6  C   UNL     1       2.425   6.279  19.362  0.00  0.00    +0.000 A 
ATOM      7  C   UNL     1       2.639   6.837  18.088  0.00  0.00    +0.000 A 
ATOM      8  C   UNL     1       2.330   8.176  17.824  0.00  0.00    +0.000 A 
ATOM      9  C   UNL     1       1.772   8.972  18.820  0.00  0.00    +0.000 A 
ATOM     10  C   UNL     1       1.542   8.428  20.080  0.00  0.00    +0.000 A 
ATOM     11 BR   UNL     1       0.746   9.491  21.428  0.00  0.00    +0.000 Br
ATOM     12  C   UNL     1       1.886   7.105  20.360  0.00  0.00    +0.000 A 
ENDBRANCH   4   6
BRANCH   1  13
ATOM     13  N   UNL     1       4.883   1.855  19.786  0.00  0.00    +0.000 N 
ATOM     14  H   UNL     1       5.646   1.887  20.457  0.00  0.00    +0.000 HD
ATOM     15  H   UNL     1       5.079   1.289  18.967  0.00  0.00    +0.000 HD
ENDBRANCH   1  13
BRANCH   5  16
ATOM     16  C   UNL     1       5.275   4.823  18.913  0.00  0.00    +0.000 C 
ATOM     17  O   UNL     1       5.990   5.489  19.667  0.00  0.00    +0.000 OA
BRANCH  16  18
ATOM     18  C   UNL     1       5.735   4.707  17.500  0.00  0.00    +0.000 A 
ATOM     19  C   UNL     1       4.781   4.323  16.543  0.00  0.00    +0.000 A 
ATOM     20  C   UNL     1       5.122   4.237  15.195  0.00  0.00    +0.000 A 
ATOM     21  C   UNL     1       6.422   4.531  14.790  0.00  0.00    +0.000 A 
ATOM     22  C   UNL     1       7.389   4.873  15.736  0.00  0.00    +0.000 A 
ATOM     23  C   UNL     1       7.055   4.940  17.094  0.00  0.00    +0.000 A 
ENDBRANCH  16  18
ENDBRANCH   5  16
TORSDOF 4
ENDMDL
MODEL 3
REMARK VINA RESULT:      -8.0      1.527      1.962
REMARK  Name = 
REMARK  4 active torsions:
REMARK  status: ('A' for Active; 'I' for Inactive)
REMARK    1  A    between atoms: N_1  and  C_2
REMARK    2  A    between atoms: C_5  and  C_6
REMARK    3  A    between atoms: C_13  and  C_14
REMARK    4  A    between atoms: C_14  and  C_16
REMARK                            x       y       z     vdW  Elec       q    Type
REMARK                         _______ _______ _______ _____ _____    ______ ____
ROOT
ATOM      1  C   UNL     1       3.714   2.962  19.730  0.00  0.00    +0.000 A 
ATOM      2  S   UNL     1       2.699   2.848  21.103  0.00  0.00    +0.000 S 
ATOM      3  C   UNL     1       2.161   4.445  20.925  0.00  0.00    +0.000 A 
ATOM      4  C   UNL     1       2.702   5.086  19.827  0.00  0.00    +0.000 A 
ATOM      5  C   UNL     1       3.632   4.204  19.112  0.00  0.00    +0.000 A 
ENDROOT
BRANCH   4   6
ATOM      6  C   UNL     1       2.293   6.469  19.517  0.00  0.00    +0.000 A 
ATOM      7  C   UNL     1       2.392   6.977  18.208  0.00  0.00    +0.000 A 
ATOM      8  C   UNL     1       2.037   8.298  17.917  0.00  0.00    +0.000 A 
ATOM      9  C   UNL     1       1.546   9.126  18.923  0.00  0.00    +0.000 A 
ATOM     10  C   UNL     1       1.430   8.631  20.218  0.00  0.00    +0.000 A 
ATOM     11 BR   UNL     1       0.725   9.736  21.582  0.00  0.00    +0.000 Br
ATOM     12  C   UNL     1       1.821   7.326  20.522  0.00  0.00    +0.000 A 
ENDBRANCH   4   6
BRANCH   1  13
ATOM     13  N   UNL     1       4.464   1.878  19.426  0.00  0.00    +0.000 N 
ATOM     14  H   UNL     1       4.137   1.240  18.704  0.00  0.00    +0.000 HD
ATOM     15  H   UNL     1       5.128   1.463  20.071  0.00  0.00    +0.000 HD
ENDBRANCH   1  13
BRANCH   5  16
ATOM     16  C   UNL     1       4.440   4.627  17.954  0.00  0.00    +0.000 C 
ATOM     17  O   UNL     1       4.129   4.295  16.806  0.00  0.00    +0.000 OA
BRANCH  16  18
ATOM     18  C   UNL     1       5.652   5.485  18.088  0.00  0.00    +0.000 A 
ATOM     19  C   UNL     1       6.546   5.177  19.127  0.00  0.00    +0.000 A 
ATOM     20  C   UNL     1       7.724   5.902  19.288  0.00  0.00    +0.000 A 
ATOM     21  C   UNL     1       8.020   6.946  18.414  0.00  0.00    +0.000 A 
ATOM     22  C   UNL     1       7.120   7.287  17.403  0.00  0.00    +0.000 A 
ATOM     23  C   UNL     1       5.925   6.574  17.251  0.00  0.00    +0.000 A 
ENDBRANCH  16  18
ENDBRANCH   5  16
TORSDOF 4
ENDMDL
MODEL 4
REMARK VINA RESULT:      -8.0      1.514      2.047
REMARK  Name = 
REMARK  4 active torsions:
REMARK  status: ('A' for Active; 'I' for Inactive)
REMARK    1  A    between atoms: N_1  and  C_2
REMARK    2  A    between atoms: C_5  and  C_6
REMARK    3  A    between atoms: C_13  and  C_14
REMARK    4  A    between atoms: C_14  and  C_16
REMARK                            x       y       z     vdW  Elec       q    Type
REMARK                         _______ _______ _______ _____ _____    ______ ____
ROOT
ATOM      1  C   UNL     1       3.735   2.998  19.743  0.00  0.00    +0.000 A 
ATOM      2  S   UNL     1       2.711   2.889  21.110  0.00  0.00    +0.000 S 
ATOM      3  C   UNL     1       2.170   4.484  20.919  0.00  0.00    +0.000 A 
ATOM      4  C   UNL     1       2.717   5.120  19.821  0.00  0.00    +0.000 A 
ATOM      5  C   UNL     1       3.655   4.236  19.117  0.00  0.00    +0.000 A 
ENDROOT
BRANCH   4   6
ATOM      6  C   UNL     1       2.307   6.500  19.501  0.00  0.00    +0.000 A 
ATOM      7  C   UNL     1       2.421   7.003  18.192  0.00  0.00    +0.000 A 
ATOM      8  C   UNL     1       2.065   8.322  17.890  0.00  0.00    +0.000 A 
ATOM      9  C   UNL     1       1.558   9.152  18.886  0.00  0.00    +0.000 A 
ATOM     10  C   UNL     1       1.426   8.661  20.182  0.00  0.00    +0.000 A 
ATOM     11 BR   UNL     1       0.698   9.769  21.532  0.00  0.00    +0.000 Br
ATOM     12  C   UNL     1       1.818   7.359  20.496  0.00  0.00    +0.000 A 
ENDBRANCH   4   6
BRANCH   1  13
ATOM     13  N   UNL     1       4.489   1.914  19.451  0.00  0.00    +0.000 N 
ATOM     14  H   UNL     1       5.174   1.593  20.131  0.00  0.00    +0.000 HD
ATOM     15  H   UNL     1       4.677   1.607  18.502  0.00  0.00    +0.000 HD
ENDBRANCH   1  13
BRANCH   5  16
ATOM     16  C   UNL     1       4.470   4.655  17.964  0.00  0.00    +0.000 C 
ATOM     17  O   UNL     1       4.134   4.367  16.811  0.00  0.00    +0.000 OA
BRANCH  16  18
ATOM     18  C   UNL     1       5.718   5.456  18.106  0.00  0.00    +0.000 A 
ATOM     19  C   UNL     1       5.899   6.528  17.216  0.00  0.00    +0.000 A 
ATOM     20  C   UNL     1       7.016   7.352  17.315  0.00  0.00    +0.000 A 
ATOM     21  C   UNL     1       7.968   7.113  18.304  0.00  0.00    +0.000 A 
ATOM     22  C   UNL     1       7.820   6.027  19.168  0.00  0.00    +0.000 A 
ATOM     23  C   UNL     1       6.708   5.183  19.058  0.00  0.00    +0.000 A 
ENDBRANCH  16  18
ENDBRANCH   5  16
TORSDOF 4
ENDMDL
MODEL 5
REMARK VINA RESULT:      -7.8      2.475      4.450
REMARK  Name = 
REMARK  4 active torsions:
REMARK  status: ('A' for Active; 'I' for Inactive)
REMARK    1  A    between atoms: N_1  and  C_2
REMARK    2  A    between atoms: C_5  and  C_6
REMARK    3  A    between atoms: C_13  and  C_14
REMARK    4  A    between atoms: C_14  and  C_16
REMARK                            x       y       z     vdW  Elec       q    Type
REMARK                         _______ _______ _______ _____ _____    ______ ____
ROOT
ATOM      1  C   UNL     1       5.246   4.375  16.594  0.00  0.00    +0.000 A 
ATOM      2  S   UNL     1       6.334   5.688  16.444  0.00  0.00    +0.000 S 
ATOM      3  C   UNL     1       5.310   6.726  17.307  0.00  0.00    +0.000 A 
ATOM      4  C   UNL     1       4.153   6.112  17.748  0.00  0.00    +0.000 A 
ATOM      5  C   UNL     1       4.110   4.708  17.322  0.00  0.00    +0.000 A 
ENDROOT
BRANCH   4   6
ATOM      6  C   UNL     1       3.184   6.880  18.553  0.00  0.00    +0.000 A 
ATOM      7  C   UNL     1       2.826   6.461  19.847  0.00  0.00    +0.000 A 
ATOM      8  C   UNL     1       1.882   7.166  20.600  0.00  0.00    +0.000 A 
ATOM      9  C   UNL     1       1.303   8.322  20.086  0.00  0.00    +0.000 A 
ATOM     10  C   UNL     1       1.660   8.756  18.812  0.00  0.00    +0.000 A 
ATOM     11 BR   UNL     1       0.908  10.349  18.121  0.00  0.00    +0.000 Br
ATOM     12  C   UNL     1       2.571   8.032  18.041  0.00  0.00    +0.000 A 
ENDBRANCH   4   6
BRANCH   1  13
ATOM     13  N   UNL     1       5.595   3.214  15.994  0.00  0.00    +0.000 N 
ATOM     14  H   UNL     1       5.318   3.056  15.028  0.00  0.00    +0.000 HD
ATOM     15  H   UNL     1       5.799   2.363  16.507  0.00  0.00    +0.000 HD
ENDBRANCH   1  13
BRANCH   5  16
ATOM     16  C   UNL     1       2.963   3.814  17.555  0.00  0.00    +0.000 C 
ATOM     17  O   UNL     1       2.325   3.338  16.610  0.00  0.00    +0.000 OA
BRANCH  16  18
ATOM     18  C   UNL     1       2.517   3.414  18.919  0.00  0.00    +0.000 A 
ATOM     19  C   UNL     1       3.502   2.947  19.806  0.00  0.00    +0.000 A 
ATOM     20  C   UNL     1       3.172   2.598  21.113  0.00  0.00    +0.000 A 
ATOM     21  C   UNL     1       1.853   2.708  21.548  0.00  0.00    +0.000 A 
ATOM     22  C   UNL     1       0.859   3.131  20.664  0.00  0.00    +0.000 A 
ATOM     23  C   UNL     1       1.183   3.463  19.343  0.00  0.00    +0.000 A 
ENDBRANCH  16  18
ENDBRANCH   5  16
TORSDOF 4
ENDMDL
MODEL 6
REMARK VINA RESULT:      -7.7      2.477      4.587
REMARK  Name = 
REMARK  4 active torsions:
REMARK  status: ('A' for Active; 'I' for Inactive)
REMARK    1  A    between atoms: N_1  and  C_2
REMARK    2  A    between atoms: C_5  and  C_6
REMARK    3  A    between atoms: C_13  and  C_14
REMARK    4  A    between atoms: C_14  and  C_16
REMARK                            x       y       z     vdW  Elec       q    Type
REMARK                         _______ _______ _______ _____ _____    ______ ____
ROOT
ATOM      1  C   UNL     1       5.211   4.359  16.580  0.00  0.00    +0.000 A 
ATOM      2  S   UNL     1       6.272   5.684  16.361  0.00  0.00    +0.000 S 
ATOM      3  C   UNL     1       5.256   6.731  17.223  0.00  0.00    +0.000 A 
ATOM      4  C   UNL     1       4.122   6.112  17.714  0.00  0.00    +0.000 A 
ATOM      5  C   UNL     1       4.091   4.696  17.330  0.00  0.00    +0.000 A 
ENDROOT
BRANCH   4   6
ATOM      6  C   UNL     1       3.163   6.887  18.523  0.00  0.00    +0.000 A 
ATOM      7  C   UNL     1       2.803   6.467  19.817  0.00  0.00    +0.000 A 
ATOM      8  C   UNL     1       1.868   7.180  20.575  0.00  0.00    +0.000 A 
ATOM      9  C   UNL     1       1.300   8.344  20.065  0.00  0.00    +0.000 A 
ATOM     10  C   UNL     1       1.659   8.778  18.792  0.00  0.00    +0.000 A 
ATOM     11 BR   UNL     1       0.924  10.382  18.108  0.00  0.00    +0.000 Br
ATOM     12  C   UNL     1       2.561   8.048  18.017  0.00  0.00    +0.000 A 
ENDBRANCH   4   6
BRANCH   1  13
ATOM     13  N   UNL     1       5.563   3.187  16.005  0.00  0.00    +0.000 N 
ATOM     14  H   UNL     1       5.038   2.856  15.200  0.00  0.00    +0.000 HD
ATOM     15  H   UNL     1       6.065   2.455  16.497  0.00  0.00    +0.000 HD
ENDBRANCH   1  13
BRANCH   5  16
ATOM     16  C   UNL     1       2.966   3.790  17.622  0.00  0.00    +0.000 C 
ATOM     17  O   UNL     1       2.306   3.283  16.710  0.00  0.00    +0.000 OA
BRANCH  16  18
ATOM     18  C   UNL     1       2.571   3.415  19.009  0.00  0.00    +0.000 A 
ATOM     19  C   UNL     1       1.211   3.529  19.342  0.00  0.00    +0.000 A 
ATOM     20  C   UNL     1       0.755   3.154  20.604  0.00  0.00    +0.000 A 
ATOM     21  C   UNL     1       1.656   2.664  21.547  0.00  0.00    +0.000 A 
ATOM     22  C   UNL     1       3.015   2.585  21.242  0.00  0.00    +0.000 A 
ATOM     23  C   UNL     1       3.479   2.981  19.982  0.00  0.00    +0.000 A 
ENDBRANCH  16  18
ENDBRANCH   5  16
TORSDOF 4
ENDMDL
MODEL 7
REMARK VINA RESULT:      -7.6      2.394      4.473
REMARK  Name = 
REMARK  4 active torsions:
REMARK  status: ('A' for Active; 'I' for Inactive)
REMARK    1  A    between atoms: N_1  and  C_2
REMARK    2  A    between atoms: C_5  and  C_6
REMARK    3  A    between atoms: C_13  and  C_14
REMARK    4  A    between atoms: C_14  and  C_16
REMARK                            x       y       z     vdW  Elec       q    Type
REMARK                         _______ _______ _______ _____ _____    ______ ____
ROOT
ATOM      1  C   UNL     1       4.846   4.550  16.964  0.00  0.00    +0.000 A 
ATOM      2  S   UNL     1       6.006   5.737  16.546  0.00  0.00    +0.000 S 
ATOM      3  C   UNL     1       5.013   6.999  17.087  0.00  0.00    +0.000 A 
ATOM      4  C   UNL     1       3.813   6.563  17.614  0.00  0.00    +0.000 A 
ATOM      5  C   UNL     1       3.708   5.101  17.540  0.00  0.00    +0.000 A 
ENDROOT
BRANCH   4   6
ATOM      6  C   UNL     1       2.862   7.546  18.167  0.00  0.00    +0.000 A 
ATOM      7  C   UNL     1       2.423   8.640  17.398  0.00  0.00    +0.000 A 
ATOM      8  C   UNL     1       1.548   9.593  17.929  0.00  0.00    +0.000 A 
ATOM      9  C   UNL     1       1.071   9.452  19.229  0.00  0.00    +0.000 A 
ATOM     10  C   UNL     1       1.485   8.367  19.995  0.00  0.00    +0.000 A 
ATOM     11 BR   UNL     1       0.809   8.145  21.748  0.00  0.00    +0.000 Br
ATOM     12  C   UNL     1       2.390   7.435  19.483  0.00  0.00    +0.000 A 
ENDBRANCH   4   6
BRANCH   1  13
ATOM     13  N   UNL     1       5.152   3.264  16.680  0.00  0.00    +0.000 N 
ATOM     14  H   UNL     1       6.126   3.008  16.539  0.00  0.00    +0.000 HD
ATOM     15  H   UNL     1       4.493   2.615  16.262  0.00  0.00    +0.000 HD
ENDBRANCH   1  13
BRANCH   5  16
ATOM     16  C   UNL     1       2.509   4.341  17.935  0.00  0.00    +0.000 C 
ATOM     17  O   UNL     1       1.569   4.185  17.150  0.00  0.00    +0.000 OA
BRANCH  16  18
ATOM     18  C   UNL     1       2.362   3.705  19.275  0.00  0.00    +0.000 A 
ATOM     19  C   UNL     1       1.069   3.653  19.822  0.00  0.00    +0.000 A 
ATOM     20  C   UNL     1       0.843   3.033  21.049  0.00  0.00    +0.000 A 
ATOM     21  C   UNL     1       1.907   2.461  21.743  0.00  0.00    +0.000 A 
ATOM     22  C   UNL     1       3.202   2.543  21.229  0.00  0.00    +0.000 A 
ATOM     23  C   UNL     1       3.436   3.184  20.006  0.00  0.00    +0.000 A 
ENDBRANCH  16  18
ENDBRANCH   5  16
TORSDOF 4
ENDMDL
MODEL 8
REMARK VINA RESULT:      -7.6      2.383      4.334
REMARK  Name = 
REMARK  4 active torsions:
REMARK  status: ('A' for Active; 'I' for Inactive)
REMARK    1  A    between atoms: N_1  and  C_2
REMARK    2  A    between atoms: C_5  and  C_6
REMARK    3  A    between atoms: C_13  and  C_14
REMARK    4  A    between atoms: C_14  and  C_16
REMARK                            x       y       z     vdW  Elec       q    Type
REMARK                         _______ _______ _______ _____ _____    ______ ____
ROOT
ATOM      1  C   UNL     1       4.947   4.505  16.945  0.00  0.00    +0.000 A 
ATOM      2  S   UNL     1       6.117   5.702  16.588  0.00  0.00    +0.000 S 
ATOM      3  C   UNL     1       5.107   6.951  17.127  0.00  0.00    +0.000 A 
ATOM      4  C   UNL     1       3.891   6.503  17.608  0.00  0.00    +0.000 A 
ATOM      5  C   UNL     1       3.791   5.042  17.499  0.00  0.00    +0.000 A 
ENDROOT
BRANCH   4   6
ATOM      6  C   UNL     1       2.923   7.473  18.153  0.00  0.00    +0.000 A 
ATOM      7  C   UNL     1       2.479   8.563  17.382  0.00  0.00    +0.000 A 
ATOM      8  C   UNL     1       1.587   9.504  17.907  0.00  0.00    +0.000 A 
ATOM      9  C   UNL     1       1.098   9.354  19.201  0.00  0.00    +0.000 A 
ATOM     10  C   UNL     1       1.518   8.272  19.969  0.00  0.00    +0.000 A 
ATOM     11 BR   UNL     1       0.826   8.038  21.714  0.00  0.00    +0.000 Br
ATOM     12  C   UNL     1       2.439   7.353  19.464  0.00  0.00    +0.000 A 
ENDBRANCH   4   6
BRANCH   1  13
ATOM     13  N   UNL     1       5.263   3.225  16.643  0.00  0.00    +0.000 N 
ATOM     14  H   UNL     1       5.927   2.730  17.232  0.00  0.00    +0.000 HD
ATOM     15  H   UNL     1       5.170   2.835  15.710  0.00  0.00    +0.000 HD
ENDBRANCH   1  13
BRANCH   5  16
ATOM     16  C   UNL     1       2.582   4.274  17.841  0.00  0.00    +0.000 C 
ATOM     17  O   UNL     1       1.704   4.061  16.999  0.00  0.00    +0.000 OA
BRANCH  16  18
ATOM     18  C   UNL     1       2.351   3.694  19.195  0.00  0.00    +0.000 A 
ATOM     19  C   UNL     1       3.417   2.994  19.784  0.00  0.00    +0.000 A 
ATOM     20  C   UNL     1       3.295   2.463  21.066  0.00  0.00    +0.000 A 
ATOM     21  C   UNL     1       2.104   2.623  21.771  0.00  0.00    +0.000 A 
ATOM     22  C   UNL     1       1.025   3.281  21.180  0.00  0.00    +0.000 A 
ATOM     23  C   UNL     1       1.137   3.797  19.884  0.00  0.00    +0.000 A 
ENDBRANCH  16  18
ENDBRANCH   5  16
TORSDOF 4
ENDMDL
MODEL 9
REMARK VINA RESULT:      -7.3      2.271      3.003
REMARK  Name = 
REMARK  4 active torsions:
REMARK  status: ('A' for Active; 'I' for Inactive)
REMARK    1  A    between atoms: N_1  and  C_2
REMARK    2  A    between atoms: C_5  and  C_6
REMARK    3  A    between atoms: C_13  and  C_14
REMARK    4  A    between atoms: C_14  and  C_16
REMARK                            x       y       z     vdW  Elec       q    Type
REMARK                         _______ _______ _______ _____ _____    ______ ____
ROOT
ATOM      1  C   UNL     1       4.484   3.889  16.961  0.00  0.00    +0.000 A 
ATOM      2  S   UNL     1       3.266   3.000  17.771  0.00  0.00    +0.000 S 
ATOM      3  C   UNL     1       2.527   4.410  18.354  0.00  0.00    +0.000 A 
ATOM      4  C   UNL     1       3.154   5.569  17.936  0.00  0.00    +0.000 A 
ATOM      5  C   UNL     1       4.324   5.261  17.105  0.00  0.00    +0.000 A 
ENDROOT
BRANCH   4   6
ATOM      6  C   UNL     1       2.598   6.877  18.328  0.00  0.00    +0.000 A 
ATOM      7  C   UNL     1       2.469   7.919  17.391  0.00  0.00    +0.000 A 
ATOM      8  C   UNL     1       1.975   9.172  17.766  0.00  0.00    +0.000 A 
ATOM      9  C   UNL     1       1.570   9.398  19.079  0.00  0.00    +0.000 A 
ATOM     10  C   UNL     1       1.679   8.371  20.012  0.00  0.00    +0.000 A 
ATOM     11 BR   UNL     1       1.093   8.655  21.788  0.00  0.00    +0.000 Br
ATOM     12  C   UNL     1       2.210   7.132  19.652  0.00  0.00    +0.000 A 
ENDBRANCH   4   6
BRANCH   1  13
ATOM     13  N   UNL     1       5.436   3.179  16.312  0.00  0.00    +0.000 N 
ATOM     14  H   UNL     1       6.277   3.656  15.999  0.00  0.00    +0.000 HD
ATOM     15  H   UNL     1       5.243   2.316  15.815  0.00  0.00    +0.000 HD
ENDBRANCH   1  13
BRANCH   5  16
ATOM     16  C   UNL     1       5.254   6.280  16.587  0.00  0.00    +0.000 C 
ATOM     17  O   UNL     1       5.083   6.791  15.476  0.00  0.00    +0.000 OA
BRANCH  16  18
ATOM     18  C   UNL     1       6.430   6.767  17.362  0.00  0.00    +0.000 A 
ATOM     19  C   UNL     1       6.872   8.076  17.104  0.00  0.00    +0.000 A 
ATOM     20  C   UNL     1       7.935   8.621  17.820  0.00  0.00    +0.000 A 
ATOM     21  C   UNL     1       8.570   7.862  18.801  0.00  0.00    +0.000 A 
ATOM     22  C   UNL     1       8.167   6.547  19.038  0.00  0.00    +0.000 A 
ATOM     23  C   UNL     1       7.112   5.989  18.305  0.00  0.00    +0.000 A 
ENDBRANCH  16  18
ENDBRANCH   5  16
TORSDOF 4
ENDMDL
