MODEL 1
REMARK VINA RESULT:      -6.8      0.000      0.000
REMARK  Name = 
REMARK  15 active torsions:
REMARK  status: ('A' for Active; 'I' for Inactive)
REMARK    1  A    between atoms: C_1  and  C_2
REMARK    2  A    between atoms: C_2  and  C_3
REMARK    3  A    between atoms: C_3  and  C_5
REMARK    4  A    between atoms: C_5  and  C_6
REMARK    5  A    between atoms: C_5  and  C_23
REMARK    6  A    between atoms: C_6  and  C_7
REMARK    7  A    between atoms: C_7  and  C_8
REMARK    8  A    between atoms: C_8  and  C_9
REMARK    9  A    between atoms: C_9  and  C_10
REMARK   10  A    between atoms: C_10  and  C_11
REMARK   11  A    between atoms: C_11  and  O_12
REMARK   12  A    between atoms: O_12  and  C_13
REMARK   13  A    between atoms: C_17  and  C_18
REMARK   14  A    between atoms: C_23  and  C_25
REMARK   15  A    between atoms: C_25  and  C_26
REMARK                            x       y       z     vdW  Elec       q    Type
REMARK                         _______ _______ _______ _____ _____    ______ ____
ROOT
ATOM      1  C   UNL     1       2.148   3.132  19.372  0.00  0.00    +0.000 C 
ENDROOT
BRANCH   1   2
ATOM      2  C   UNL     1       2.165   3.876  18.027  0.00  0.00    +0.000 C 
BRANCH   2   3
ATOM      3  C   UNL     1       3.465   3.627  17.263  0.00  0.00    +0.000 C 
BRANCH   3   4
ATOM      4  C   UNL     1       4.236   4.914  16.960  0.00  0.00    +0.000 C 
BRANCH   4   5
ATOM      5  C   UNL     1       5.751   4.783  17.216  0.00  0.00    +0.000 C 
BRANCH   5   6
ATOM      6  C   UNL     1       6.295   5.916  18.083  0.00  0.00    +0.000 C 
ATOM      7  O   UNL     1       6.633   5.734  19.255  0.00  0.00    +0.000 OA
BRANCH   6   9
ATOM      8  C   UNL     1       7.880   7.831  17.719  0.00  0.00    +0.000 C 
ATOM      9  C   UNL     1       6.503   7.264  17.411  0.00  0.00    +0.000 C 
ENDBRANCH   6   9
ENDBRANCH   5   6
BRANCH   5  10
ATOM     10  C   UNL     1       6.511   4.594  15.913  0.00  0.00    +0.000 C 
ATOM     11  O   UNL     1       7.716   4.349  15.892  0.00  0.00    +0.000 OA
BRANCH  10  12
ATOM     12  C   UNL     1       5.697   4.665  14.630  0.00  0.00    +0.000 C 
ATOM     13  C   UNL     1       6.332   3.878  13.496  0.00  0.00    +0.000 C 
ENDBRANCH  10  12
ENDBRANCH   5  10
ENDBRANCH   4   5
ENDBRANCH   3   4
ENDBRANCH   2   3
ENDBRANCH   1   2
BRANCH   1  14
ATOM     14  C   UNL     1       2.598   3.967  20.575  0.00  0.00    +0.000 C 
BRANCH  14  15
ATOM     15  C   UNL     1       1.973   5.356  20.575  0.00  0.00    +0.000 C 
BRANCH  15  16
ATOM     16  O   UNL     1       2.806   6.252  19.843  0.00  0.00    +0.000 OA
BRANCH  16  17
ATOM     17  C   UNL     1       2.233   7.446  19.495  0.00  0.00    +0.000 A 
ATOM     18  C   UNL     1       2.563   7.910  18.221  0.00  0.00    +0.000 A 
ATOM     19  C   UNL     1       2.065   9.128  17.759  0.00  0.00    +0.000 A 
ATOM     20  C   UNL     1       1.234   9.897  18.574  0.00  0.00    +0.000 A 
ATOM     21  C   UNL     1       0.888   9.448  19.855  0.00  0.00    +0.000 A 
ATOM     22  C   UNL     1       1.389   8.213  20.302  0.00  0.00    +0.000 A 
BRANCH  21  23
ATOM     23  C   UNL     1       0.002  10.258  20.765  0.00  0.00    +0.000 C 
ATOM     24  F   UNL     1       0.625  11.329  21.329  0.00  0.00    +0.000 F 
ATOM     25  F   UNL     1      -1.088  10.757  20.117  0.00  0.00    +0.000 F 
ATOM     26  F   UNL     1      -0.489   9.523  21.801  0.00  0.00    +0.000 F 
ENDBRANCH  21  23
ENDBRANCH  16  17
ENDBRANCH  15  16
ENDBRANCH  14  15
ENDBRANCH   1  14
TORSDOF 13
ENDMDL
MODEL 2
REMARK VINA RESULT:      -6.8      1.573      2.042
REMARK  Name = 
REMARK  15 active torsions:
REMARK  status: ('A' for Active; 'I' for Inactive)
REMARK    1  A    between atoms: C_1  and  C_2
REMARK    2  A    between atoms: C_2  and  C_3
REMARK    3  A    between atoms: C_3  and  C_5
REMARK    4  A    between atoms: C_5  and  C_6
REMARK    5  A    between atoms: C_5  and  C_23
REMARK    6  A    between atoms: C_6  and  C_7
REMARK    7  A    between atoms: C_7  and  C_8
REMARK    8  A    between atoms: C_8  and  C_9
REMARK    9  A    between atoms: C_9  and  C_10
REMARK   10  A    between atoms: C_10  and  C_11
REMARK   11  A    between atoms: C_11  and  O_12
REMARK   12  A    between atoms: O_12  and  C_13
REMARK   13  A    between atoms: C_17  and  C_18
REMARK   14  A    between atoms: C_23  and  C_25
REMARK   15  A    between atoms: C_25  and  C_26
REMARK                            x       y       z     vdW  Elec       q    Type
REMARK                         _______ _______ _______ _____ _____    ______ ____
ROOT
ATOM      1  C   UNL     1       4.103   4.560  19.013  0.00  0.00    +0.000 C 
ENDROOT
BRANCH   1   2
ATOM      2  C   UNL     1       3.347   3.750  17.949  0.00  0.00    +0.000 C 
BRANCH   2   3
ATOM      3  C   UNL     1       4.261   3.353  16.790  0.00  0.00    +0.000 C 
BRANCH   3   4
ATOM      4  C   UNL     1       4.843   4.559  16.048  0.00  0.00    +0.000 C 
BRANCH   4   5
ATOM      5  C   UNL     1       6.382   4.527  15.960  0.00  0.00    +0.000 C 
BRANCH   5   6
ATOM      6  C   UNL     1       7.039   5.546  16.888  0.00  0.00    +0.000 C 
ATOM      7  O   UNL     1       6.936   6.760  16.698  0.00  0.00    +0.000 OA
BRANCH   6   9
ATOM      8  C   UNL     1       7.976   6.100  19.151  0.00  0.00    +0.000 C 
ATOM      9  C   UNL     1       7.744   5.006  18.122  0.00  0.00    +0.000 C 
ENDBRANCH   6   9
ENDBRANCH   5   6
BRANCH   5  10
ATOM     10  C   UNL     1       6.849   4.629  14.516  0.00  0.00    +0.000 C 
ATOM     11  O   UNL     1       7.813   5.319  14.191  0.00  0.00    +0.000 OA
BRANCH  10  12
ATOM     12  C   UNL     1       6.100   3.786  13.494  0.00  0.00    +0.000 C 
ATOM     13  C   UNL     1       6.747   3.831  12.121  0.00  0.00    +0.000 C 
ENDBRANCH  10  12
ENDBRANCH   5  10
ENDBRANCH   4   5
ENDBRANCH   3   4
ENDBRANCH   2   3
ENDBRANCH   1   2
BRANCH   1  14
ATOM     14  C   UNL     1       3.348   5.783  19.545  0.00  0.00    +0.000 C 
BRANCH  14  15
ATOM     15  C   UNL     1       2.537   6.474  18.457  0.00  0.00    +0.000 C 
BRANCH  15  16
ATOM     16  O   UNL     1       2.759   7.881  18.520  0.00  0.00    +0.000 OA
BRANCH  16  17
ATOM     17  C   UNL     1       1.720   8.625  19.014  0.00  0.00    +0.000 A 
ATOM     18  C   UNL     1       1.067   9.422  18.074  0.00  0.00    +0.000 A 
ATOM     19  C   UNL     1       0.009  10.247  18.458  0.00  0.00    +0.000 A 
ATOM     20  C   UNL     1      -0.400  10.284  19.791  0.00  0.00    +0.000 A 
ATOM     21  C   UNL     1       0.241   9.489  20.749  0.00  0.00    +0.000 A 
ATOM     22  C   UNL     1       1.298   8.655  20.345  0.00  0.00    +0.000 A 
BRANCH  21  23
ATOM     23  C   UNL     1      -0.168   9.513  22.199  0.00  0.00    +0.000 C 
ATOM     24  F   UNL     1      -1.009   8.501  22.550  0.00  0.00    +0.000 F 
ATOM     25  F   UNL     1       0.900   9.421  23.040  0.00  0.00    +0.000 F 
ATOM     26  F   UNL     1      -0.808  10.666  22.539  0.00  0.00    +0.000 F 
ENDBRANCH  21  23
ENDBRANCH  16  17
ENDBRANCH  15  16
ENDBRANCH  14  15
ENDBRANCH   1  14
TORSDOF 13
ENDMDL
MODEL 3
REMARK VINA RESULT:      -6.8      1.230      2.839
REMARK  Name = 
REMARK  15 active torsions:
REMARK  status: ('A' for Active; 'I' for Inactive)
REMARK    1  A    between atoms: C_1  and  C_2
REMARK    2  A    between atoms: C_2  and  C_3
REMARK    3  A    between atoms: C_3  and  C_5
REMARK    4  A    between atoms: C_5  and  C_6
REMARK    5  A    between atoms: C_5  and  C_23
REMARK    6  A    between atoms: C_6  and  C_7
REMARK    7  A    between atoms: C_7  and  C_8
REMARK    8  A    between atoms: C_8  and  C_9
REMARK    9  A    between atoms: C_9  and  C_10
REMARK   10  A    between atoms: C_10  and  C_11
REMARK   11  A    between atoms: C_11  and  O_12
REMARK   12  A    between atoms: O_12  and  C_13
REMARK   13  A    between atoms: C_17  and  C_18
REMARK   14  A    between atoms: C_23  and  C_25
REMARK   15  A    between atoms: C_25  and  C_26
REMARK                            x       y       z     vdW  Elec       q    Type
REMARK                         _______ _______ _______ _____ _____    ______ ____
ROOT
ATOM      1  C   UNL     1       2.945   3.083  18.422  0.00  0.00    +0.000 C 
ENDROOT
BRANCH   1   2
ATOM      2  C   UNL     1       4.375   3.645  18.387  0.00  0.00    +0.000 C 
BRANCH   2   3
ATOM      3  C   UNL     1       4.937   3.664  16.966  0.00  0.00    +0.000 C 
BRANCH   3   4
ATOM      4  C   UNL     1       4.941   5.063  16.343  0.00  0.00    +0.000 C 
BRANCH   4   5
ATOM      5  C   UNL     1       6.354   5.551  15.965  0.00  0.00    +0.000 C 
BRANCH   5   6
ATOM      6  C   UNL     1       6.792   5.056  14.589  0.00  0.00    +0.000 C 
ATOM      7  O   UNL     1       7.786   5.514  14.020  0.00  0.00    +0.000 OA
BRANCH   6   9
ATOM      8  C   UNL     1       6.460   3.607  12.565  0.00  0.00    +0.000 C 
ATOM      9  C   UNL     1       6.013   3.897  13.988  0.00  0.00    +0.000 C 
ENDBRANCH   6   9
ENDBRANCH   5   6
BRANCH   5  10
ATOM     10  C   UNL     1       7.352   5.241  17.070  0.00  0.00    +0.000 C 
ATOM     11  O   UNL     1       8.032   4.217  17.064  0.00  0.00    +0.000 OA
BRANCH  10  12
ATOM     12  C   UNL     1       7.512   6.289  18.161  0.00  0.00    +0.000 C 
ATOM     13  C   UNL     1       7.898   5.680  19.498  0.00  0.00    +0.000 C 
ENDBRANCH  10  12
ENDBRANCH   5  10
ENDBRANCH   4   5
ENDBRANCH   3   4
ENDBRANCH   2   3
ENDBRANCH   1   2
BRANCH   1  14
ATOM     14  C   UNL     1       1.933   3.950  19.177  0.00  0.00    +0.000 C 
BRANCH  14  15
ATOM     15  C   UNL     1       2.613   4.994  20.054  0.00  0.00    +0.000 C 
BRANCH  15  16
ATOM     16  O   UNL     1       3.036   6.090  19.246  0.00  0.00    +0.000 OA
BRANCH  16  17
ATOM     17  C   UNL     1       2.307   7.242  19.381  0.00  0.00    +0.000 A 
ATOM     18  C   UNL     1       2.171   7.993  18.213  0.00  0.00    +0.000 A 
ATOM     19  C   UNL     1       1.474   9.202  18.226  0.00  0.00    +0.000 A 
ATOM     20  C   UNL     1       0.911   9.672  19.413  0.00  0.00    +0.000 A 
ATOM     21  C   UNL     1       1.034   8.930  20.595  0.00  0.00    +0.000 A 
ATOM     22  C   UNL     1       1.729   7.710  20.564  0.00  0.00    +0.000 A 
BRANCH  21  23
ATOM     23  C   UNL     1       0.447   9.414  21.896  0.00  0.00    +0.000 C 
ATOM     24  F   UNL     1       1.272   9.246  22.966  0.00  0.00    +0.000 F 
ATOM     25  F   UNL     1       0.140  10.741  21.864  0.00  0.00    +0.000 F 
ATOM     26  F   UNL     1      -0.712   8.773  22.213  0.00  0.00    +0.000 F 
ENDBRANCH  21  23
ENDBRANCH  16  17
ENDBRANCH  15  16
ENDBRANCH  14  15
ENDBRANCH   1  14
TORSDOF 13
ENDMDL
MODEL 4
REMARK VINA RESULT:      -6.7      2.252      4.083
REMARK  Name = 
REMARK  15 active torsions:
REMARK  status: ('A' for Active; 'I' for Inactive)
REMARK    1  A    between atoms: C_1  and  C_2
REMARK    2  A    between atoms: C_2  and  C_3
REMARK    3  A    between atoms: C_3  and  C_5
REMARK    4  A    between atoms: C_5  and  C_6
REMARK    5  A    between atoms: C_5  and  C_23
REMARK    6  A    between atoms: C_6  and  C_7
REMARK    7  A    between atoms: C_7  and  C_8
REMARK    8  A    between atoms: C_8  and  C_9
REMARK    9  A    between atoms: C_9  and  C_10
REMARK   10  A    between atoms: C_10  and  C_11
REMARK   11  A    between atoms: C_11  and  O_12
REMARK   12  A    between atoms: O_12  and  C_13
REMARK   13  A    between atoms: C_17  and  C_18
REMARK   14  A    between atoms: C_23  and  C_25
REMARK   15  A    between atoms: C_25  and  C_26
REMARK                            x       y       z     vdW  Elec       q    Type
REMARK                         _______ _______ _______ _____ _____    ______ ____
ROOT
ATOM      1  C   UNL     1       4.433   2.427  18.926  0.00  0.00    +0.000 C 
ENDROOT
BRANCH   1   2
ATOM      2  C   UNL     1       4.675   3.496  20.003  0.00  0.00    +0.000 C 
BRANCH   2   3
ATOM      3  C   UNL     1       5.284   4.766  19.408  0.00  0.00    +0.000 C 
BRANCH   3   4
ATOM      4  C   UNL     1       6.219   4.484  18.229  0.00  0.00    +0.000 C 
BRANCH   4   5
ATOM      5  C   UNL     1       6.412   5.706  17.308  0.00  0.00    +0.000 C 
BRANCH   5   6
ATOM      6  C   UNL     1       6.756   5.306  15.875  0.00  0.00    +0.000 C 
ATOM      7  O   UNL     1       7.711   5.803  15.273  0.00  0.00    +0.000 OA
BRANCH   6   9
ATOM      8  C   UNL     1       6.291   3.992  13.786  0.00  0.00    +0.000 C 
ATOM      9  C   UNL     1       5.935   4.190  15.250  0.00  0.00    +0.000 C 
ENDBRANCH   6   9
ENDBRANCH   5   6
BRANCH   5  10
ATOM     10  C   UNL     1       7.391   6.698  17.915  0.00  0.00    +0.000 C 
ATOM     11  O   UNL     1       8.241   6.355  18.734  0.00  0.00    +0.000 OA
BRANCH  10  12
ATOM     12  C   UNL     1       7.308   8.134  17.417  0.00  0.00    +0.000 C 
ATOM     13  C   UNL     1       8.317   9.042  18.098  0.00  0.00    +0.000 C 
ENDBRANCH  10  12
ENDBRANCH   5  10
ENDBRANCH   4   5
ENDBRANCH   3   4
ENDBRANCH   2   3
ENDBRANCH   1   2
BRANCH   1  14
ATOM     14  C   UNL     1       3.012   1.855  18.897  0.00  0.00    +0.000 C 
BRANCH  14  15
ATOM     15  C   UNL     1       2.292   2.174  17.593  0.00  0.00    +0.000 C 
BRANCH  15  16
ATOM     16  O   UNL     1       1.172   3.014  17.863  0.00  0.00    +0.000 OA
BRANCH  16  17
ATOM     17  C   UNL     1       1.440   4.149  18.581  0.00  0.00    +0.000 A 
ATOM     18  C   UNL     1       1.220   4.044  19.955  0.00  0.00    +0.000 A 
ATOM     19  C   UNL     1       1.430   5.141  20.792  0.00  0.00    +0.000 A 
ATOM     20  C   UNL     1       1.859   6.356  20.257  0.00  0.00    +0.000 A 
ATOM     21  C   UNL     1       2.089   6.480  18.882  0.00  0.00    +0.000 A 
ATOM     22  C   UNL     1       1.883   5.364  18.053  0.00  0.00    +0.000 A 
BRANCH  21  23
ATOM     23  C   UNL     1       2.543   7.781  18.270  0.00  0.00    +0.000 C 
ATOM     24  F   UNL     1       3.815   7.747  17.786  0.00  0.00    +0.000 F 
ATOM     25  F   UNL     1       1.754   8.165  17.226  0.00  0.00    +0.000 F 
ATOM     26  F   UNL     1       2.507   8.813  19.158  0.00  0.00    +0.000 F 
ENDBRANCH  21  23
ENDBRANCH  16  17
ENDBRANCH  15  16
ENDBRANCH  14  15
ENDBRANCH   1  14
TORSDOF 13
ENDMDL
MODEL 5
REMARK VINA RESULT:      -6.7      2.328      3.919
REMARK  Name = 
REMARK  15 active torsions:
REMARK  status: ('A' for Active; 'I' for Inactive)
REMARK    1  A    between atoms: C_1  and  C_2
REMARK    2  A    between atoms: C_2  and  C_3
REMARK    3  A    between atoms: C_3  and  C_5
REMARK    4  A    between atoms: C_5  and  C_6
REMARK    5  A    between atoms: C_5  and  C_23
REMARK    6  A    between atoms: C_6  and  C_7
REMARK    7  A    between atoms: C_7  and  C_8
REMARK    8  A    between atoms: C_8  and  C_9
REMARK    9  A    between atoms: C_9  and  C_10
REMARK   10  A    between atoms: C_10  and  C_11
REMARK   11  A    between atoms: C_11  and  O_12
REMARK   12  A    between atoms: O_12  and  C_13
REMARK   13  A    between atoms: C_17  and  C_18
REMARK   14  A    between atoms: C_23  and  C_25
REMARK   15  A    between atoms: C_25  and  C_26
REMARK                            x       y       z     vdW  Elec       q    Type
REMARK                         _______ _______ _______ _____ _____    ______ ____
ROOT
ATOM      1  C   UNL     1       4.212   1.857  20.431  0.00  0.00    +0.000 C 
ENDROOT
BRANCH   1   2
ATOM      2  C   UNL     1       4.742   2.124  19.014  0.00  0.00    +0.000 C 
BRANCH   2   3
ATOM      3  C   UNL     1       4.913   3.620  18.750  0.00  0.00    +0.000 C 
BRANCH   3   4
ATOM      4  C   UNL     1       5.056   3.952  17.262  0.00  0.00    +0.000 C 
BRANCH   4   5
ATOM      5  C   UNL     1       5.874   5.234  17.007  0.00  0.00    +0.000 C 
BRANCH   5   6
ATOM      6  C   UNL     1       5.887   5.633  15.534  0.00  0.00    +0.000 C 
ATOM      7  O   UNL     1       5.258   6.610  15.120  0.00  0.00    +0.000 OA
BRANCH   6   9
ATOM      8  C   UNL     1       5.996   3.858  13.761  0.00  0.00    +0.000 C 
ATOM      9  C   UNL     1       6.792   4.838  14.608  0.00  0.00    +0.000 C 
ENDBRANCH   6   9
ENDBRANCH   5   6
BRANCH   5  10
ATOM     10  C   UNL     1       7.261   5.128  17.621  0.00  0.00    +0.000 C 
ATOM     11  O   UNL     1       8.035   4.219  17.327  0.00  0.00    +0.000 OA
BRANCH  10  12
ATOM     12  C   UNL     1       7.672   6.236  18.580  0.00  0.00    +0.000 C 
ATOM     13  C   UNL     1       7.795   7.583  17.890  0.00  0.00    +0.000 C 
ENDBRANCH  10  12
ENDBRANCH   5  10
ENDBRANCH   4   5
ENDBRANCH   3   4
ENDBRANCH   2   3
ENDBRANCH   1   2
BRANCH   1  14
ATOM     14  C   UNL     1       3.475   3.037  21.074  0.00  0.00    +0.000 C 
BRANCH  14  15
ATOM     15  C   UNL     1       2.166   2.608  21.726  0.00  0.00    +0.000 C 
BRANCH  15  16
ATOM     16  O   UNL     1       1.107   3.436  21.252  0.00  0.00    +0.000 OA
BRANCH  16  17
ATOM     17  C   UNL     1       1.334   4.066  20.057  0.00  0.00    +0.000 A 
ATOM     18  C   UNL     1       1.146   3.271  18.926  0.00  0.00    +0.000 A 
ATOM     19  C   UNL     1       1.372   3.789  17.651  0.00  0.00    +0.000 A 
ATOM     20  C   UNL     1       1.796   5.109  17.497  0.00  0.00    +0.000 A 
ATOM     21  C   UNL     1       1.988   5.924  18.620  0.00  0.00    +0.000 A 
ATOM     22  C   UNL     1       1.745   5.392  19.898  0.00  0.00    +0.000 A 
BRANCH  21  23
ATOM     23  C   UNL     1       2.455   7.351  18.491  0.00  0.00    +0.000 C 
ATOM     24  F   UNL     1       2.341   8.073  19.640  0.00  0.00    +0.000 F 
ATOM     25  F   UNL     1       3.765   7.436  18.124  0.00  0.00    +0.000 F 
ATOM     26  F   UNL     1       1.761   8.041  17.544  0.00  0.00    +0.000 F 
ENDBRANCH  21  23
ENDBRANCH  16  17
ENDBRANCH  15  16
ENDBRANCH  14  15
ENDBRANCH   1  14
TORSDOF 13
ENDMDL
MODEL 6
REMARK VINA RESULT:      -6.7      1.412      1.798
REMARK  Name = 
REMARK  15 active torsions:
REMARK  status: ('A' for Active; 'I' for Inactive)
REMARK    1  A    between atoms: C_1  and  C_2
REMARK    2  A    between atoms: C_2  and  C_3
REMARK    3  A    between atoms: C_3  and  C_5
REMARK    4  A    between atoms: C_5  and  C_6
REMARK    5  A    between atoms: C_5  and  C_23
REMARK    6  A    between atoms: C_6  and  C_7
REMARK    7  A    between atoms: C_7  and  C_8
REMARK    8  A    between atoms: C_8  and  C_9
REMARK    9  A    between atoms: C_9  and  C_10
REMARK   10  A    between atoms: C_10  and  C_11
REMARK   11  A    between atoms: C_11  and  O_12
REMARK   12  A    between atoms: O_12  and  C_13
REMARK   13  A    between atoms: C_17  and  C_18
REMARK   14  A    between atoms: C_23  and  C_25
REMARK   15  A    between atoms: C_25  and  C_26
REMARK                            x       y       z     vdW  Elec       q    Type
REMARK                         _______ _______ _______ _____ _____    ______ ____
ROOT
ATOM      1  C   UNL     1       3.278   3.291  19.136  0.00  0.00    +0.000 C 
ENDROOT
BRANCH   1   2
ATOM      2  C   UNL     1       3.875   2.774  17.818  0.00  0.00    +0.000 C 
BRANCH   2   3
ATOM      3  C   UNL     1       4.313   3.923  16.910  0.00  0.00    +0.000 C 
BRANCH   3   4
ATOM      4  C   UNL     1       5.539   3.578  16.059  0.00  0.00    +0.000 C 
BRANCH   4   5
ATOM      5  C   UNL     1       6.437   4.799  15.775  0.00  0.00    +0.000 C 
BRANCH   5   6
ATOM      6  C   UNL     1       5.803   6.109  16.237  0.00  0.00    +0.000 C 
ATOM      7  O   UNL     1       5.039   6.752  15.513  0.00  0.00    +0.000 OA
BRANCH   6   9
ATOM      8  C   UNL     1       7.532   6.365  18.040  0.00  0.00    +0.000 C 
ATOM      9  C   UNL     1       6.068   6.540  17.670  0.00  0.00    +0.000 C 
ENDBRANCH   6   9
ENDBRANCH   5   6
BRANCH   5  10
ATOM     10  C   UNL     1       6.887   4.820  14.323  0.00  0.00    +0.000 C 
ATOM     11  O   UNL     1       7.861   5.472  13.952  0.00  0.00    +0.000 OA
BRANCH  10  12
ATOM     12  C   UNL     1       6.107   3.945  13.352  0.00  0.00    +0.000 C 
ATOM     13  C   UNL     1       6.893   3.637  12.090  0.00  0.00    +0.000 C 
ENDBRANCH  10  12
ENDBRANCH   5  10
ENDBRANCH   4   5
ENDBRANCH   3   4
ENDBRANCH   2   3
ENDBRANCH   1   2
BRANCH   1  14
ATOM     14  C   UNL     1       2.163   4.330  18.972  0.00  0.00    +0.000 C 
BRANCH  14  15
ATOM     15  C   UNL     1       2.225   5.411  20.043  0.00  0.00    +0.000 C 
BRANCH  15  16
ATOM     16  O   UNL     1       2.724   6.618  19.471  0.00  0.00    +0.000 OA
BRANCH  16  17
ATOM     17  C   UNL     1       1.989   7.745  19.726  0.00  0.00    +0.000 A 
ATOM     18  C   UNL     1       1.921   8.656  18.672  0.00  0.00    +0.000 A 
ATOM     19  C   UNL     1       1.224   9.856  18.816  0.00  0.00    +0.000 A 
ATOM     20  C   UNL     1       0.593  10.156  20.023  0.00  0.00    +0.000 A 
ATOM     21  C   UNL     1       0.646   9.253  21.092  0.00  0.00    +0.000 A 
ATOM     22  C   UNL     1       1.342   8.044  20.928  0.00  0.00    +0.000 A 
BRANCH  21  23
ATOM     23  C   UNL     1      -0.016   9.551  22.413  0.00  0.00    +0.000 C 
ATOM     24  F   UNL     1      -0.598  10.780  22.472  0.00  0.00    +0.000 F 
ATOM     25  F   UNL     1      -1.000   8.656  22.712  0.00  0.00    +0.000 F 
ATOM     26  F   UNL     1       0.859   9.500  23.456  0.00  0.00    +0.000 F 
ENDBRANCH  21  23
ENDBRANCH  16  17
ENDBRANCH  15  16
ENDBRANCH  14  15
ENDBRANCH   1  14
TORSDOF 13
ENDMDL
MODEL 7
REMARK VINA RESULT:      -6.6      4.407      7.078
REMARK  Name = 
REMARK  15 active torsions:
REMARK  status: ('A' for Active; 'I' for Inactive)
REMARK    1  A    between atoms: C_1  and  C_2
REMARK    2  A    between atoms: C_2  and  C_3
REMARK    3  A    between atoms: C_3  and  C_5
REMARK    4  A    between atoms: C_5  and  C_6
REMARK    5  A    between atoms: C_5  and  C_23
REMARK    6  A    between atoms: C_6  and  C_7
REMARK    7  A    between atoms: C_7  and  C_8
REMARK    8  A    between atoms: C_8  and  C_9
REMARK    9  A    between atoms: C_9  and  C_10
REMARK   10  A    between atoms: C_10  and  C_11
REMARK   11  A    between atoms: C_11  and  O_12
REMARK   12  A    between atoms: O_12  and  C_13
REMARK   13  A    between atoms: C_17  and  C_18
REMARK   14  A    between atoms: C_23  and  C_25
REMARK   15  A    between atoms: C_25  and  C_26
REMARK                            x       y       z     vdW  Elec       q    Type
REMARK                         _______ _______ _______ _____ _____    ______ ____
ROOT
ATOM      1  C   UNL     1       7.556   7.418  18.144  0.00  0.00    +0.000 C 
ENDROOT
BRANCH   1   2
ATOM      2  C   UNL     1       8.059   8.764  17.599  0.00  0.00    +0.000 C 
BRANCH   2   3
ATOM      3  C   UNL     1       8.789   9.568  18.674  0.00  0.00    +0.000 C 
BRANCH   3   4
ATOM      4  C   UNL     1       9.206  10.963  18.198  0.00  0.00    +0.000 C 
BRANCH   4   5
ATOM      5  C   UNL     1       9.852  11.811  19.311  0.00  0.00    +0.000 C 
BRANCH   5   6
ATOM      6  C   UNL     1       9.042  13.066  19.630  0.00  0.00    +0.000 C 
ATOM      7  O   UNL     1       8.307  13.595  18.793  0.00  0.00    +0.000 OA
BRANCH   6   9
ATOM      8  C   UNL     1       9.370  12.458  22.045  0.00  0.00    +0.000 C 
ATOM      9  C   UNL     1       9.098  13.583  21.058  0.00  0.00    +0.000 C 
ENDBRANCH   6   9
ENDBRANCH   5   6
BRANCH   5  10
ATOM     10  C   UNL     1      11.314  12.092  19.005  0.00  0.00    +0.000 C 
ATOM     11  O   UNL     1      12.200  11.277  19.258  0.00  0.00    +0.000 OA
BRANCH  10  12
ATOM     12  C   UNL     1      11.628  13.410  18.313  0.00  0.00    +0.000 C 
ATOM     13  C   UNL     1      11.658  13.279  16.800  0.00  0.00    +0.000 C 
ENDBRANCH  10  12
ENDBRANCH   5  10
ENDBRANCH   4   5
ENDBRANCH   3   4
ENDBRANCH   2   3
ENDBRANCH   1   2
BRANCH   1  14
ATOM     14  C   UNL     1       7.403   6.315  17.090  0.00  0.00    +0.000 C 
BRANCH  14  15
ATOM     15  C   UNL     1       6.026   6.331  16.440  0.00  0.00    +0.000 C 
BRANCH  15  16
ATOM     16  O   UNL     1       5.060   6.784  17.386  0.00  0.00    +0.000 OA
BRANCH  16  17
ATOM     17  C   UNL     1       4.171   5.840  17.826  0.00  0.00    +0.000 A 
ATOM     18  C   UNL     1       4.027   4.731  16.992  0.00  0.00    +0.000 A 
ATOM     19  C   UNL     1       3.131   3.712  17.317  0.00  0.00    +0.000 A 
ATOM     20  C   UNL     1       2.366   3.799  18.480  0.00  0.00    +0.000 A 
ATOM     21  C   UNL     1       2.498   4.902  19.332  0.00  0.00    +0.000 A 
ATOM     22  C   UNL     1       3.413   5.915  18.997  0.00  0.00    +0.000 A 
BRANCH  21  23
ATOM     23  C   UNL     1       1.679   5.033  20.590  0.00  0.00    +0.000 C 
ATOM     24  F   UNL     1       1.295   6.310  20.866  0.00  0.00    +0.000 F 
ATOM     25  F   UNL     1       0.532   4.299  20.540  0.00  0.00    +0.000 F 
ATOM     26  F   UNL     1       2.349   4.596  21.693  0.00  0.00    +0.000 F 
ENDBRANCH  21  23
ENDBRANCH  16  17
ENDBRANCH  15  16
ENDBRANCH  14  15
ENDBRANCH   1  14
TORSDOF 13
ENDMDL
MODEL 8
REMARK VINA RESULT:      -6.6      3.042      4.860
REMARK  Name = 
REMARK  15 active torsions:
REMARK  status: ('A' for Active; 'I' for Inactive)
REMARK    1  A    between atoms: C_1  and  C_2
REMARK    2  A    between atoms: C_2  and  C_3
REMARK    3  A    between atoms: C_3  and  C_5
REMARK    4  A    between atoms: C_5  and  C_6
REMARK    5  A    between atoms: C_5  and  C_23
REMARK    6  A    between atoms: C_6  and  C_7
REMARK    7  A    between atoms: C_7  and  C_8
REMARK    8  A    between atoms: C_8  and  C_9
REMARK    9  A    between atoms: C_9  and  C_10
REMARK   10  A    between atoms: C_10  and  C_11
REMARK   11  A    between atoms: C_11  and  O_12
REMARK   12  A    between atoms: O_12  and  C_13
REMARK   13  A    between atoms: C_17  and  C_18
REMARK   14  A    between atoms: C_23  and  C_25
REMARK   15  A    between atoms: C_25  and  C_26
REMARK                            x       y       z     vdW  Elec       q    Type
REMARK                         _______ _______ _______ _____ _____    ______ ____
ROOT
ATOM      1  C   UNL     1       2.169   8.067  18.843  0.00  0.00    +0.000 C 
ENDROOT
BRANCH   1   2
ATOM      2  C   UNL     1       2.205   6.640  18.274  0.00  0.00    +0.000 C 
BRANCH   2   3
ATOM      3  C   UNL     1       2.424   5.601  19.374  0.00  0.00    +0.000 C 
BRANCH   3   4
ATOM      4  C   UNL     1       3.892   5.197  19.531  0.00  0.00    +0.000 C 
BRANCH   4   5
ATOM      5  C   UNL     1       4.331   4.118  18.521  0.00  0.00    +0.000 C 
BRANCH   5   6
ATOM      6  C   UNL     1       4.317   2.716  19.123  0.00  0.00    +0.000 C 
ATOM      7  O   UNL     1       4.830   2.473  20.218  0.00  0.00    +0.000 OA
BRANCH   6   9
ATOM      8  C   UNL     1       2.204   2.160  17.884  0.00  0.00    +0.000 C 
ATOM      9  C   UNL     1       3.550   1.644  18.366  0.00  0.00    +0.000 C 
ENDBRANCH   6   9
ENDBRANCH   5   6
BRANCH   5  10
ATOM     10  C   UNL     1       5.654   4.487  17.869  0.00  0.00    +0.000 C 
ATOM     11  O   UNL     1       6.717   4.452  18.488  0.00  0.00    +0.000 OA
BRANCH  10  12
ATOM     12  C   UNL     1       5.613   4.849  16.392  0.00  0.00    +0.000 C 
ATOM     13  C   UNL     1       5.156   6.279  16.158  0.00  0.00    +0.000 C 
ENDBRANCH  10  12
ENDBRANCH   5  10
ENDBRANCH   4   5
ENDBRANCH   3   4
ENDBRANCH   2   3
ENDBRANCH   1   2
BRANCH   1  14
ATOM     14  C   UNL     1       1.936   9.167  17.802  0.00  0.00    +0.000 C 
BRANCH  14  15
ATOM     15  C   UNL     1       1.544  10.491  18.446  0.00  0.00    +0.000 C 
BRANCH  15  16
ATOM     16  O   UNL     1       0.475  10.274  19.364  0.00  0.00    +0.000 OA
BRANCH  16  17
ATOM     17  C   UNL     1      -0.751  10.741  18.970  0.00  0.00    +0.000 A 
ATOM     18  C   UNL     1      -1.386  11.578  19.888  0.00  0.00    +0.000 A 
ATOM     19  C   UNL     1      -2.652  12.097  19.616  0.00  0.00    +0.000 A 
ATOM     20  C   UNL     1      -3.296  11.777  18.420  0.00  0.00    +0.000 A 
ATOM     21  C   UNL     1      -2.673  10.941  17.485  0.00  0.00    +0.000 A 
ATOM     22  C   UNL     1      -1.393  10.435  17.768  0.00  0.00    +0.000 A 
BRANCH  21  23
ATOM     23  C   UNL     1      -3.345  10.566  16.188  0.00  0.00    +0.000 C 
ATOM     24  F   UNL     1      -4.686  10.803  16.176  0.00  0.00    +0.000 F 
ATOM     25  F   UNL     1      -2.834  11.248  15.124  0.00  0.00    +0.000 F 
ATOM     26  F   UNL     1      -3.195   9.246  15.888  0.00  0.00    +0.000 F 
ENDBRANCH  21  23
ENDBRANCH  16  17
ENDBRANCH  15  16
ENDBRANCH  14  15
ENDBRANCH   1  14
TORSDOF 13
ENDMDL
MODEL 9
REMARK VINA RESULT:      -6.5      3.639      5.046
REMARK  Name = 
REMARK  15 active torsions:
REMARK  status: ('A' for Active; 'I' for Inactive)
REMARK    1  A    between atoms: C_1  and  C_2
REMARK    2  A    between atoms: C_2  and  C_3
REMARK    3  A    between atoms: C_3  and  C_5
REMARK    4  A    between atoms: C_5  and  C_6
REMARK    5  A    between atoms: C_5  and  C_23
REMARK    6  A    between atoms: C_6  and  C_7
REMARK    7  A    between atoms: C_7  and  C_8
REMARK    8  A    between atoms: C_8  and  C_9
REMARK    9  A    between atoms: C_9  and  C_10
REMARK   10  A    between atoms: C_10  and  C_11
REMARK   11  A    between atoms: C_11  and  O_12
REMARK   12  A    between atoms: O_12  and  C_13
REMARK   13  A    between atoms: C_17  and  C_18
REMARK   14  A    between atoms: C_23  and  C_25
REMARK   15  A    between atoms: C_25  and  C_26
REMARK                            x       y       z     vdW  Elec       q    Type
REMARK                         _______ _______ _______ _____ _____    ______ ____
ROOT
ATOM      1  C   UNL     1       2.516   6.650  17.949  0.00  0.00    +0.000 C 
ENDROOT
BRANCH   1   2
ATOM      2  C   UNL     1       3.043   5.273  17.513  0.00  0.00    +0.000 C 
BRANCH   2   3
ATOM      3  C   UNL     1       4.373   5.389  16.770  0.00  0.00    +0.000 C 
BRANCH   3   4
ATOM      4  C   UNL     1       5.077   4.041  16.590  0.00  0.00    +0.000 C 
BRANCH   4   5
ATOM      5  C   UNL     1       6.587   4.183  16.308  0.00  0.00    +0.000 C 
BRANCH   5   6
ATOM      6  C   UNL     1       7.305   5.001  17.379  0.00  0.00    +0.000 C 
ATOM      7  O   UNL     1       7.996   4.466  18.250  0.00  0.00    +0.000 OA
BRANCH   6   9
ATOM      8  C   UNL     1       8.099   7.196  18.305  0.00  0.00    +0.000 C 
ATOM      9  C   UNL     1       7.220   6.514  17.270  0.00  0.00    +0.000 C 
ENDBRANCH   6   9
ENDBRANCH   5   6
BRANCH   5  10
ATOM     10  C   UNL     1       6.833   4.683  14.894  0.00  0.00    +0.000 C 
ATOM     11  O   UNL     1       7.761   5.444  14.625  0.00  0.00    +0.000 OA
BRANCH  10  12
ATOM     12  C   UNL     1       5.909   4.150  13.809  0.00  0.00    +0.000 C 
ATOM     13  C   UNL     1       6.668   3.690  12.575  0.00  0.00    +0.000 C 
ENDBRANCH  10  12
ENDBRANCH   5  10
ENDBRANCH   4   5
ENDBRANCH   3   4
ENDBRANCH   2   3
ENDBRANCH   1   2
BRANCH   1  14
ATOM     14  C   UNL     1       2.861   7.043  19.389  0.00  0.00    +0.000 C 
BRANCH  14  15
ATOM     15  C   UNL     1       1.619   7.155  20.265  0.00  0.00    +0.000 C 
BRANCH  15  16
ATOM     16  O   UNL     1       1.601   6.080  21.202  0.00  0.00    +0.000 OA
BRANCH  16  17
ATOM     17  C   UNL     1       1.801   4.831  20.677  0.00  0.00    +0.000 A 
ATOM     18  C   UNL     1       0.650   4.198  20.205  0.00  0.00    +0.000 A 
ATOM     19  C   UNL     1       0.718   2.911  19.672  0.00  0.00    +0.000 A 
ATOM     20  C   UNL     1       1.942   2.243  19.611  0.00  0.00    +0.000 A 
ATOM     21  C   UNL     1       3.108   2.863  20.075  0.00  0.00    +0.000 A 
ATOM     22  C   UNL     1       3.026   4.164  20.600  0.00  0.00    +0.000 A 
BRANCH  21  23
ATOM     23  C   UNL     1       4.444   2.166  20.034  0.00  0.00    +0.000 C 
ATOM     24  F   UNL     1       4.500   1.137  19.145  0.00  0.00    +0.000 F 
ATOM     25  F   UNL     1       5.458   3.011  19.694  0.00  0.00    +0.000 F 
ATOM     26  F   UNL     1       4.792   1.638  21.241  0.00  0.00    +0.000 F 
ENDBRANCH  21  23
ENDBRANCH  16  17
ENDBRANCH  15  16
ENDBRANCH  14  15
ENDBRANCH   1  14
TORSDOF 13
ENDMDL
