MODEL 1
REMARK VINA RESULT:      -8.0      0.000      0.000
REMARK  Name = 
REMARK  11 active torsions:
REMARK  status: ('A' for Active; 'I' for Inactive)
REMARK    1  A    between atoms: C_1  and  C_2
REMARK    2  A    between atoms: C_2  and  C_3
REMARK    3  A    between atoms: C_2  and  C_4
REMARK    4  A    between atoms: C_2  and  N_5
REMARK    5  A    between atoms: C_6  and  C_8
REMARK    6  A    between atoms: C_8  and  O_9
REMARK    7  A    between atoms: O_9  and  C_10
REMARK    8  A    between atoms: C_13  and  C_14
REMARK    9  A    between atoms: C_14  and  N_15
REMARK   10  A    between atoms: N_15  and  C_16
REMARK   11  A    between atoms: C_16  and  C_17
REMARK                            x       y       z     vdW  Elec       q    Type
REMARK                         _______ _______ _______ _____ _____    ______ ____
ROOT
ATOM      1  C   UNL     1       7.737   6.935  18.170  0.00  0.00    +0.000 A 
ATOM      2  C   UNL     1       7.814   5.592  18.536  0.00  0.00    +0.000 A 
ATOM      3  C   UNL     1       7.019   4.649  17.889  0.00  0.00    +0.000 A 
ATOM      4  C   UNL     1       6.109   5.039  16.896  0.00  0.00    +0.000 A 
ATOM      5  C   UNL     1       6.020   6.392  16.551  0.00  0.00    +0.000 A 
ATOM      6  C   UNL     1       6.829   7.335  17.190  0.00  0.00    +0.000 A 
ENDROOT
BRANCH   1   7
ATOM      7  O   UNL     1       8.498   7.933  18.718  0.00  0.00    +0.000 OA
BRANCH   7   8
ATOM      8  C   UNL     1       8.328   9.207  18.101  0.00  0.00    +0.000 C 
BRANCH   8  10
ATOM      9  N   UNL     1       9.785  11.156  17.927  0.00  0.00    +0.000 N 
ATOM     10  C   UNL     1       9.169  10.275  18.783  0.00  0.00    +0.000 C 
ATOM     11  O   UNL     1       9.274  10.307  20.009  0.00  0.00    +0.000 OA
ATOM     12  H   UNL     1       9.619  11.000  16.938  0.00  0.00    +0.000 HD
BRANCH   9  14
ATOM     13  C   UNL     1      11.892  11.639  19.116  0.00  0.00    +0.000 C 
ATOM     14  C   UNL     1      10.700  12.223  18.342  0.00  0.00    +0.000 C 
ATOM     15  C   UNL     1       9.963  13.266  19.196  0.00  0.00    +0.000 C 
ATOM     16  C   UNL     1      11.240  12.922  17.080  0.00  0.00    +0.000 C 
ENDBRANCH   9  14
ENDBRANCH   8  10
ENDBRANCH   7   8
ENDBRANCH   1   7
BRANCH   4  17
ATOM     17  C   UNL     1       5.218   4.001  16.258  0.00  0.00    +0.000 C 
BRANCH  17  18
ATOM     18  N   UNL     1       4.572   3.213  17.303  0.00  0.00    +0.000 NA
ATOM     19  H   UNL     1       5.010   3.433  18.198  0.00  0.00    +0.000 HD
BRANCH  18  20
ATOM     20  C   UNL     1       3.142   3.507  17.402  0.00  0.00    +0.000 C 
BRANCH  20  21
ATOM     21  C   UNL     1       2.654   3.380  18.833  0.00  0.00    +0.000 A 
ATOM     22  C   UNL     1       1.362   3.782  19.173  0.00  0.00    +0.000 A 
ATOM     23  C   UNL     1       0.932   3.630  20.489  0.00  0.00    +0.000 A 
ATOM     24  C   UNL     1       1.799   3.083  21.425  0.00  0.00    +0.000 A 
ATOM     25  C   UNL     1       3.063   2.706  21.006  0.00  0.00    +0.000 A 
ATOM     26  N   UNL     1       3.509   2.839  19.738  0.00  0.00    +0.000 NA
ENDBRANCH  20  21
ENDBRANCH  18  20
ENDBRANCH  17  18
ENDBRANCH   4  17
TORSDOF 8
ENDMDL
MODEL 2
REMARK VINA RESULT:      -7.7      0.626      1.032
REMARK  Name = 
REMARK  11 active torsions:
REMARK  status: ('A' for Active; 'I' for Inactive)
REMARK    1  A    between atoms: C_1  and  C_2
REMARK    2  A    between atoms: C_2  and  C_3
REMARK    3  A    between atoms: C_2  and  C_4
REMARK    4  A    between atoms: C_2  and  N_5
REMARK    5  A    between atoms: C_6  and  C_8
REMARK    6  A    between atoms: C_8  and  O_9
REMARK    7  A    between atoms: O_9  and  C_10
REMARK    8  A    between atoms: C_13  and  C_14
REMARK    9  A    between atoms: C_14  and  N_15
REMARK   10  A    between atoms: N_15  and  C_16
REMARK   11  A    between atoms: C_16  and  C_17
REMARK                            x       y       z     vdW  Elec       q    Type
REMARK                         _______ _______ _______ _____ _____    ______ ____
ROOT
ATOM      1  C   UNL     1       7.766   6.940  18.204  0.00  0.00    +0.000 A 
ATOM      2  C   UNL     1       7.744   5.625  18.668  0.00  0.00    +0.000 A 
ATOM      3  C   UNL     1       6.923   4.685  18.050  0.00  0.00    +0.000 A 
ATOM      4  C   UNL     1       6.086   5.053  16.987  0.00  0.00    +0.000 A 
ATOM      5  C   UNL     1       6.096   6.380  16.543  0.00  0.00    +0.000 A 
ATOM      6  C   UNL     1       6.930   7.319  17.154  0.00  0.00    +0.000 A 
ENDROOT
BRANCH   1   7
ATOM      7  O   UNL     1       8.560   7.930  18.718  0.00  0.00    +0.000 OA
BRANCH   7   8
ATOM      8  C   UNL     1       8.319   9.222  18.166  0.00  0.00    +0.000 C 
BRANCH   8  10
ATOM      9  N   UNL     1       9.812  11.143  17.974  0.00  0.00    +0.000 N 
ATOM     10  C   UNL     1       9.174  10.285  18.839  0.00  0.00    +0.000 C 
ATOM     11  O   UNL     1       9.271  10.334  20.064  0.00  0.00    +0.000 OA
ATOM     12  H   UNL     1       9.649  10.975  16.986  0.00  0.00    +0.000 HD
BRANCH   9  14
ATOM     13  C   UNL     1      11.937  11.603  19.140  0.00  0.00    +0.000 C 
ATOM     14  C   UNL     1      10.742  12.200  18.380  0.00  0.00    +0.000 C 
ATOM     15  C   UNL     1      10.025  13.249  19.245  0.00  0.00    +0.000 C 
ATOM     16  C   UNL     1      11.274  12.895  17.113  0.00  0.00    +0.000 C 
ENDBRANCH   9  14
ENDBRANCH   8  10
ENDBRANCH   7   8
ENDBRANCH   1   7
BRANCH   4  17
ATOM     17  C   UNL     1       5.163   4.024  16.379  0.00  0.00    +0.000 C 
BRANCH  17  18
ATOM     18  N   UNL     1       3.921   3.980  17.146  0.00  0.00    +0.000 NA
ATOM     19  H   UNL     1       3.137   4.136  16.511  0.00  0.00    +0.000 HD
BRANCH  18  20
ATOM     20  C   UNL     1       3.733   2.687  17.804  0.00  0.00    +0.000 C 
BRANCH  20  21
ATOM     21  C   UNL     1       2.879   2.825  19.050  0.00  0.00    +0.000 A 
ATOM     22  C   UNL     1       3.426   2.578  20.309  0.00  0.00    +0.000 A 
ATOM     23  C   UNL     1       2.624   2.739  21.437  0.00  0.00    +0.000 A 
ATOM     24  C   UNL     1       1.304   3.138  21.278  0.00  0.00    +0.000 A 
ATOM     25  C   UNL     1       0.839   3.366  19.995  0.00  0.00    +0.000 A 
ATOM     26  N   UNL     1       1.591   3.222  18.882  0.00  0.00    +0.000 NA
ENDBRANCH  20  21
ENDBRANCH  18  20
ENDBRANCH  17  18
ENDBRANCH   4  17
TORSDOF 8
ENDMDL
MODEL 3
REMARK VINA RESULT:      -7.6      4.852      6.667
REMARK  Name = 
REMARK  11 active torsions:
REMARK  status: ('A' for Active; 'I' for Inactive)
REMARK    1  A    between atoms: C_1  and  C_2
REMARK    2  A    between atoms: C_2  and  C_3
REMARK    3  A    between atoms: C_2  and  C_4
REMARK    4  A    between atoms: C_2  and  N_5
REMARK    5  A    between atoms: C_6  and  C_8
REMARK    6  A    between atoms: C_8  and  O_9
REMARK    7  A    between atoms: O_9  and  C_10
REMARK    8  A    between atoms: C_13  and  C_14
REMARK    9  A    between atoms: C_14  and  N_15
REMARK   10  A    between atoms: N_15  and  C_16
REMARK   11  A    between atoms: C_16  and  C_17
REMARK                            x       y       z     vdW  Elec       q    Type
REMARK                         _______ _______ _______ _____ _____    ______ ____
ROOT
ATOM      1  C   UNL     1       5.706   5.564  17.359  0.00  0.00    +0.000 A 
ATOM      2  C   UNL     1       4.536   6.072  16.796  0.00  0.00    +0.000 A 
ATOM      3  C   UNL     1       3.461   6.408  17.615  0.00  0.00    +0.000 A 
ATOM      4  C   UNL     1       3.525   6.205  19.002  0.00  0.00    +0.000 A 
ATOM      5  C   UNL     1       4.694   5.672  19.556  0.00  0.00    +0.000 A 
ATOM      6  C   UNL     1       5.777   5.350  18.735  0.00  0.00    +0.000 A 
ENDROOT
BRANCH   1   7
ATOM      7  O   UNL     1       6.829   5.236  16.648  0.00  0.00    +0.000 OA
BRANCH   7   8
ATOM      8  C   UNL     1       6.719   4.028  15.899  0.00  0.00    +0.000 C 
BRANCH   8  10
ATOM      9  N   UNL     1       6.159   3.243  13.657  0.00  0.00    +0.000 N 
ATOM     10  C   UNL     1       6.606   4.305  14.407  0.00  0.00    +0.000 C 
ATOM     11  O   UNL     1       6.912   5.403  13.945  0.00  0.00    +0.000 OA
ATOM     12  H   UNL     1       5.957   2.392  14.173  0.00  0.00    +0.000 HD
BRANCH   9  14
ATOM     13  C   UNL     1       7.116   4.137  11.566  0.00  0.00    +0.000 C 
ATOM     14  C   UNL     1       6.036   3.244  12.197  0.00  0.00    +0.000 C 
ATOM     15  C   UNL     1       4.636   3.712  11.772  0.00  0.00    +0.000 C 
ATOM     16  C   UNL     1       6.243   1.804  11.689  0.00  0.00    +0.000 C 
ENDBRANCH   9  14
ENDBRANCH   8  10
ENDBRANCH   7   8
ENDBRANCH   1   7
BRANCH   4  17
ATOM     17  C   UNL     1       2.320   6.521  19.854  0.00  0.00    +0.000 C 
BRANCH  17  18
ATOM     18  N   UNL     1       2.186   5.505  20.893  0.00  0.00    +0.000 NA
ATOM     19  H   UNL     1       1.781   5.936  21.725  0.00  0.00    +0.000 HD
BRANCH  18  20
ATOM     20  C   UNL     1       1.317   4.406  20.472  0.00  0.00    +0.000 C 
BRANCH  20  21
ATOM     21  C   UNL     1       2.078   3.396  19.633  0.00  0.00    +0.000 A 
ATOM     22  C   UNL     1       1.688   3.137  18.319  0.00  0.00    +0.000 A 
ATOM     23  C   UNL     1       2.422   2.225  17.565  0.00  0.00    +0.000 A 
ATOM     24  C   UNL     1       3.518   1.597  18.140  0.00  0.00    +0.000 A 
ATOM     25  C   UNL     1       3.840   1.911  19.449  0.00  0.00    +0.000 A 
ATOM     26  N   UNL     1       3.151   2.793  20.205  0.00  0.00    +0.000 NA
ENDBRANCH  20  21
ENDBRANCH  18  20
ENDBRANCH  17  18
ENDBRANCH   4  17
TORSDOF 8
ENDMDL
MODEL 4
REMARK VINA RESULT:      -7.6      0.903      1.655
REMARK  Name = 
REMARK  11 active torsions:
REMARK  status: ('A' for Active; 'I' for Inactive)
REMARK    1  A    between atoms: C_1  and  C_2
REMARK    2  A    between atoms: C_2  and  C_3
REMARK    3  A    between atoms: C_2  and  C_4
REMARK    4  A    between atoms: C_2  and  N_5
REMARK    5  A    between atoms: C_6  and  C_8
REMARK    6  A    between atoms: C_8  and  O_9
REMARK    7  A    between atoms: O_9  and  C_10
REMARK    8  A    between atoms: C_13  and  C_14
REMARK    9  A    between atoms: C_14  and  N_15
REMARK   10  A    between atoms: N_15  and  C_16
REMARK   11  A    between atoms: C_16  and  C_17
REMARK                            x       y       z     vdW  Elec       q    Type
REMARK                         _______ _______ _______ _____ _____    ______ ____
ROOT
ATOM      1  C   UNL     1       7.832   7.118  18.122  0.00  0.00    +0.000 A 
ATOM      2  C   UNL     1       7.071   7.299  16.968  0.00  0.00    +0.000 A 
ATOM      3  C   UNL     1       6.399   6.217  16.403  0.00  0.00    +0.000 A 
ATOM      4  C   UNL     1       6.508   4.935  16.960  0.00  0.00    +0.000 A 
ATOM      5  C   UNL     1       7.294   4.757  18.104  0.00  0.00    +0.000 A 
ATOM      6  C   UNL     1       7.956   5.845  18.679  0.00  0.00    +0.000 A 
ENDROOT
BRANCH   1   7
ATOM      7  O   UNL     1       8.502   8.118  18.774  0.00  0.00    +0.000 OA
BRANCH   7   8
ATOM      8  C   UNL     1       8.392   9.398  18.156  0.00  0.00    +0.000 C 
BRANCH   8  10
ATOM      9  N   UNL     1       9.972  11.248  17.967  0.00  0.00    +0.000 N 
ATOM     10  C   UNL     1       9.291  10.423  18.830  0.00  0.00    +0.000 C 
ATOM     11  O   UNL     1       9.383  10.471  20.056  0.00  0.00    +0.000 OA
ATOM     12  H   UNL     1       9.808  11.084  16.979  0.00  0.00    +0.000 HD
BRANCH   9  14
ATOM     13  C   UNL     1      11.530  12.977  17.145  0.00  0.00    +0.000 C 
ATOM     14  C   UNL     1      10.948  12.263  18.375  0.00  0.00    +0.000 C 
ATOM     15  C   UNL     1      12.071  11.627  19.209  0.00  0.00    +0.000 C 
ATOM     16  C   UNL     1      10.228  13.309  19.246  0.00  0.00    +0.000 C 
ENDBRANCH   9  14
ENDBRANCH   8  10
ENDBRANCH   7   8
ENDBRANCH   1   7
BRANCH   4  17
ATOM     17  C   UNL     1       5.817   3.773  16.288  0.00  0.00    +0.000 C 
BRANCH  17  18
ATOM     18  N   UNL     1       4.747   3.284  17.152  0.00  0.00    +0.000 NA
ATOM     19  H   UNL     1       5.060   3.333  18.122  0.00  0.00    +0.000 HD
BRANCH  18  20
ATOM     20  C   UNL     1       3.530   4.084  17.017  0.00  0.00    +0.000 C 
BRANCH  20  21
ATOM     21  C   UNL     1       2.546   3.779  18.131  0.00  0.00    +0.000 A 
ATOM     22  C   UNL     1       2.473   4.606  19.252  0.00  0.00    +0.000 A 
ATOM     23  C   UNL     1       1.542   4.317  20.246  0.00  0.00    +0.000 A 
ATOM     24  C   UNL     1       0.713   3.212  20.096  0.00  0.00    +0.000 A 
ATOM     25  C   UNL     1       0.847   2.444  18.953  0.00  0.00    +0.000 A 
ATOM     26  N   UNL     1       1.738   2.700  17.971  0.00  0.00    +0.000 NA
ENDBRANCH  20  21
ENDBRANCH  18  20
ENDBRANCH  17  18
ENDBRANCH   4  17
TORSDOF 8
ENDMDL
MODEL 5
REMARK VINA RESULT:      -7.4      4.697      6.495
REMARK  Name = 
REMARK  11 active torsions:
REMARK  status: ('A' for Active; 'I' for Inactive)
REMARK    1  A    between atoms: C_1  and  C_2
REMARK    2  A    between atoms: C_2  and  C_3
REMARK    3  A    between atoms: C_2  and  C_4
REMARK    4  A    between atoms: C_2  and  N_5
REMARK    5  A    between atoms: C_6  and  C_8
REMARK    6  A    between atoms: C_8  and  O_9
REMARK    7  A    between atoms: O_9  and  C_10
REMARK    8  A    between atoms: C_13  and  C_14
REMARK    9  A    between atoms: C_14  and  N_15
REMARK   10  A    between atoms: N_15  and  C_16
REMARK   11  A    between atoms: C_16  and  C_17
REMARK                            x       y       z     vdW  Elec       q    Type
REMARK                         _______ _______ _______ _____ _____    ______ ____
ROOT
ATOM      1  C   UNL     1       5.814   5.859  17.385  0.00  0.00    +0.000 A 
ATOM      2  C   UNL     1       5.735   5.396  18.697  0.00  0.00    +0.000 A 
ATOM      3  C   UNL     1       4.586   5.631  19.448  0.00  0.00    +0.000 A 
ATOM      4  C   UNL     1       3.517   6.364  18.913  0.00  0.00    +0.000 A 
ATOM      5  C   UNL     1       3.614   6.847  17.603  0.00  0.00    +0.000 A 
ATOM      6  C   UNL     1       4.760   6.597  16.845  0.00  0.00    +0.000 A 
ENDROOT
BRANCH   1   7
ATOM      7  O   UNL     1       6.880   5.651  16.552  0.00  0.00    +0.000 OA
BRANCH   7   8
ATOM      8  C   UNL     1       6.878   4.384  15.899  0.00  0.00    +0.000 C 
BRANCH   8  10
ATOM      9  N   UNL     1       6.275   3.457  13.723  0.00  0.00    +0.000 N 
ATOM     10  C   UNL     1       6.809   4.536  14.386  0.00  0.00    +0.000 C 
ATOM     11  O   UNL     1       7.220   5.557  13.836  0.00  0.00    +0.000 OA
ATOM     12  H   UNL     1       5.990   2.677  14.307  0.00  0.00    +0.000 HD
BRANCH   9  14
ATOM     13  C   UNL     1       6.456   1.897  11.820  0.00  0.00    +0.000 C 
ATOM     14  C   UNL     1       6.171   3.339  12.266  0.00  0.00    +0.000 C 
ATOM     15  C   UNL     1       7.134   4.316  11.575  0.00  0.00    +0.000 C 
ATOM     16  C   UNL     1       4.732   3.698  11.849  0.00  0.00    +0.000 C 
ENDBRANCH   9  14
ENDBRANCH   8  10
ENDBRANCH   7   8
ENDBRANCH   1   7
BRANCH   4  17
ATOM     17  C   UNL     1       2.311   6.655  19.775  0.00  0.00    +0.000 C 
BRANCH  17  18
ATOM     18  N   UNL     1       2.226   5.657  20.836  0.00  0.00    +0.000 NA
ATOM     19  H   UNL     1       1.865   6.104  21.680  0.00  0.00    +0.000 HD
BRANCH  18  20
ATOM     20  C   UNL     1       1.335   4.555  20.478  0.00  0.00    +0.000 C 
BRANCH  20  21
ATOM     21  C   UNL     1       2.064   3.502  19.664  0.00  0.00    +0.000 A 
ATOM     22  C   UNL     1       1.701   3.260  18.339  0.00  0.00    +0.000 A 
ATOM     23  C   UNL     1       2.405   2.307  17.609  0.00  0.00    +0.000 A 
ATOM     24  C   UNL     1       3.448   1.621  18.219  0.00  0.00    +0.000 A 
ATOM     25  C   UNL     1       3.747   1.921  19.536  0.00  0.00    +0.000 A 
ATOM     26  N   UNL     1       3.084   2.842  20.270  0.00  0.00    +0.000 NA
ENDBRANCH  20  21
ENDBRANCH  18  20
ENDBRANCH  17  18
ENDBRANCH   4  17
TORSDOF 8
ENDMDL
MODEL 6
REMARK VINA RESULT:      -7.4      2.099      9.794
REMARK  Name = 
REMARK  11 active torsions:
REMARK  status: ('A' for Active; 'I' for Inactive)
REMARK    1  A    between atoms: C_1  and  C_2
REMARK    2  A    between atoms: C_2  and  C_3
REMARK    3  A    between atoms: C_2  and  C_4
REMARK    4  A    between atoms: C_2  and  N_5
REMARK    5  A    between atoms: C_6  and  C_8
REMARK    6  A    between atoms: C_8  and  O_9
REMARK    7  A    between atoms: O_9  and  C_10
REMARK    8  A    between atoms: C_13  and  C_14
REMARK    9  A    between atoms: C_14  and  N_15
REMARK   10  A    between atoms: N_15  and  C_16
REMARK   11  A    between atoms: C_16  and  C_17
REMARK                            x       y       z     vdW  Elec       q    Type
REMARK                         _______ _______ _______ _____ _____    ______ ____
ROOT
ATOM      1  C   UNL     1       6.280   5.241  18.300  0.00  0.00    +0.000 A 
ATOM      2  C   UNL     1       5.769   6.220  17.449  0.00  0.00    +0.000 A 
ATOM      3  C   UNL     1       6.452   7.423  17.286  0.00  0.00    +0.000 A 
ATOM      4  C   UNL     1       7.632   7.680  17.998  0.00  0.00    +0.000 A 
ATOM      5  C   UNL     1       8.126   6.702  18.869  0.00  0.00    +0.000 A 
ATOM      6  C   UNL     1       7.449   5.490  19.020  0.00  0.00    +0.000 A 
ENDROOT
BRANCH   1   7
ATOM      7  O   UNL     1       5.707   4.015  18.503  0.00  0.00    +0.000 OA
BRANCH   7   8
ATOM      8  C   UNL     1       4.645   3.707  17.604  0.00  0.00    +0.000 C 
BRANCH   8  10
ATOM      9  N   UNL     1       3.150   3.447  19.516  0.00  0.00    +0.000 N 
ATOM     10  C   UNL     1       3.285   3.947  18.242  0.00  0.00    +0.000 C 
ATOM     11  O   UNL     1       2.397   4.539  17.629  0.00  0.00    +0.000 OA
ATOM     12  H   UNL     1       3.963   2.969  19.890  0.00  0.00    +0.000 HD
BRANCH   9  14
ATOM     13  C   UNL     1       1.518   4.947  20.600  0.00  0.00    +0.000 C 
ATOM     14  C   UNL     1       1.916   3.492  20.305  0.00  0.00    +0.000 C 
ATOM     15  C   UNL     1       2.082   2.704  21.613  0.00  0.00    +0.000 C 
ATOM     16  C   UNL     1       0.787   2.840  19.484  0.00  0.00    +0.000 C 
ENDBRANCH   9  14
ENDBRANCH   8  10
ENDBRANCH   7   8
ENDBRANCH   1   7
BRANCH   4  17
ATOM     17  C   UNL     1       8.314   9.019  17.846  0.00  0.00    +0.000 C 
BRANCH  17  18
ATOM     18  N   UNL     1       9.174   9.254  19.002  0.00  0.00    +0.000 NA
ATOM     19  H   UNL     1      10.145   9.108  18.724  0.00  0.00    +0.000 HD
BRANCH  18  20
ATOM     20  C   UNL     1       9.039  10.618  19.512  0.00  0.00    +0.000 C 
BRANCH  20  21
ATOM     21  C   UNL     1      10.198  11.489  19.066  0.00  0.00    +0.000 A 
ATOM     22  C   UNL     1      11.239  11.782  19.947  0.00  0.00    +0.000 A 
ATOM     23  C   UNL     1      12.303  12.561  19.501  0.00  0.00    +0.000 A 
ATOM     24  C   UNL     1      12.299  13.027  18.193  0.00  0.00    +0.000 A 
ATOM     25  C   UNL     1      11.231  12.690  17.381  0.00  0.00    +0.000 A 
ATOM     26  N   UNL     1      10.186  11.934  17.783  0.00  0.00    +0.000 NA
ENDBRANCH  20  21
ENDBRANCH  18  20
ENDBRANCH  17  18
ENDBRANCH   4  17
TORSDOF 8
ENDMDL
MODEL 7
REMARK VINA RESULT:      -7.2      4.794      6.680
REMARK  Name = 
REMARK  11 active torsions:
REMARK  status: ('A' for Active; 'I' for Inactive)
REMARK    1  A    between atoms: C_1  and  C_2
REMARK    2  A    between atoms: C_2  and  C_3
REMARK    3  A    between atoms: C_2  and  C_4
REMARK    4  A    between atoms: C_2  and  N_5
REMARK    5  A    between atoms: C_6  and  C_8
REMARK    6  A    between atoms: C_8  and  O_9
REMARK    7  A    between atoms: O_9  and  C_10
REMARK    8  A    between atoms: C_13  and  C_14
REMARK    9  A    between atoms: C_14  and  N_15
REMARK   10  A    between atoms: N_15  and  C_16
REMARK   11  A    between atoms: C_16  and  C_17
REMARK                            x       y       z     vdW  Elec       q    Type
REMARK                         _______ _______ _______ _____ _____    ______ ____
ROOT
ATOM      1  C   UNL     1       5.743   5.681  17.383  0.00  0.00    +0.000 A 
ATOM      2  C   UNL     1       4.662   6.391  16.861  0.00  0.00    +0.000 A 
ATOM      3  C   UNL     1       3.579   6.707  17.677  0.00  0.00    +0.000 A 
ATOM      4  C   UNL     1       3.543   6.286  19.014  0.00  0.00    +0.000 A 
ATOM      5  C   UNL     1       4.619   5.553  19.525  0.00  0.00    +0.000 A 
ATOM      6  C   UNL     1       5.712   5.249  18.709  0.00  0.00    +0.000 A 
ENDROOT
BRANCH   1   7
ATOM      7  O   UNL     1       6.868   5.350  16.677  0.00  0.00    +0.000 OA
BRANCH   7   8
ATOM      8  C   UNL     1       6.764   4.132  15.943  0.00  0.00    +0.000 C 
BRANCH   8  10
ATOM      9  N   UNL     1       6.314   3.275  13.703  0.00  0.00    +0.000 N 
ATOM     10  C   UNL     1       6.608   4.390  14.452  0.00  0.00    +0.000 C 
ATOM     11  O   UNL     1       6.753   5.521  13.989  0.00  0.00    +0.000 OA
ATOM     12  H   UNL     1       6.238   2.404  14.220  0.00  0.00    +0.000 HD
BRANCH   9  14
ATOM     13  C   UNL     1       6.369   1.832  11.703  0.00  0.00    +0.000 C 
ATOM     14  C   UNL     1       6.188   3.259  12.243  0.00  0.00    +0.000 C 
ATOM     15  C   UNL     1       7.209   4.210  11.601  0.00  0.00    +0.000 C 
ATOM     16  C   UNL     1       4.773   3.740  11.871  0.00  0.00    +0.000 C 
ENDBRANCH   9  14
ENDBRANCH   8  10
ENDBRANCH   7   8
ENDBRANCH   1   7
BRANCH   4  17
ATOM     17  C   UNL     1       2.326   6.592  19.855  0.00  0.00    +0.000 C 
BRANCH  17  18
ATOM     18  N   UNL     1       2.182   5.566  20.884  0.00  0.00    +0.000 NA
ATOM     19  H   UNL     1       1.764   5.989  21.713  0.00  0.00    +0.000 HD
BRANCH  18  20
ATOM     20  C   UNL     1       1.325   4.467  20.441  0.00  0.00    +0.000 C 
BRANCH  20  21
ATOM     21  C   UNL     1       2.089   3.495  19.561  0.00  0.00    +0.000 A 
ATOM     22  C   UNL     1       3.041   2.641  20.117  0.00  0.00    +0.000 A 
ATOM     23  C   UNL     1       3.707   1.741  19.289  0.00  0.00    +0.000 A 
ATOM     24  C   UNL     1       3.407   1.719  17.933  0.00  0.00    +0.000 A 
ATOM     25  C   UNL     1       2.448   2.597  17.461  0.00  0.00    +0.000 A 
ATOM     26  N   UNL     1       1.783   3.479  18.238  0.00  0.00    +0.000 NA
ENDBRANCH  20  21
ENDBRANCH  18  20
ENDBRANCH  17  18
ENDBRANCH   4  17
TORSDOF 8
ENDMDL
MODEL 8
REMARK VINA RESULT:      -7.1      0.844      1.405
REMARK  Name = 
REMARK  11 active torsions:
REMARK  status: ('A' for Active; 'I' for Inactive)
REMARK    1  A    between atoms: C_1  and  C_2
REMARK    2  A    between atoms: C_2  and  C_3
REMARK    3  A    between atoms: C_2  and  C_4
REMARK    4  A    between atoms: C_2  and  N_5
REMARK    5  A    between atoms: C_6  and  C_8
REMARK    6  A    between atoms: C_8  and  O_9
REMARK    7  A    between atoms: O_9  and  C_10
REMARK    8  A    between atoms: C_13  and  C_14
REMARK    9  A    between atoms: C_14  and  N_15
REMARK   10  A    between atoms: N_15  and  C_16
REMARK   11  A    between atoms: C_16  and  C_17
REMARK                            x       y       z     vdW  Elec       q    Type
REMARK                         _______ _______ _______ _____ _____    ______ ____
ROOT
ATOM      1  C   UNL     1       7.450   6.952  18.007  0.00  0.00    +0.000 A 
ATOM      2  C   UNL     1       6.218   7.292  17.449  0.00  0.00    +0.000 A 
ATOM      3  C   UNL     1       5.338   6.290  17.048  0.00  0.00    +0.000 A 
ATOM      4  C   UNL     1       5.690   4.937  17.164  0.00  0.00    +0.000 A 
ATOM      5  C   UNL     1       6.938   4.605  17.702  0.00  0.00    +0.000 A 
ATOM      6  C   UNL     1       7.814   5.610  18.118  0.00  0.00    +0.000 A 
ENDROOT
BRANCH   1   7
ATOM      7  O   UNL     1       8.370   7.857  18.463  0.00  0.00    +0.000 OA
BRANCH   7   8
ATOM      8  C   UNL     1       8.207   9.175  17.942  0.00  0.00    +0.000 C 
BRANCH   8  10
ATOM      9  N   UNL     1       9.647  11.144  17.885  0.00  0.00    +0.000 N 
ATOM     10  C   UNL     1       9.077  10.179  18.682  0.00  0.00    +0.000 C 
ATOM     11  O   UNL     1       9.242  10.095  19.898  0.00  0.00    +0.000 OA
ATOM     12  H   UNL     1       9.432  11.081  16.895  0.00  0.00    +0.000 HD
BRANCH   9  14
ATOM     13  C   UNL     1      11.783  11.530  19.058  0.00  0.00    +0.000 C 
ATOM     14  C   UNL     1      10.577  12.174  18.356  0.00  0.00    +0.000 C 
ATOM     15  C   UNL     1       9.866  13.155  19.300  0.00  0.00    +0.000 C 
ATOM     16  C   UNL     1      11.092  12.960  17.136  0.00  0.00    +0.000 C 
ENDBRANCH   9  14
ENDBRANCH   8  10
ENDBRANCH   7   8
ENDBRANCH   1   7
BRANCH   4  17
ATOM     17  C   UNL     1       4.738   3.877  16.664  0.00  0.00    +0.000 C 
BRANCH  17  18
ATOM     18  N   UNL     1       4.661   2.799  17.644  0.00  0.00    +0.000 NA
ATOM     19  H   UNL     1       5.457   2.174  17.509  0.00  0.00    +0.000 HD
BRANCH  18  20
ATOM     20  C   UNL     1       4.696   3.305  19.015  0.00  0.00    +0.000 C 
BRANCH  20  21
ATOM     21  C   UNL     1       3.298   3.588  19.532  0.00  0.00    +0.000 A 
ATOM     22  C   UNL     1       2.988   4.834  20.078  0.00  0.00    +0.000 A 
ATOM     23  C   UNL     1       1.689   5.074  20.519  0.00  0.00    +0.000 A 
ATOM     24  C   UNL     1       0.739   4.068  20.406  0.00  0.00    +0.000 A 
ATOM     25  C   UNL     1       1.126   2.861  19.849  0.00  0.00    +0.000 A 
ATOM     26  N   UNL     1       2.376   2.599  19.410  0.00  0.00    +0.000 NA
ENDBRANCH  20  21
ENDBRANCH  18  20
ENDBRANCH  17  18
ENDBRANCH   4  17
TORSDOF 8
ENDMDL
MODEL 9
REMARK VINA RESULT:      -7.1      1.106      1.458
REMARK  Name = 
REMARK  11 active torsions:
REMARK  status: ('A' for Active; 'I' for Inactive)
REMARK    1  A    between atoms: C_1  and  C_2
REMARK    2  A    between atoms: C_2  and  C_3
REMARK    3  A    between atoms: C_2  and  C_4
REMARK    4  A    between atoms: C_2  and  N_5
REMARK    5  A    between atoms: C_6  and  C_8
REMARK    6  A    between atoms: C_8  and  O_9
REMARK    7  A    between atoms: O_9  and  C_10
REMARK    8  A    between atoms: C_13  and  C_14
REMARK    9  A    between atoms: C_14  and  N_15
REMARK   10  A    between atoms: N_15  and  C_16
REMARK   11  A    between atoms: C_16  and  C_17
REMARK                            x       y       z     vdW  Elec       q    Type
REMARK                         _______ _______ _______ _____ _____    ______ ____
ROOT
ATOM      1  C   UNL     1       7.291   7.541  17.712  0.00  0.00    +0.000 A 
ATOM      2  C   UNL     1       6.058   7.243  17.134  0.00  0.00    +0.000 A 
ATOM      3  C   UNL     1       5.380   6.085  17.505  0.00  0.00    +0.000 A 
ATOM      4  C   UNL     1       5.941   5.190  18.428  0.00  0.00    +0.000 A 
ATOM      5  C   UNL     1       7.190   5.484  18.984  0.00  0.00    +0.000 A 
ATOM      6  C   UNL     1       7.863   6.654  18.624  0.00  0.00    +0.000 A 
ENDROOT
BRANCH   1   7
ATOM      7  O   UNL     1       8.021   8.668  17.443  0.00  0.00    +0.000 OA
BRANCH   7   8
ATOM      8  C   UNL     1       8.736   9.186  18.563  0.00  0.00    +0.000 C 
BRANCH   8  10
ATOM      9  N   UNL     1      10.372  10.959  18.933  0.00  0.00    +0.000 N 
ATOM     10  C   UNL     1       9.187  10.619  18.324  0.00  0.00    +0.000 C 
ATOM     11  O   UNL     1       8.510  11.387  17.642  0.00  0.00    +0.000 OA
ATOM     12  H   UNL     1      10.815  10.225  19.476  0.00  0.00    +0.000 HD
BRANCH   9  14
ATOM     13  C   UNL     1      12.279  12.316  19.713  0.00  0.00    +0.000 C 
ATOM     14  C   UNL     1      10.971  12.296  18.907  0.00  0.00    +0.000 C 
ATOM     15  C   UNL     1       9.986  13.340  19.456  0.00  0.00    +0.000 C 
ATOM     16  C   UNL     1      11.298  12.657  17.446  0.00  0.00    +0.000 C 
ENDBRANCH   9  14
ENDBRANCH   8  10
ENDBRANCH   7   8
ENDBRANCH   1   7
BRANCH   4  17
ATOM     17  C   UNL     1       5.208   3.912  18.762  0.00  0.00    +0.000 C 
BRANCH  17  18
ATOM     18  N   UNL     1       4.663   3.337  17.536  0.00  0.00    +0.000 NA
ATOM     19  H   UNL     1       5.406   2.834  17.050  0.00  0.00    +0.000 HD
BRANCH  18  20
ATOM     20  C   UNL     1       3.574   2.400  17.812  0.00  0.00    +0.000 C 
BRANCH  20  21
ATOM     21  C   UNL     1       2.801   2.807  19.053  0.00  0.00    +0.000 A 
ATOM     22  C   UNL     1       1.640   3.571  18.940  0.00  0.00    +0.000 A 
ATOM     23  C   UNL     1       0.937   3.907  20.094  0.00  0.00    +0.000 A 
ATOM     24  C   UNL     1       1.411   3.473  21.326  0.00  0.00    +0.000 A 
ATOM     25  C   UNL     1       2.569   2.716  21.352  0.00  0.00    +0.000 A 
ATOM     26  N   UNL     1       3.271   2.372  20.251  0.00  0.00    +0.000 NA
ENDBRANCH  20  21
ENDBRANCH  18  20
ENDBRANCH  17  18
ENDBRANCH   4  17
TORSDOF 8
ENDMDL
