MODEL 1
REMARK VINA RESULT:      -9.3      0.000      0.000
REMARK  Name = 
REMARK  6 active torsions:
REMARK  status: ('A' for Active; 'I' for Inactive)
REMARK    1  A    between atoms: C_1  and  C_2
REMARK    2  A    between atoms: N_7  and  S_8
REMARK    3  A    between atoms: S_8  and  C_11
REMARK    4  A    between atoms: C_14  and  N_15
REMARK    5  A    between atoms: N_18  and  C_19
REMARK    6  A    between atoms: C_24  and  C_25
REMARK                            x       y       z     vdW  Elec       q    Type
REMARK                         _______ _______ _______ _____ _____    ______ ____
ROOT
ATOM      1  C   UNL     1      -0.740  10.928  21.473  0.00  0.00    +0.000 A 
ATOM      2  C   UNL     1      -0.325  10.494  20.217  0.00  0.00    +0.000 A 
ATOM      3  C   UNL     1       0.454   9.342  20.115  0.00  0.00    +0.000 A 
ATOM      4  C   UNL     1       0.845   8.631  21.257  0.00  0.00    +0.000 A 
ATOM      5  C   UNL     1       0.398   9.063  22.512  0.00  0.00    +0.000 A 
ATOM      6  C   UNL     1      -0.385  10.218  22.624  0.00  0.00    +0.000 A 
ENDROOT
BRANCH   4   7
ATOM      7  N   UNL     1       1.672   7.483  21.186  0.00  0.00    +0.000 N 
ATOM      8  C   UNL     1       2.379   7.113  20.055  0.00  0.00    +0.000 C 
ATOM      9  O   UNL     1       2.483   7.795  19.037  0.00  0.00    +0.000 OA
ATOM     10  N   UNL     1       2.943   5.848  20.183  0.00  0.00    +0.000 N 
ATOM     11  H   UNL     1       2.000   7.095  22.057  0.00  0.00    +0.000 HD
ATOM     12  H   UNL     1       2.378   5.210  20.725  0.00  0.00    +0.000 HD
BRANCH  10  13
ATOM     13  C   UNL     1       3.675   5.294  19.107  0.00  0.00    +0.000 A 
ATOM     14  C   UNL     1       3.008   4.518  18.166  0.00  0.00    +0.000 A 
ATOM     15  C   UNL     1       3.688   4.087  17.025  0.00  0.00    +0.000 A 
ATOM     16  C   UNL     1       5.049   4.373  16.842  0.00  0.00    +0.000 A 
ATOM     17 CL   UNL     1       5.759   3.810  15.375  0.00  0.00    +0.000 Cl
ATOM     18  C   UNL     1       5.756   5.087  17.813  0.00  0.00    +0.000 A 
ATOM     19  C   UNL     1       5.042   5.550  18.942  0.00  0.00    +0.000 A 
BRANCH  18  20
ATOM     20  C   UNL     1       7.229   5.401  17.751  0.00  0.00    +0.000 C 
ATOM     21  F   UNL     1       7.630   6.231  16.753  0.00  0.00    +0.000 F 
ATOM     22  F   UNL     1       7.685   5.973  18.902  0.00  0.00    +0.000 F 
ATOM     23  F   UNL     1       7.973   4.267  17.592  0.00  0.00    +0.000 F 
ENDBRANCH  18  20
ENDBRANCH  10  13
ENDBRANCH   4   7
BRANCH   1  24
ATOM     24  S   UNL     1      -1.706  12.410  21.592  0.00  0.00    +0.000 S 
ATOM     25  O   UNL     1      -2.664  12.364  20.506  0.00  0.00    +0.000 OA
ATOM     26  O   UNL     1      -0.803  13.533  21.721  0.00  0.00    +0.000 OA
BRANCH  24  33
ATOM     27  C   UNL     1      -7.273  12.440  22.285  0.00  0.00    +0.000 C 
ATOM     28  C   UNL     1      -6.010  13.073  22.788  0.00  0.00    +0.000 A 
ATOM     29  C   UNL     1      -6.027  14.342  23.335  0.00  0.00    +0.000 A 
ATOM     30  C   UNL     1      -4.808  14.854  23.724  0.00  0.00    +0.000 A 
ATOM     31  N   UNL     1      -3.646  14.196  23.576  0.00  0.00    +0.000 NA
ATOM     32  C   UNL     1      -3.753  12.970  23.060  0.00  0.00    +0.000 A 
ATOM     33  N   UNL     1      -2.585  12.221  22.997  0.00  0.00    +0.000 N 
ATOM     34  N   UNL     1      -4.872  12.355  22.670  0.00  0.00    +0.000 NA
ATOM     35  H   UNL     1      -2.736  11.240  23.196  0.00  0.00    +0.000 HD
ENDBRANCH  24  33
ENDBRANCH   1  24
TORSDOF 5
ENDMDL
MODEL 2
REMARK VINA RESULT:      -9.3      8.432     10.915
REMARK  Name = 
REMARK  6 active torsions:
REMARK  status: ('A' for Active; 'I' for Inactive)
REMARK    1  A    between atoms: C_1  and  C_2
REMARK    2  A    between atoms: N_7  and  S_8
REMARK    3  A    between atoms: S_8  and  C_11
REMARK    4  A    between atoms: C_14  and  N_15
REMARK    5  A    between atoms: N_18  and  C_19
REMARK    6  A    between atoms: C_24  and  C_25
REMARK                            x       y       z     vdW  Elec       q    Type
REMARK                         _______ _______ _______ _____ _____    ______ ____
ROOT
ATOM      1  C   UNL     1       6.525   5.760  17.580  0.00  0.00    +0.000 A 
ATOM      2  C   UNL     1       6.451   7.014  16.980  0.00  0.00    +0.000 A 
ATOM      3  C   UNL     1       7.275   8.040  17.439  0.00  0.00    +0.000 A 
ATOM      4  C   UNL     1       8.156   7.836  18.509  0.00  0.00    +0.000 A 
ATOM      5  C   UNL     1       8.241   6.562  19.085  0.00  0.00    +0.000 A 
ATOM      6  C   UNL     1       7.417   5.525  18.630  0.00  0.00    +0.000 A 
ENDROOT
BRANCH   4   7
ATOM      7  N   UNL     1       8.973   8.872  19.023  0.00  0.00    +0.000 N 
ATOM      8  C   UNL     1       9.036  10.143  18.481  0.00  0.00    +0.000 C 
ATOM      9  O   UNL     1       8.303  10.564  17.587  0.00  0.00    +0.000 OA
ATOM     10  N   UNL     1      10.059  10.901  19.042  0.00  0.00    +0.000 N 
ATOM     11  H   UNL     1       9.283   8.785  19.979  0.00  0.00    +0.000 HD
ATOM     12  H   UNL     1      10.873  10.355  19.289  0.00  0.00    +0.000 HD
BRANCH  10  13
ATOM     13  C   UNL     1      10.290  12.218  18.583  0.00  0.00    +0.000 A 
ATOM     14  C   UNL     1      11.198  12.423  17.549  0.00  0.00    +0.000 A 
ATOM     15  C   UNL     1      11.327  13.696  16.991  0.00  0.00    +0.000 A 
ATOM     16  C   UNL     1      10.601  14.785  17.496  0.00  0.00    +0.000 A 
ATOM     17 CL   UNL     1      10.830  16.295  16.695  0.00  0.00    +0.000 Cl
ATOM     18  C   UNL     1       9.740  14.615  18.584  0.00  0.00    +0.000 A 
ATOM     19  C   UNL     1       9.592  13.312  19.111  0.00  0.00    +0.000 A 
BRANCH  18  20
ATOM     20  C   UNL     1       8.957  15.720  19.245  0.00  0.00    +0.000 C 
ATOM     21  F   UNL     1       9.671  16.788  19.686  0.00  0.00    +0.000 F 
ATOM     22  F   UNL     1       7.999  16.239  18.424  0.00  0.00    +0.000 F 
ATOM     23  F   UNL     1       8.283  15.265  20.343  0.00  0.00    +0.000 F 
ENDBRANCH  18  20
ENDBRANCH  10  13
ENDBRANCH   4   7
BRANCH   1  24
ATOM     24  S   UNL     1       5.450   4.471  17.007  0.00  0.00    +0.000 S 
ATOM     25  O   UNL     1       6.242   3.637  16.125  0.00  0.00    +0.000 OA
ATOM     26  O   UNL     1       4.225   5.076  16.533  0.00  0.00    +0.000 OA
BRANCH  24  33
ATOM     27  C   UNL     1       0.583   2.290  18.748  0.00  0.00    +0.000 C 
ATOM     28  C   UNL     1       1.732   3.142  19.199  0.00  0.00    +0.000 A 
ATOM     29  C   UNL     1       1.563   4.083  20.198  0.00  0.00    +0.000 A 
ATOM     30  C   UNL     1       2.666   4.848  20.507  0.00  0.00    +0.000 A 
ATOM     31  N   UNL     1       3.849   4.730  19.881  0.00  0.00    +0.000 NA
ATOM     32  C   UNL     1       3.903   3.774  18.952  0.00  0.00    +0.000 A 
ATOM     33  N   UNL     1       5.143   3.552  18.366  0.00  0.00    +0.000 N 
ATOM     34  N   UNL     1       2.918   2.954  18.581  0.00  0.00    +0.000 NA
ATOM     35  H   UNL     1       5.321   2.572  18.183  0.00  0.00    +0.000 HD
ENDBRANCH  24  33
ENDBRANCH   1  24
TORSDOF 5
ENDMDL
MODEL 3
REMARK VINA RESULT:      -9.1      2.806      3.939
REMARK  Name = 
REMARK  6 active torsions:
REMARK  status: ('A' for Active; 'I' for Inactive)
REMARK    1  A    between atoms: C_1  and  C_2
REMARK    2  A    between atoms: N_7  and  S_8
REMARK    3  A    between atoms: S_8  and  C_11
REMARK    4  A    between atoms: C_14  and  N_15
REMARK    5  A    between atoms: N_18  and  C_19
REMARK    6  A    between atoms: C_24  and  C_25
REMARK                            x       y       z     vdW  Elec       q    Type
REMARK                         _______ _______ _______ _____ _____    ______ ____
ROOT
ATOM      1  C   UNL     1      -0.703  11.233  20.844  0.00  0.00    +0.000 A 
ATOM      2  C   UNL     1      -0.393  10.607  19.639  0.00  0.00    +0.000 A 
ATOM      3  C   UNL     1       0.340   9.421  19.655  0.00  0.00    +0.000 A 
ATOM      4  C   UNL     1       0.789   8.865  20.860  0.00  0.00    +0.000 A 
ATOM      5  C   UNL     1       0.446   9.489  22.065  0.00  0.00    +0.000 A 
ATOM      6  C   UNL     1      -0.290  10.681  22.059  0.00  0.00    +0.000 A 
ENDROOT
BRANCH   4   7
ATOM      7  N   UNL     1       1.572   7.685  20.902  0.00  0.00    +0.000 N 
ATOM      8  C   UNL     1       2.352   7.242  19.848  0.00  0.00    +0.000 C 
ATOM      9  O   UNL     1       2.567   7.875  18.817  0.00  0.00    +0.000 OA
ATOM     10  N   UNL     1       2.853   5.963  20.072  0.00  0.00    +0.000 N 
ATOM     11  H   UNL     1       1.812   7.322  21.811  0.00  0.00    +0.000 HD
ATOM     12  H   UNL     1       2.220   5.369  20.590  0.00  0.00    +0.000 HD
BRANCH  10  13
ATOM     13  C   UNL     1       3.647   5.338  19.083  0.00  0.00    +0.000 A 
ATOM     14  C   UNL     1       3.029   4.534  18.130  0.00  0.00    +0.000 A 
ATOM     15  C   UNL     1       3.780   4.029  17.067  0.00  0.00    +0.000 A 
ATOM     16  C   UNL     1       5.159   4.269  16.975  0.00  0.00    +0.000 A 
ATOM     17 CL   UNL     1       5.960   3.616  15.595  0.00  0.00    +0.000 Cl
ATOM     18  C   UNL     1       5.812   5.012  17.963  0.00  0.00    +0.000 A 
ATOM     19  C   UNL     1       5.030   5.548  19.011  0.00  0.00    +0.000 A 
BRANCH  18  20
ATOM     20  C   UNL     1       7.294   5.283  18.000  0.00  0.00    +0.000 C 
ATOM     21  F   UNL     1       8.110   4.209  17.829  0.00  0.00    +0.000 F 
ATOM     22  F   UNL     1       7.680   6.184  17.052  0.00  0.00    +0.000 F 
ATOM     23  F   UNL     1       7.671   5.830  19.193  0.00  0.00    +0.000 F 
ENDBRANCH  18  20
ENDBRANCH  10  13
ENDBRANCH   4   7
BRANCH   1  24
ATOM     24  S   UNL     1      -1.610  12.756  20.809  0.00  0.00    +0.000 S 
ATOM     25  O   UNL     1      -0.921  13.665  21.703  0.00  0.00    +0.000 OA
ATOM     26  O   UNL     1      -3.011  12.457  21.010  0.00  0.00    +0.000 OA
BRANCH  24  33
ATOM     27  C   UNL     1       3.203  14.190  18.307  0.00  0.00    +0.000 C 
ATOM     28  C   UNL     1       1.832  14.706  18.630  0.00  0.00    +0.000 A 
ATOM     29  C   UNL     1       1.602  16.063  18.761  0.00  0.00    +0.000 A 
ATOM     30  C   UNL     1       0.321  16.432  19.106  0.00  0.00    +0.000 A 
ATOM     31  N   UNL     1      -0.670  15.553  19.332  0.00  0.00    +0.000 NA
ATOM     32  C   UNL     1      -0.340  14.273  19.151  0.00  0.00    +0.000 A 
ATOM     33  N   UNL     1      -1.369  13.347  19.267  0.00  0.00    +0.000 N 
ATOM     34  N   UNL     1       0.853  13.790  18.795  0.00  0.00    +0.000 NA
ATOM     35  H   UNL     1      -1.292  12.588  18.601  0.00  0.00    +0.000 HD
ENDBRANCH  24  33
ENDBRANCH   1  24
TORSDOF 5
ENDMDL
MODEL 4
REMARK VINA RESULT:      -9.1      0.629      1.058
REMARK  Name = 
REMARK  6 active torsions:
REMARK  status: ('A' for Active; 'I' for Inactive)
REMARK    1  A    between atoms: C_1  and  C_2
REMARK    2  A    between atoms: N_7  and  S_8
REMARK    3  A    between atoms: S_8  and  C_11
REMARK    4  A    between atoms: C_14  and  N_15
REMARK    5  A    between atoms: N_18  and  C_19
REMARK    6  A    between atoms: C_24  and  C_25
REMARK                            x       y       z     vdW  Elec       q    Type
REMARK                         _______ _______ _______ _____ _____    ______ ____
ROOT
ATOM      1  C   UNL     1      -0.816  11.108  20.757  0.00  0.00    +0.000 A 
ATOM      2  C   UNL     1      -0.620  10.480  21.984  0.00  0.00    +0.000 A 
ATOM      3  C   UNL     1       0.206   9.359  22.053  0.00  0.00    +0.000 A 
ATOM      4  C   UNL     1       0.820   8.842  20.906  0.00  0.00    +0.000 A 
ATOM      5  C   UNL     1       0.638   9.499  19.683  0.00  0.00    +0.000 A 
ATOM      6  C   UNL     1      -0.190  10.626  19.604  0.00  0.00    +0.000 A 
ENDROOT
BRANCH   4   7
ATOM      7  N   UNL     1       1.629   7.680  20.941  0.00  0.00    +0.000 N 
ATOM      8  C   UNL     1       2.387   7.238  19.871  0.00  0.00    +0.000 C 
ATOM      9  O   UNL     1       2.557   7.861  18.824  0.00  0.00    +0.000 OA
ATOM     10  N   UNL     1       2.921   5.973  20.096  0.00  0.00    +0.000 N 
ATOM     11  H   UNL     1       1.904   7.335  21.848  0.00  0.00    +0.000 HD
ATOM     12  H   UNL     1       2.317   5.374  20.642  0.00  0.00    +0.000 HD
BRANCH  10  13
ATOM     13  C   UNL     1       3.698   5.350  19.093  0.00  0.00    +0.000 A 
ATOM     14  C   UNL     1       3.065   4.545  18.152  0.00  0.00    +0.000 A 
ATOM     15  C   UNL     1       3.797   4.042  17.075  0.00  0.00    +0.000 A 
ATOM     16  C   UNL     1       5.174   4.286  16.957  0.00  0.00    +0.000 A 
ATOM     17 CL   UNL     1       5.951   3.636  15.562  0.00  0.00    +0.000 Cl
ATOM     18  C   UNL     1       5.843   5.031  17.933  0.00  0.00    +0.000 A 
ATOM     19  C   UNL     1       5.079   5.565  18.996  0.00  0.00    +0.000 A 
BRANCH  18  20
ATOM     20  C   UNL     1       7.325   5.307  17.942  0.00  0.00    +0.000 C 
ATOM     21  F   UNL     1       7.760   6.307  17.131  0.00  0.00    +0.000 F 
ATOM     22  F   UNL     1       7.785   5.624  19.186  0.00  0.00    +0.000 F 
ATOM     23  F   UNL     1       8.039   4.206  17.562  0.00  0.00    +0.000 F 
ENDBRANCH  18  20
ENDBRANCH  10  13
ENDBRANCH   4   7
BRANCH   1  24
ATOM     24  S   UNL     1      -1.892  12.515  20.676  0.00  0.00    +0.000 S 
ATOM     25  O   UNL     1      -2.925  12.187  19.714  0.00  0.00    +0.000 OA
ATOM     26  O   UNL     1      -1.081  13.700  20.500  0.00  0.00    +0.000 OA
BRANCH  24  33
ATOM     27  C   UNL     1      -7.371  12.325  21.867  0.00  0.00    +0.000 C 
ATOM     28  C   UNL     1      -6.128  13.125  22.119  0.00  0.00    +0.000 A 
ATOM     29  C   UNL     1      -6.204  14.473  22.413  0.00  0.00    +0.000 A 
ATOM     30  C   UNL     1      -5.003  15.129  22.581  0.00  0.00    +0.000 A 
ATOM     31  N   UNL     1      -3.807  14.530  22.454  0.00  0.00    +0.000 NA
ATOM     32  C   UNL     1      -3.856  13.222  22.194  0.00  0.00    +0.000 A 
ATOM     33  N   UNL     1      -2.639  12.552  22.168  0.00  0.00    +0.000 N 
ATOM     34  N   UNL     1      -4.948  12.471  22.035  0.00  0.00    +0.000 NA
ATOM     35  H   UNL     1      -2.694  11.622  22.564  0.00  0.00    +0.000 HD
ENDBRANCH  24  33
ENDBRANCH   1  24
TORSDOF 5
ENDMDL
MODEL 5
REMARK VINA RESULT:      -9.1      8.443     10.933
REMARK  Name = 
REMARK  6 active torsions:
REMARK  status: ('A' for Active; 'I' for Inactive)
REMARK    1  A    between atoms: C_1  and  C_2
REMARK    2  A    between atoms: N_7  and  S_8
REMARK    3  A    between atoms: S_8  and  C_11
REMARK    4  A    between atoms: C_14  and  N_15
REMARK    5  A    between atoms: N_18  and  C_19
REMARK    6  A    between atoms: C_24  and  C_25
REMARK                            x       y       z     vdW  Elec       q    Type
REMARK                         _______ _______ _______ _____ _____    ______ ____
ROOT
ATOM      1  C   UNL     1       6.493   5.819  17.645  0.00  0.00    +0.000 A 
ATOM      2  C   UNL     1       7.326   5.545  18.726  0.00  0.00    +0.000 A 
ATOM      3  C   UNL     1       8.169   6.545  19.209  0.00  0.00    +0.000 A 
ATOM      4  C   UNL     1       8.207   7.810  18.609  0.00  0.00    +0.000 A 
ATOM      5  C   UNL     1       7.344   8.082  17.540  0.00  0.00    +0.000 A 
ATOM      6  C   UNL     1       6.494   7.083  17.048  0.00  0.00    +0.000 A 
ENDROOT
BRANCH   4   7
ATOM      7  N   UNL     1       9.084   8.831  19.052  0.00  0.00    +0.000 N 
ATOM      8  C   UNL     1       9.095  10.114  18.535  0.00  0.00    +0.000 C 
ATOM      9  O   UNL     1       8.269  10.558  17.739  0.00  0.00    +0.000 OA
ATOM     10  N   UNL     1      10.180  10.854  18.995  0.00  0.00    +0.000 N 
ATOM     11  H   UNL     1       9.498   8.720  19.965  0.00  0.00    +0.000 HD
ATOM     12  H   UNL     1      11.013  10.298  19.136  0.00  0.00    +0.000 HD
BRANCH  10  13
ATOM     13  C   UNL     1      10.368  12.180  18.543  0.00  0.00    +0.000 A 
ATOM     14  C   UNL     1      11.180  12.407  17.437  0.00  0.00    +0.000 A 
ATOM     15  C   UNL     1      11.258  13.691  16.895  0.00  0.00    +0.000 A 
ATOM     16  C   UNL     1      10.578  14.768  17.483  0.00  0.00    +0.000 A 
ATOM     17 CL   UNL     1      10.733  16.294  16.694  0.00  0.00    +0.000 Cl
ATOM     18  C   UNL     1       9.816  14.575  18.638  0.00  0.00    +0.000 A 
ATOM     19  C   UNL     1       9.717  13.261  19.151  0.00  0.00    +0.000 A 
BRANCH  18  20
ATOM     20  C   UNL     1       9.093  15.664  19.387  0.00  0.00    +0.000 C 
ATOM     21  F   UNL     1       8.158  16.361  18.689  0.00  0.00    +0.000 F 
ATOM     22  F   UNL     1       8.443  15.192  20.489  0.00  0.00    +0.000 F 
ATOM     23  F   UNL     1       9.961  16.607  19.857  0.00  0.00    +0.000 F 
ENDBRANCH  18  20
ENDBRANCH  10  13
ENDBRANCH   4   7
BRANCH   1  24
ATOM     24  S   UNL     1       5.448   4.530  17.021  0.00  0.00    +0.000 S 
ATOM     25  O   UNL     1       6.264   3.739  16.121  0.00  0.00    +0.000 OA
ATOM     26  O   UNL     1       4.216   5.128  16.554  0.00  0.00    +0.000 OA
BRANCH  24  33
ATOM     27  C   UNL     1       0.591   2.266  18.683  0.00  0.00    +0.000 C 
ATOM     28  C   UNL     1       1.735   3.108  19.164  0.00  0.00    +0.000 A 
ATOM     29  C   UNL     1       1.561   4.013  20.194  0.00  0.00    +0.000 A 
ATOM     30  C   UNL     1       2.660   4.773  20.530  0.00  0.00    +0.000 A 
ATOM     31  N   UNL     1       3.844   4.682  19.901  0.00  0.00    +0.000 NA
ATOM     32  C   UNL     1       3.904   3.759  18.940  0.00  0.00    +0.000 A 
ATOM     33  N   UNL     1       5.145   3.563  18.347  0.00  0.00    +0.000 N 
ATOM     34  N   UNL     1       2.922   2.947  18.540  0.00  0.00    +0.000 NA
ATOM     35  H   UNL     1       5.328   2.591  18.130  0.00  0.00    +0.000 HD
ENDBRANCH  24  33
ENDBRANCH   1  24
TORSDOF 5
ENDMDL
MODEL 6
REMARK VINA RESULT:      -9.0      8.556     10.687
REMARK  Name = 
REMARK  6 active torsions:
REMARK  status: ('A' for Active; 'I' for Inactive)
REMARK    1  A    between atoms: C_1  and  C_2
REMARK    2  A    between atoms: N_7  and  S_8
REMARK    3  A    between atoms: S_8  and  C_11
REMARK    4  A    between atoms: C_14  and  N_15
REMARK    5  A    between atoms: N_18  and  C_19
REMARK    6  A    between atoms: C_24  and  C_25
REMARK                            x       y       z     vdW  Elec       q    Type
REMARK                         _______ _______ _______ _____ _____    ______ ____
ROOT
ATOM      1  C   UNL     1       6.068   5.584  17.530  0.00  0.00    +0.000 A 
ATOM      2  C   UNL     1       6.125   6.814  16.880  0.00  0.00    +0.000 A 
ATOM      3  C   UNL     1       7.054   7.765  17.299  0.00  0.00    +0.000 A 
ATOM      4  C   UNL     1       7.912   7.513  18.377  0.00  0.00    +0.000 A 
ATOM      5  C   UNL     1       7.863   6.261  19.004  0.00  0.00    +0.000 A 
ATOM      6  C   UNL     1       6.934   5.299  18.590  0.00  0.00    +0.000 A 
ENDROOT
BRANCH   4   7
ATOM      7  N   UNL     1       8.835   8.477  18.850  0.00  0.00    +0.000 N 
ATOM      8  C   UNL     1       8.864   9.791  18.418  0.00  0.00    +0.000 C 
ATOM      9  O   UNL     1       8.024  10.309  17.685  0.00  0.00    +0.000 OA
ATOM     10  N   UNL     1       9.987  10.469  18.882  0.00  0.00    +0.000 N 
ATOM     11  H   UNL     1       9.279   8.295  19.738  0.00  0.00    +0.000 HD
ATOM     12  H   UNL     1      10.808   9.883  18.955  0.00  0.00    +0.000 HD
BRANCH  10  13
ATOM     13  C   UNL     1      10.198  11.816  18.510  0.00  0.00    +0.000 A 
ATOM     14  C   UNL     1      11.308  12.137  17.736  0.00  0.00    +0.000 A 
ATOM     15  C   UNL     1      11.449  13.435  17.242  0.00  0.00    +0.000 A 
ATOM     16  C   UNL     1      10.520  14.437  17.564  0.00  0.00    +0.000 A 
ATOM     17 CL   UNL     1      10.794  15.988  16.861  0.00  0.00    +0.000 Cl
ATOM     18  C   UNL     1       9.438  14.153  18.401  0.00  0.00    +0.000 A 
ATOM     19  C   UNL     1       9.290  12.824  18.860  0.00  0.00    +0.000 A 
BRANCH  18  20
ATOM     20  C   UNL     1       8.415  15.160  18.860  0.00  0.00    +0.000 C 
ATOM     21  F   UNL     1       8.896  16.326  19.364  0.00  0.00    +0.000 F 
ATOM     22  F   UNL     1       7.561  15.523  17.860  0.00  0.00    +0.000 F 
ATOM     23  F   UNL     1       7.619  14.648  19.845  0.00  0.00    +0.000 F 
ENDBRANCH  18  20
ENDBRANCH  10  13
ENDBRANCH   4   7
BRANCH   1  24
ATOM     24  S   UNL     1       4.862   4.394  17.008  0.00  0.00    +0.000 S 
ATOM     25  O   UNL     1       5.082   3.207  17.810  0.00  0.00    +0.000 OA
ATOM     26  O   UNL     1       4.896   4.315  15.564  0.00  0.00    +0.000 OA
BRANCH  24  33
ATOM     27  C   UNL     1       2.145   3.565  21.846  0.00  0.00    +0.000 C 
ATOM     28  C   UNL     1       1.966   3.508  20.358  0.00  0.00    +0.000 A 
ATOM     29  C   UNL     1       1.028   2.664  19.792  0.00  0.00    +0.000 A 
ATOM     30  C   UNL     1       0.974   2.650  18.415  0.00  0.00    +0.000 A 
ATOM     31  N   UNL     1       1.784   3.384  17.633  0.00  0.00    +0.000 NA
ATOM     32  C   UNL     1       2.631   4.179  18.288  0.00  0.00    +0.000 A 
ATOM     33  N   UNL     1       3.405   5.032  17.510  0.00  0.00    +0.000 N 
ATOM     34  N   UNL     1       2.763   4.302  19.611  0.00  0.00    +0.000 NA
ATOM     35  H   UNL     1       3.539   5.940  17.938  0.00  0.00    +0.000 HD
ENDBRANCH  24  33
ENDBRANCH   1  24
TORSDOF 5
ENDMDL
MODEL 7
REMARK VINA RESULT:      -9.0      2.556      3.247
REMARK  Name = 
REMARK  6 active torsions:
REMARK  status: ('A' for Active; 'I' for Inactive)
REMARK    1  A    between atoms: C_1  and  C_2
REMARK    2  A    between atoms: N_7  and  S_8
REMARK    3  A    between atoms: S_8  and  C_11
REMARK    4  A    between atoms: C_14  and  N_15
REMARK    5  A    between atoms: N_18  and  C_19
REMARK    6  A    between atoms: C_24  and  C_25
REMARK                            x       y       z     vdW  Elec       q    Type
REMARK                         _______ _______ _______ _____ _____    ______ ____
ROOT
ATOM      1  C   UNL     1      -0.774  10.903  21.380  0.00  0.00    +0.000 A 
ATOM      2  C   UNL     1      -0.356  10.444  20.134  0.00  0.00    +0.000 A 
ATOM      3  C   UNL     1       0.452   9.310  20.061  0.00  0.00    +0.000 A 
ATOM      4  C   UNL     1       0.867   8.642  21.220  0.00  0.00    +0.000 A 
ATOM      5  C   UNL     1       0.416   9.097  22.465  0.00  0.00    +0.000 A 
ATOM      6  C   UNL     1      -0.395  10.236  22.548  0.00  0.00    +0.000 A 
ENDROOT
BRANCH   4   7
ATOM      7  N   UNL     1       1.723   7.513  21.176  0.00  0.00    +0.000 N 
ATOM      8  C   UNL     1       2.415   7.117  20.046  0.00  0.00    +0.000 C 
ATOM      9  O   UNL     1       2.481   7.759  19.000  0.00  0.00    +0.000 OA
ATOM     10  N   UNL     1       3.016   5.872  20.211  0.00  0.00    +0.000 N 
ATOM     11  H   UNL     1       2.079   7.169  22.055  0.00  0.00    +0.000 HD
ATOM     12  H   UNL     1       2.479   5.242  20.791  0.00  0.00    +0.000 HD
BRANCH  10  13
ATOM     13  C   UNL     1       3.739   5.295  19.143  0.00  0.00    +0.000 A 
ATOM     14  C   UNL     1       3.070   4.478  18.238  0.00  0.00    +0.000 A 
ATOM     15  C   UNL     1       3.739   4.020  17.101  0.00  0.00    +0.000 A 
ATOM     16  C   UNL     1       5.093   4.320  16.888  0.00  0.00    +0.000 A 
ATOM     17 CL   UNL     1       5.789   3.720  15.429  0.00  0.00    +0.000 Cl
ATOM     18  C   UNL     1       5.804   5.077  17.824  0.00  0.00    +0.000 A 
ATOM     19  C   UNL     1       5.100   5.565  18.949  0.00  0.00    +0.000 A 
BRANCH  18  20
ATOM     20  C   UNL     1       7.271   5.410  17.730  0.00  0.00    +0.000 C 
ATOM     21  F   UNL     1       7.645   6.204  16.693  0.00  0.00    +0.000 F 
ATOM     22  F   UNL     1       7.733   6.036  18.850  0.00  0.00    +0.000 F 
ATOM     23  F   UNL     1       8.031   4.282  17.607  0.00  0.00    +0.000 F 
ENDBRANCH  18  20
ENDBRANCH  10  13
ENDBRANCH   4   7
BRANCH   1  24
ATOM     24  S   UNL     1      -1.777  12.363  21.462  0.00  0.00    +0.000 S 
ATOM     25  O   UNL     1      -2.600  12.230  22.648  0.00  0.00    +0.000 OA
ATOM     26  O   UNL     1      -2.389  12.569  20.168  0.00  0.00    +0.000 OA
BRANCH  24  33
ATOM     27  C   UNL     1      -1.525  17.500  19.219  0.00  0.00    +0.000 C 
ATOM     28  C   UNL     1      -0.698  16.276  19.482  0.00  0.00    +0.000 A 
ATOM     29  C   UNL     1       0.387  15.972  18.680  0.00  0.00    +0.000 A 
ATOM     30  C   UNL     1       1.052  14.802  18.975  0.00  0.00    +0.000 A 
ATOM     31  N   UNL     1       0.685  13.968  19.962  0.00  0.00    +0.000 NA
ATOM     32  C   UNL     1      -0.359  14.375  20.685  0.00  0.00    +0.000 A 
ATOM     33  N   UNL     1      -0.694  13.592  21.783  0.00  0.00    +0.000 N 
ATOM     34  N   UNL     1      -1.069  15.494  20.518  0.00  0.00    +0.000 NA
ATOM     35  H   UNL     1      -0.998  14.140  22.578  0.00  0.00    +0.000 HD
ENDBRANCH  24  33
ENDBRANCH   1  24
TORSDOF 5
ENDMDL
MODEL 8
REMARK VINA RESULT:      -8.9      2.619      3.602
REMARK  Name = 
REMARK  6 active torsions:
REMARK  status: ('A' for Active; 'I' for Inactive)
REMARK    1  A    between atoms: C_1  and  C_2
REMARK    2  A    between atoms: N_7  and  S_8
REMARK    3  A    between atoms: S_8  and  C_11
REMARK    4  A    between atoms: C_14  and  N_15
REMARK    5  A    between atoms: N_18  and  C_19
REMARK    6  A    between atoms: C_24  and  C_25
REMARK                            x       y       z     vdW  Elec       q    Type
REMARK                         _______ _______ _______ _____ _____    ______ ____
ROOT
ATOM      1  C   UNL     1      -0.753  11.008  21.011  0.00  0.00    +0.000 A 
ATOM      2  C   UNL     1      -0.434  10.421  22.232  0.00  0.00    +0.000 A 
ATOM      3  C   UNL     1       0.382   9.291  22.253  0.00  0.00    +0.000 A 
ATOM      4  C   UNL     1       0.865   8.725  21.066  0.00  0.00    +0.000 A 
ATOM      5  C   UNL     1       0.560   9.342  19.847  0.00  0.00    +0.000 A 
ATOM      6  C   UNL     1      -0.259  10.477  19.816  0.00  0.00    +0.000 A 
ENDROOT
BRANCH   4   7
ATOM      7  N   UNL     1       1.660   7.552  21.057  0.00  0.00    +0.000 N 
ATOM      8  C   UNL     1       2.412   7.143  19.970  0.00  0.00    +0.000 C 
ATOM      9  O   UNL     1       2.590   7.803  18.948  0.00  0.00    +0.000 OA
ATOM     10  N   UNL     1       2.932   5.864  20.147  0.00  0.00    +0.000 N 
ATOM     11  H   UNL     1       1.930   7.170  21.950  0.00  0.00    +0.000 HD
ATOM     12  H   UNL     1       2.320   5.251  20.669  0.00  0.00    +0.000 HD
BRANCH  10  13
ATOM     13  C   UNL     1       3.701   5.271  19.120  0.00  0.00    +0.000 A 
ATOM     14  C   UNL     1       3.070   4.448  18.193  0.00  0.00    +0.000 A 
ATOM     15  C   UNL     1       3.789   3.974  17.094  0.00  0.00    +0.000 A 
ATOM     16  C   UNL     1       5.153   4.264  16.941  0.00  0.00    +0.000 A 
ATOM     17 CL   UNL     1       5.913   3.645  15.523  0.00  0.00    +0.000 Cl
ATOM     18  C   UNL     1       5.824   5.027  17.902  0.00  0.00    +0.000 A 
ATOM     19  C   UNL     1       5.071   5.531  18.987  0.00  0.00    +0.000 A 
BRANCH  18  20
ATOM     20  C   UNL     1       7.295   5.350  17.873  0.00  0.00    +0.000 C 
ATOM     21  F   UNL     1       7.795   5.996  18.959  0.00  0.00    +0.000 F 
ATOM     22  F   UNL     1       8.068   4.236  17.728  0.00  0.00    +0.000 F 
ATOM     23  F   UNL     1       7.609   6.147  16.809  0.00  0.00    +0.000 F 
ENDBRANCH  18  20
ENDBRANCH  10  13
ENDBRANCH   4   7
BRANCH   1  24
ATOM     24  S   UNL     1      -1.816  12.427  20.995  0.00  0.00    +0.000 S 
ATOM     25  O   UNL     1      -2.793  12.220  22.044  0.00  0.00    +0.000 OA
ATOM     26  O   UNL     1      -2.245  12.659  19.633  0.00  0.00    +0.000 OA
BRANCH  24  33
ATOM     27  C   UNL     1      -0.909  17.396  18.550  0.00  0.00    +0.000 C 
ATOM     28  C   UNL     1      -0.198  16.198  19.108  0.00  0.00    +0.000 A 
ATOM     29  C   UNL     1       1.057  15.845  18.647  0.00  0.00    +0.000 A 
ATOM     30  C   UNL     1       1.605  14.702  19.187  0.00  0.00    +0.000 A 
ATOM     31  N   UNL     1       0.978  13.938  20.096  0.00  0.00    +0.000 NA
ATOM     32  C   UNL     1      -0.216  14.388  20.486  0.00  0.00    +0.000 A 
ATOM     33  N   UNL     1      -0.841  13.681  21.506  0.00  0.00    +0.000 N 
ATOM     34  N   UNL     1      -0.841  15.488  20.059  0.00  0.00    +0.000 NA
ATOM     35  H   UNL     1      -1.339  14.282  22.152  0.00  0.00    +0.000 HD
ENDBRANCH  24  33
ENDBRANCH   1  24
TORSDOF 5
ENDMDL
MODEL 9
REMARK VINA RESULT:      -8.9      2.632      3.799
REMARK  Name = 
REMARK  6 active torsions:
REMARK  status: ('A' for Active; 'I' for Inactive)
REMARK    1  A    between atoms: C_1  and  C_2
REMARK    2  A    between atoms: N_7  and  S_8
REMARK    3  A    between atoms: S_8  and  C_11
REMARK    4  A    between atoms: C_14  and  N_15
REMARK    5  A    between atoms: N_18  and  C_19
REMARK    6  A    between atoms: C_24  and  C_25
REMARK                            x       y       z     vdW  Elec       q    Type
REMARK                         _______ _______ _______ _____ _____    ______ ____
ROOT
ATOM      1  C   UNL     1      -0.660  10.970  21.295  0.00  0.00    +0.000 A 
ATOM      2  C   UNL     1      -0.264  10.373  22.489  0.00  0.00    +0.000 A 
ATOM      3  C   UNL     1       0.507   9.213  22.449  0.00  0.00    +0.000 A 
ATOM      4  C   UNL     1       0.869   8.626  21.230  0.00  0.00    +0.000 A 
ATOM      5  C   UNL     1       0.488   9.252  20.036  0.00  0.00    +0.000 A 
ATOM      6  C   UNL     1      -0.287  10.418  20.066  0.00  0.00    +0.000 A 
ENDROOT
BRANCH   4   7
ATOM      7  N   UNL     1       1.615   7.424  21.161  0.00  0.00    +0.000 N 
ATOM      8  C   UNL     1       2.388   7.060  20.073  0.00  0.00    +0.000 C 
ATOM      9  O   UNL     1       2.629   7.783  19.108  0.00  0.00    +0.000 OA
ATOM     10  N   UNL     1       2.848   5.751  20.174  0.00  0.00    +0.000 N 
ATOM     11  H   UNL     1       1.838   6.968  22.033  0.00  0.00    +0.000 HD
ATOM     12  H   UNL     1       2.194   5.130  20.631  0.00  0.00    +0.000 HD
BRANCH  10  13
ATOM     13  C   UNL     1       3.629   5.199  19.133  0.00  0.00    +0.000 A 
ATOM     14  C   UNL     1       3.000   4.459  18.138  0.00  0.00    +0.000 A 
ATOM     15  C   UNL     1       3.737   4.032  17.031  0.00  0.00    +0.000 A 
ATOM     16  C   UNL     1       5.113   4.286  16.934  0.00  0.00    +0.000 A 
ATOM     17 CL   UNL     1       5.895   3.733  15.500  0.00  0.00    +0.000 Cl
ATOM     18  C   UNL     1       5.778   4.964  17.960  0.00  0.00    +0.000 A 
ATOM     19  C   UNL     1       5.010   5.422  19.055  0.00  0.00    +0.000 A 
BRANCH  18  20
ATOM     20  C   UNL     1       7.259   5.240  17.992  0.00  0.00    +0.000 C 
ATOM     21  F   UNL     1       8.078   4.182  17.757  0.00  0.00    +0.000 F 
ATOM     22  F   UNL     1       7.628   6.191  17.087  0.00  0.00    +0.000 F 
ATOM     23  F   UNL     1       7.649   5.728  19.207  0.00  0.00    +0.000 F 
ENDBRANCH  18  20
ENDBRANCH  10  13
ENDBRANCH   4   7
BRANCH   1  24
ATOM     24  S   UNL     1      -1.666  12.429  21.358  0.00  0.00    +0.000 S 
ATOM     25  O   UNL     1      -2.700  12.173  22.341  0.00  0.00    +0.000 OA
ATOM     26  O   UNL     1      -2.021  12.797  20.005  0.00  0.00    +0.000 OA
BRANCH  24  33
ATOM     27  C   UNL     1       1.060  16.606  18.788  0.00  0.00    +0.000 C 
ATOM     28  C   UNL     1       1.267  15.447  19.718  0.00  0.00    +0.000 A 
ATOM     29  C   UNL     1       2.494  14.817  19.798  0.00  0.00    +0.000 A 
ATOM     30  C   UNL     1       2.569  13.733  20.646  0.00  0.00    +0.000 A 
ATOM     31  N   UNL     1       1.524  13.273  21.354  0.00  0.00    +0.000 NA
ATOM     32  C   UNL     1       0.397  13.974  21.218  0.00  0.00    +0.000 A 
ATOM     33  N   UNL     1      -0.670  13.591  22.022  0.00  0.00    +0.000 N 
ATOM     34  N   UNL     1       0.205  15.050  20.453  0.00  0.00    +0.000 NA
ATOM     35  H   UNL     1      -1.211  14.379  22.357  0.00  0.00    +0.000 HD
ENDBRANCH  24  33
ENDBRANCH   1  24
TORSDOF 5
ENDMDL
