MODEL 1
REMARK VINA RESULT:      -7.8      0.000      0.000
REMARK  Name = 
REMARK  6 active torsions:
REMARK  status: ('A' for Active; 'I' for Inactive)
REMARK    1  A    between atoms: C_2  and  C_4
REMARK    2  A    between atoms: C_9  and  N_10
REMARK    3  A    between atoms: C_11  and  C_13
REMARK    4  A    between atoms: C_13  and  N_14
REMARK    5  A    between atoms: C_19  and  C_20
REMARK    6  A    between atoms: C_21  and  C_22
REMARK                            x       y       z     vdW  Elec       q    Type
REMARK                         _______ _______ _______ _____ _____    ______ ____
ROOT
ATOM      1  C   UNL     1      -0.705  11.926  19.215  0.00  0.00    +0.000 C 
ENDROOT
BRANCH   1   2
ATOM      2  N   UNL     1      -0.240  11.033  20.272  0.00  0.00    +0.000 N 
ATOM      3  C   UNL     1      -0.645  11.191  21.568  0.00  0.00    +0.000 C 
ATOM      4  O   UNL     1      -1.324  12.095  22.021  0.00  0.00    +0.000 OA
ATOM      5  S   UNL     1      -0.022   9.877  22.555  0.00  0.00    +0.000 S 
ATOM      6  C   UNL     1       0.677   9.064  21.196  0.00  0.00    +0.000 C 
ATOM      7  C   UNL     1       1.269   7.863  21.293  0.00  0.00    +0.000 C 
ATOM      8  C   UNL     1       0.475   9.900  19.972  0.00  0.00    +0.000 C 
ATOM      9  O   UNL     1       0.892   9.628  18.853  0.00  0.00    +0.000 OA
BRANCH   7  10
ATOM     10  C   UNL     1       1.840   7.106  20.199  0.00  0.00    +0.000 C 
ATOM     11  C   UNL     1       2.103   5.791  20.237  0.00  0.00    +0.000 C 
BRANCH  11  12
ATOM     12  C   UNL     1       2.682   5.141  19.060  0.00  0.00    +0.000 A 
ATOM     13  C   UNL     1       1.988   4.110  18.417  0.00  0.00    +0.000 A 
ATOM     14  C   UNL     1       2.564   3.442  17.335  0.00  0.00    +0.000 A 
ATOM     15  C   UNL     1       3.837   3.798  16.891  0.00  0.00    +0.000 A 
ATOM     16  C   UNL     1       4.536   4.822  17.530  0.00  0.00    +0.000 A 
ATOM     17  C   UNL     1       3.962   5.491  18.614  0.00  0.00    +0.000 A 
ENDBRANCH  11  12
ENDBRANCH   7  10
ENDBRANCH   1   2
BRANCH   1  19
ATOM     18  N   UNL     1      -3.107  12.449  19.355  0.00  0.00    +0.000 N 
ATOM     19  C   UNL     1      -2.155  11.558  18.868  0.00  0.00    +0.000 C 
ATOM     20  O   UNL     1      -2.404  10.552  18.206  0.00  0.00    +0.000 OA
ATOM     21  H   UNL     1      -2.801  13.360  19.705  0.00  0.00    +0.000 HD
BRANCH  18  27
ATOM     22  C   UNL     1      -5.355  12.540  20.390  0.00  0.00    +0.000 A 
ATOM     23  C   UNL     1      -6.749  12.351  20.291  0.00  0.00    +0.000 A 
ATOM     24  C   UNL     1      -7.326  11.931  19.095  0.00  0.00    +0.000 A 
ATOM     25  C   UNL     1      -6.514  11.663  18.002  0.00  0.00    +0.000 A 
ATOM     26  C   UNL     1      -5.129  11.820  18.101  0.00  0.00    +0.000 A 
ATOM     27  C   UNL     1      -4.522  12.275  19.280  0.00  0.00    +0.000 A 
BRANCH  22  29
ATOM     28  N   UNL     1      -5.109  12.313  22.811  0.00  0.00    +0.000 N 
ATOM     29  C   UNL     1      -4.794  13.024  21.683  0.00  0.00    +0.000 C 
ATOM     30  O   UNL     1      -4.110  14.042  21.742  0.00  0.00    +0.000 OA
ATOM     31  H   UNL     1      -4.787  12.674  23.700  0.00  0.00    +0.000 HD
ATOM     32  H   UNL     1      -5.857  11.631  22.836  0.00  0.00    +0.000 HD
ENDBRANCH  22  29
ENDBRANCH  18  27
ENDBRANCH   1  19
TORSDOF 6
ENDMDL
MODEL 2
REMARK VINA RESULT:      -7.7      0.940      1.308
REMARK  Name = 
REMARK  6 active torsions:
REMARK  status: ('A' for Active; 'I' for Inactive)
REMARK    1  A    between atoms: C_2  and  C_4
REMARK    2  A    between atoms: C_9  and  N_10
REMARK    3  A    between atoms: C_11  and  C_13
REMARK    4  A    between atoms: C_13  and  N_14
REMARK    5  A    between atoms: C_19  and  C_20
REMARK    6  A    between atoms: C_21  and  C_22
REMARK                            x       y       z     vdW  Elec       q    Type
REMARK                         _______ _______ _______ _____ _____    ______ ____
ROOT
ATOM      1  C   UNL     1      -0.986  11.653  18.299  0.00  0.00    +0.000 C 
ENDROOT
BRANCH   1   2
ATOM      2  N   UNL     1      -0.313  11.099  19.470  0.00  0.00    +0.000 N 
ATOM      3  C   UNL     1      -0.476  11.646  20.711  0.00  0.00    +0.000 C 
ATOM      4  O   UNL     1      -1.082  12.666  20.992  0.00  0.00    +0.000 OA
ATOM      5  S   UNL     1       0.349  10.665  21.913  0.00  0.00    +0.000 S 
ATOM      6  C   UNL     1       0.805   9.464  20.754  0.00  0.00    +0.000 C 
ATOM      7  C   UNL     1       1.434   8.327  21.093  0.00  0.00    +0.000 C 
ATOM      8  C   UNL     1       0.362   9.905  19.395  0.00  0.00    +0.000 C 
ATOM      9  O   UNL     1       0.572   9.300  18.351  0.00  0.00    +0.000 OA
BRANCH   7  10
ATOM     10  C   UNL     1       1.811   7.262  20.188  0.00  0.00    +0.000 C 
ATOM     11  C   UNL     1       1.610   5.955  20.422  0.00  0.00    +0.000 C 
BRANCH  11  12
ATOM     12  C   UNL     1       2.039   4.975  19.424  0.00  0.00    +0.000 A 
ATOM     13  C   UNL     1       3.058   5.295  18.520  0.00  0.00    +0.000 A 
ATOM     14  C   UNL     1       3.427   4.389  17.523  0.00  0.00    +0.000 A 
ATOM     15  C   UNL     1       2.776   3.160  17.422  0.00  0.00    +0.000 A 
ATOM     16  C   UNL     1       1.757   2.836  18.317  0.00  0.00    +0.000 A 
ATOM     17  C   UNL     1       1.386   3.741  19.314  0.00  0.00    +0.000 A 
ENDBRANCH  11  12
ENDBRANCH   7  10
ENDBRANCH   1   2
BRANCH   1  19
ATOM     18  N   UNL     1      -3.329  12.255  18.757  0.00  0.00    +0.000 N 
ATOM     19  C   UNL     1      -2.465  11.244  18.347  0.00  0.00    +0.000 C 
ATOM     20  O   UNL     1      -2.810  10.105  18.033  0.00  0.00    +0.000 OA
ATOM     21  H   UNL     1      -2.986  13.218  18.790  0.00  0.00    +0.000 HD
BRANCH  18  27
ATOM     22  C   UNL     1      -5.288  12.414  20.264  0.00  0.00    +0.000 A 
ATOM     23  C   UNL     1      -6.671  12.247  20.483  0.00  0.00    +0.000 A 
ATOM     24  C   UNL     1      -7.505  11.802  19.459  0.00  0.00    +0.000 A 
ATOM     25  C   UNL     1      -6.960  11.489  18.222  0.00  0.00    +0.000 A 
ATOM     26  C   UNL     1      -5.587  11.625  18.005  0.00  0.00    +0.000 A 
ATOM     27  C   UNL     1      -4.727  12.103  19.004  0.00  0.00    +0.000 A 
BRANCH  22  29
ATOM     28  N   UNL     1      -3.898  14.172  21.237  0.00  0.00    +0.000 N 
ATOM     29  C   UNL     1      -4.448  12.926  21.383  0.00  0.00    +0.000 C 
ATOM     30  O   UNL     1      -4.226  12.244  22.379  0.00  0.00    +0.000 OA
ATOM     31  H   UNL     1      -3.272  14.497  21.963  0.00  0.00    +0.000 HD
ATOM     32  H   UNL     1      -3.853  14.648  20.345  0.00  0.00    +0.000 HD
ENDBRANCH  22  29
ENDBRANCH  18  27
ENDBRANCH   1  19
TORSDOF 6
ENDMDL
MODEL 3
REMARK VINA RESULT:      -7.6      5.761     10.141
REMARK  Name = 
REMARK  6 active torsions:
REMARK  status: ('A' for Active; 'I' for Inactive)
REMARK    1  A    between atoms: C_2  and  C_4
REMARK    2  A    between atoms: C_9  and  N_10
REMARK    3  A    between atoms: C_11  and  C_13
REMARK    4  A    between atoms: C_13  and  N_14
REMARK    5  A    between atoms: C_19  and  C_20
REMARK    6  A    between atoms: C_21  and  C_22
REMARK                            x       y       z     vdW  Elec       q    Type
REMARK                         _______ _______ _______ _____ _____    ______ ____
ROOT
ATOM      1  C   UNL     1       3.577   2.946  16.946  0.00  0.00    +0.000 C 
ENDROOT
BRANCH   1   2
ATOM      2  N   UNL     1       3.050   3.047  18.303  0.00  0.00    +0.000 N 
ATOM      3  C   UNL     1       3.345   2.112  19.254  0.00  0.00    +0.000 C 
ATOM      4  O   UNL     1       3.964   1.074  19.098  0.00  0.00    +0.000 OA
ATOM      5  S   UNL     1       2.676   2.601  20.804  0.00  0.00    +0.000 S 
ATOM      6  C   UNL     1       2.109   4.115  20.186  0.00  0.00    +0.000 C 
ATOM      7  C   UNL     1       1.540   5.050  20.963  0.00  0.00    +0.000 C 
ATOM      8  C   UNL     1       2.388   4.177  18.718  0.00  0.00    +0.000 C 
ATOM      9  O   UNL     1       2.069   5.097  17.976  0.00  0.00    +0.000 OA
BRANCH   7  10
ATOM     10  C   UNL     1       1.077   6.351  20.528  0.00  0.00    +0.000 C 
ATOM     11  C   UNL     1       1.673   7.514  20.833  0.00  0.00    +0.000 C 
BRANCH  11  12
ATOM     12  C   UNL     1       1.105   8.765  20.328  0.00  0.00    +0.000 A 
ATOM     13  C   UNL     1       0.191   9.483  21.107  0.00  0.00    +0.000 A 
ATOM     14  C   UNL     1      -0.405  10.642  20.605  0.00  0.00    +0.000 A 
ATOM     15  C   UNL     1      -0.095  11.086  19.320  0.00  0.00    +0.000 A 
ATOM     16  C   UNL     1       0.812  10.372  18.537  0.00  0.00    +0.000 A 
ATOM     17  C   UNL     1       1.409   9.213  19.037  0.00  0.00    +0.000 A 
ENDBRANCH  11  12
ENDBRANCH   7  10
ENDBRANCH   1   2
BRANCH   1  19
ATOM     18  N   UNL     1       5.089   4.602  17.961  0.00  0.00    +0.000 N 
ATOM     19  C   UNL     1       4.853   3.794  16.852  0.00  0.00    +0.000 C 
ATOM     20  O   UNL     1       5.578   3.726  15.861  0.00  0.00    +0.000 OA
ATOM     21  H   UNL     1       4.558   4.436  18.819  0.00  0.00    +0.000 HD
BRANCH  18  27
ATOM     22  C   UNL     1       6.098   6.775  17.334  0.00  0.00    +0.000 A 
ATOM     23  C   UNL     1       7.145   7.712  17.459  0.00  0.00    +0.000 A 
ATOM     24  C   UNL     1       8.207   7.480  18.330  0.00  0.00    +0.000 A 
ATOM     25  C   UNL     1       8.249   6.298  19.056  0.00  0.00    +0.000 A 
ATOM     26  C   UNL     1       7.230   5.352  18.916  0.00  0.00    +0.000 A 
ATOM     27  C   UNL     1       6.131   5.572  18.075  0.00  0.00    +0.000 A 
BRANCH  22  29
ATOM     28  N   UNL     1       5.183   6.910  15.072  0.00  0.00    +0.000 N 
ATOM     29  C   UNL     1       4.969   7.090  16.414  0.00  0.00    +0.000 C 
ATOM     30  O   UNL     1       3.904   7.529  16.835  0.00  0.00    +0.000 OA
ATOM     31  H   UNL     1       4.444   7.186  14.438  0.00  0.00    +0.000 HD
ATOM     32  H   UNL     1       6.108   6.793  14.677  0.00  0.00    +0.000 HD
ENDBRANCH  22  29
ENDBRANCH  18  27
ENDBRANCH   1  19
TORSDOF 6
ENDMDL
MODEL 4
REMARK VINA RESULT:      -7.5      2.142      3.336
REMARK  Name = 
REMARK  6 active torsions:
REMARK  status: ('A' for Active; 'I' for Inactive)
REMARK    1  A    between atoms: C_2  and  C_4
REMARK    2  A    between atoms: C_9  and  N_10
REMARK    3  A    between atoms: C_11  and  C_13
REMARK    4  A    between atoms: C_13  and  N_14
REMARK    5  A    between atoms: C_19  and  C_20
REMARK    6  A    between atoms: C_21  and  C_22
REMARK                            x       y       z     vdW  Elec       q    Type
REMARK                         _______ _______ _______ _____ _____    ______ ____
ROOT
ATOM      1  C   UNL     1       0.315  12.551  21.202  0.00  0.00    +0.000 C 
ENDROOT
BRANCH   1   2
ATOM      2  N   UNL     1       0.984  12.128  19.975  0.00  0.00    +0.000 N 
ATOM      3  C   UNL     1       1.738  12.996  19.238  0.00  0.00    +0.000 C 
ATOM      4  O   UNL     1       1.874  14.193  19.423  0.00  0.00    +0.000 OA
ATOM      5  S   UNL     1       2.513  12.142  17.912  0.00  0.00    +0.000 S 
ATOM      6  C   UNL     1       1.912  10.603  18.431  0.00  0.00    +0.000 C 
ATOM      7  C   UNL     1       2.251   9.451  17.832  0.00  0.00    +0.000 C 
ATOM      8  C   UNL     1       1.024  10.802  19.618  0.00  0.00    +0.000 C 
ATOM      9  O   UNL     1       0.406   9.917  20.195  0.00  0.00    +0.000 OA
BRANCH   7  10
ATOM     10  C   UNL     1       1.821   8.127  18.230  0.00  0.00    +0.000 C 
ATOM     11  C   UNL     1       2.646   7.091  18.446  0.00  0.00    +0.000 C 
BRANCH  11  12
ATOM     12  C   UNL     1       2.085   5.800  18.847  0.00  0.00    +0.000 A 
ATOM     13  C   UNL     1       1.785   5.554  20.192  0.00  0.00    +0.000 A 
ATOM     14  C   UNL     1       1.311   4.302  20.591  0.00  0.00    +0.000 A 
ATOM     15  C   UNL     1       1.139   3.289  19.649  0.00  0.00    +0.000 A 
ATOM     16  C   UNL     1       1.439   3.526  18.308  0.00  0.00    +0.000 A 
ATOM     17  C   UNL     1       1.914   4.777  17.907  0.00  0.00    +0.000 A 
ENDBRANCH  11  12
ENDBRANCH   7  10
ENDBRANCH   1   2
BRANCH   1  19
ATOM     18  N   UNL     1      -2.033  12.070  20.639  0.00  0.00    +0.000 N 
ATOM     19  C   UNL     1      -1.084  13.069  20.842  0.00  0.00    +0.000 C 
ATOM     20  O   UNL     1      -1.302  14.276  20.756  0.00  0.00    +0.000 OA
ATOM     21  H   UNL     1      -1.820  11.115  20.939  0.00  0.00    +0.000 HD
BRANCH  18  27
ATOM     22  C   UNL     1      -3.765  11.879  18.880  0.00  0.00    +0.000 A 
ATOM     23  C   UNL     1      -5.088  12.100  18.446  0.00  0.00    +0.000 A 
ATOM     24  C   UNL     1      -6.027  12.684  19.294  0.00  0.00    +0.000 A 
ATOM     25  C   UNL     1      -5.643  13.081  20.567  0.00  0.00    +0.000 A 
ATOM     26  C   UNL     1      -4.326  12.891  20.995  0.00  0.00    +0.000 A 
ATOM     27  C   UNL     1      -3.368  12.274  20.177  0.00  0.00    +0.000 A 
BRANCH  22  29
ATOM     28  N   UNL     1      -3.154   9.981  17.466  0.00  0.00    +0.000 N 
ATOM     29  C   UNL     1      -2.812  11.219  17.944  0.00  0.00    +0.000 C 
ATOM     30  O   UNL     1      -1.745  11.745  17.642  0.00  0.00    +0.000 OA
ATOM     31  H   UNL     1      -2.481   9.499  16.884  0.00  0.00    +0.000 HD
ATOM     32  H   UNL     1      -3.889   9.421  17.879  0.00  0.00    +0.000 HD
ENDBRANCH  22  29
ENDBRANCH  18  27
ENDBRANCH   1  19
TORSDOF 6
ENDMDL
MODEL 5
REMARK VINA RESULT:      -7.5      5.451     10.109
REMARK  Name = 
REMARK  6 active torsions:
REMARK  status: ('A' for Active; 'I' for Inactive)
REMARK    1  A    between atoms: C_2  and  C_4
REMARK    2  A    between atoms: C_9  and  N_10
REMARK    3  A    between atoms: C_11  and  C_13
REMARK    4  A    between atoms: C_13  and  N_14
REMARK    5  A    between atoms: C_19  and  C_20
REMARK    6  A    between atoms: C_21  and  C_22
REMARK                            x       y       z     vdW  Elec       q    Type
REMARK                         _______ _______ _______ _____ _____    ______ ____
ROOT
ATOM      1  C   UNL     1       3.558   3.006  17.020  0.00  0.00    +0.000 C 
ENDROOT
BRANCH   1   2
ATOM      2  N   UNL     1       3.063   3.101  18.390  0.00  0.00    +0.000 N 
ATOM      3  C   UNL     1       3.410   2.182  19.339  0.00  0.00    +0.000 C 
ATOM      4  O   UNL     1       4.056   1.162  19.174  0.00  0.00    +0.000 OA
ATOM      5  S   UNL     1       2.765   2.661  20.902  0.00  0.00    +0.000 S 
ATOM      6  C   UNL     1       2.137   4.153  20.289  0.00  0.00    +0.000 C 
ATOM      7  C   UNL     1       1.559   5.076  21.074  0.00  0.00    +0.000 C 
ATOM      8  C   UNL     1       2.378   4.214  18.814  0.00  0.00    +0.000 C 
ATOM      9  O   UNL     1       2.013   5.118  18.074  0.00  0.00    +0.000 OA
BRANCH   7  10
ATOM     10  C   UNL     1       1.047   6.359  20.642  0.00  0.00    +0.000 C 
ATOM     11  C   UNL     1       1.773   7.486  20.572  0.00  0.00    +0.000 C 
BRANCH  11  12
ATOM     12  C   UNL     1       1.134   8.722  20.116  0.00  0.00    +0.000 A 
ATOM     13  C   UNL     1       1.530   9.312  18.911  0.00  0.00    +0.000 A 
ATOM     14  C   UNL     1       0.972  10.526  18.504  0.00  0.00    +0.000 A 
ATOM     15  C   UNL     1       0.019  11.158  19.301  0.00  0.00    +0.000 A 
ATOM     16  C   UNL     1      -0.377  10.577  20.506  0.00  0.00    +0.000 A 
ATOM     17  C   UNL     1       0.180   9.364  20.915  0.00  0.00    +0.000 A 
ENDBRANCH  11  12
ENDBRANCH   7  10
ENDBRANCH   1   2
BRANCH   1  19
ATOM     18  N   UNL     1       5.084   4.677  17.991  0.00  0.00    +0.000 N 
ATOM     19  C   UNL     1       4.844   3.837  16.907  0.00  0.00    +0.000 C 
ATOM     20  O   UNL     1       5.573   3.731  15.922  0.00  0.00    +0.000 OA
ATOM     21  H   UNL     1       4.547   4.543  18.851  0.00  0.00    +0.000 HD
BRANCH  18  27
ATOM     22  C   UNL     1       6.113   6.824  17.311  0.00  0.00    +0.000 A 
ATOM     23  C   UNL     1       7.169   7.753  17.412  0.00  0.00    +0.000 A 
ATOM     24  C   UNL     1       8.231   7.530  18.286  0.00  0.00    +0.000 A 
ATOM     25  C   UNL     1       8.263   6.365  19.040  0.00  0.00    +0.000 A 
ATOM     26  C   UNL     1       7.235   5.427  18.925  0.00  0.00    +0.000 A 
ATOM     27  C   UNL     1       6.136   5.638  18.080  0.00  0.00    +0.000 A 
BRANCH  22  29
ATOM     28  N   UNL     1       3.786   7.476  16.949  0.00  0.00    +0.000 N 
ATOM     29  C   UNL     1       4.986   7.128  16.386  0.00  0.00    +0.000 C 
ATOM     30  O   UNL     1       5.114   7.034  15.169  0.00  0.00    +0.000 OA
ATOM     31  H   UNL     1       2.999   7.618  16.329  0.00  0.00    +0.000 HD
ATOM     32  H   UNL     1       3.578   7.322  17.928  0.00  0.00    +0.000 HD
ENDBRANCH  22  29
ENDBRANCH  18  27
ENDBRANCH   1  19
TORSDOF 6
ENDMDL
MODEL 6
REMARK VINA RESULT:      -7.4      2.136      2.850
REMARK  Name = 
REMARK  6 active torsions:
REMARK  status: ('A' for Active; 'I' for Inactive)
REMARK    1  A    between atoms: C_2  and  C_4
REMARK    2  A    between atoms: C_9  and  N_10
REMARK    3  A    between atoms: C_11  and  C_13
REMARK    4  A    between atoms: C_13  and  N_14
REMARK    5  A    between atoms: C_19  and  C_20
REMARK    6  A    between atoms: C_21  and  C_22
REMARK                            x       y       z     vdW  Elec       q    Type
REMARK                         _______ _______ _______ _____ _____    ______ ____
ROOT
ATOM      1  C   UNL     1       0.335  12.690  21.397  0.00  0.00    +0.000 C 
ENDROOT
BRANCH   1   2
ATOM      2  N   UNL     1       0.931  12.273  20.132  0.00  0.00    +0.000 N 
ATOM      3  C   UNL     1       1.592  13.160  19.329  0.00  0.00    +0.000 C 
ATOM      4  O   UNL     1       1.689  14.364  19.487  0.00  0.00    +0.000 OA
ATOM      5  S   UNL     1       2.306  12.316  17.964  0.00  0.00    +0.000 S 
ATOM      6  C   UNL     1       1.813  10.763  18.547  0.00  0.00    +0.000 C 
ATOM      7  C   UNL     1       2.158   9.615  17.942  0.00  0.00    +0.000 C 
ATOM      8  C   UNL     1       1.004  10.944  19.792  0.00  0.00    +0.000 C 
ATOM      9  O   UNL     1       0.468  10.044  20.425  0.00  0.00    +0.000 OA
BRANCH   7  10
ATOM     10  C   UNL     1       1.816   8.282  18.390  0.00  0.00    +0.000 C 
ATOM     11  C   UNL     1       2.629   7.217  18.304  0.00  0.00    +0.000 C 
BRANCH  11  12
ATOM     12  C   UNL     1       2.164   5.919  18.795  0.00  0.00    +0.000 A 
ATOM     13  C   UNL     1       1.912   4.879  17.894  0.00  0.00    +0.000 A 
ATOM     14  C   UNL     1       1.405   3.659  18.349  0.00  0.00    +0.000 A 
ATOM     15  C   UNL     1       1.143   3.475  19.706  0.00  0.00    +0.000 A 
ATOM     16  C   UNL     1       1.387   4.510  20.609  0.00  0.00    +0.000 A 
ATOM     17  C   UNL     1       1.894   5.730  20.156  0.00  0.00    +0.000 A 
ENDBRANCH  11  12
ENDBRANCH   7  10
ENDBRANCH   1   2
BRANCH   1  19
ATOM     18  N   UNL     1      -2.092  12.274  21.352  0.00  0.00    +0.000 N 
ATOM     19  C   UNL     1      -1.084  13.206  21.122  0.00  0.00    +0.000 C 
ATOM     20  O   UNL     1      -1.266  14.360  20.736  0.00  0.00    +0.000 OA
ATOM     21  H   UNL     1      -1.870  11.421  21.871  0.00  0.00    +0.000 HD
BRANCH  18  27
ATOM     22  C   UNL     1      -4.410  12.759  22.075  0.00  0.00    +0.000 A 
ATOM     23  C   UNL     1      -5.774  12.927  21.757  0.00  0.00    +0.000 A 
ATOM     24  C   UNL     1      -6.215  12.826  20.440  0.00  0.00    +0.000 A 
ATOM     25  C   UNL     1      -5.305  12.524  19.436  0.00  0.00    +0.000 A 
ATOM     26  C   UNL     1      -3.957  12.328  19.746  0.00  0.00    +0.000 A 
ATOM     27  C   UNL     1      -3.477  12.457  21.057  0.00  0.00    +0.000 A 
BRANCH  22  29
ATOM     28  N   UNL     1      -4.476  12.004  24.398  0.00  0.00    +0.000 N 
ATOM     29  C   UNL     1      -3.987  12.912  23.495  0.00  0.00    +0.000 C 
ATOM     30  O   UNL     1      -3.263  13.836  23.851  0.00  0.00    +0.000 OA
ATOM     31  H   UNL     1      -4.247  12.143  25.374  0.00  0.00    +0.000 HD
ATOM     32  H   UNL     1      -5.257  11.395  24.191  0.00  0.00    +0.000 HD
ENDBRANCH  22  29
ENDBRANCH  18  27
ENDBRANCH   1  19
TORSDOF 6
ENDMDL
MODEL 7
REMARK VINA RESULT:      -7.3      1.437      2.757
REMARK  Name = 
REMARK  6 active torsions:
REMARK  status: ('A' for Active; 'I' for Inactive)
REMARK    1  A    between atoms: C_2  and  C_4
REMARK    2  A    between atoms: C_9  and  N_10
REMARK    3  A    between atoms: C_11  and  C_13
REMARK    4  A    between atoms: C_13  and  N_14
REMARK    5  A    between atoms: C_19  and  C_20
REMARK    6  A    between atoms: C_21  and  C_22
REMARK                            x       y       z     vdW  Elec       q    Type
REMARK                         _______ _______ _______ _____ _____    ______ ____
ROOT
ATOM      1  C   UNL     1      -0.258  12.764  20.556  0.00  0.00    +0.000 C 
ENDROOT
BRANCH   1   2
ATOM      2  N   UNL     1      -0.063  11.534  21.317  0.00  0.00    +0.000 N 
ATOM      3  C   UNL     1      -0.723  11.309  22.492  0.00  0.00    +0.000 C 
ATOM      4  O   UNL     1      -1.445  12.088  23.091  0.00  0.00    +0.000 OA
ATOM      5  S   UNL     1      -0.376   9.689  23.075  0.00  0.00    +0.000 S 
ATOM      6  C   UNL     1       0.558   9.285  21.675  0.00  0.00    +0.000 C 
ATOM      7  C   UNL     1       1.067   8.060  21.468  0.00  0.00    +0.000 C 
ATOM      8  C   UNL     1       0.652  10.486  20.789  0.00  0.00    +0.000 C 
ATOM      9  O   UNL     1       1.283  10.545  19.742  0.00  0.00    +0.000 OA
BRANCH   7  10
ATOM     10  C   UNL     1       1.822   7.637  20.308  0.00  0.00    +0.000 C 
ATOM     11  C   UNL     1       2.174   6.369  20.048  0.00  0.00    +0.000 C 
BRANCH  11  12
ATOM     12  C   UNL     1       2.940   6.072  18.836  0.00  0.00    +0.000 A 
ATOM     13  C   UNL     1       3.161   4.744  18.455  0.00  0.00    +0.000 A 
ATOM     14  C   UNL     1       3.947   4.453  17.338  0.00  0.00    +0.000 A 
ATOM     15  C   UNL     1       4.518   5.487  16.598  0.00  0.00    +0.000 A 
ATOM     16  C   UNL     1       4.305   6.813  16.974  0.00  0.00    +0.000 A 
ATOM     17  C   UNL     1       3.520   7.106  18.092  0.00  0.00    +0.000 A 
ENDBRANCH  11  12
ENDBRANCH   7  10
ENDBRANCH   1   2
BRANCH   1  19
ATOM     18  N   UNL     1      -2.265  11.905  19.418  0.00  0.00    +0.000 N 
ATOM     19  C   UNL     1      -1.753  12.908  20.236  0.00  0.00    +0.000 C 
ATOM     20  O   UNL     1      -2.403  13.847  20.693  0.00  0.00    +0.000 OA
ATOM     21  H   UNL     1      -1.712  11.058  19.265  0.00  0.00    +0.000 HD
BRANCH  18  27
ATOM     22  C   UNL     1      -3.841  11.303  17.605  0.00  0.00    +0.000 A 
ATOM     23  C   UNL     1      -5.153  11.290  17.088  0.00  0.00    +0.000 A 
ATOM     24  C   UNL     1      -6.214  11.808  17.827  0.00  0.00    +0.000 A 
ATOM     25  C   UNL     1      -5.969  12.373  19.070  0.00  0.00    +0.000 A 
ATOM     26  C   UNL     1      -4.668  12.415  19.578  0.00  0.00    +0.000 A 
ATOM     27  C   UNL     1      -3.585  11.870  18.874  0.00  0.00    +0.000 A 
BRANCH  22  29
ATOM     28  N   UNL     1      -2.514  11.253  15.554  0.00  0.00    +0.000 N 
ATOM     29  C   UNL     1      -2.749  10.704  16.787  0.00  0.00    +0.000 C 
ATOM     30  O   UNL     1      -2.112   9.734  17.184  0.00  0.00    +0.000 OA
ATOM     31  H   UNL     1      -1.820  10.809  14.967  0.00  0.00    +0.000 HD
ATOM     32  H   UNL     1      -3.170  11.877  15.100  0.00  0.00    +0.000 HD
ENDBRANCH  22  29
ENDBRANCH  18  27
ENDBRANCH   1  19
TORSDOF 6
ENDMDL
MODEL 8
REMARK VINA RESULT:      -7.3      2.826      4.278
REMARK  Name = 
REMARK  6 active torsions:
REMARK  status: ('A' for Active; 'I' for Inactive)
REMARK    1  A    between atoms: C_2  and  C_4
REMARK    2  A    between atoms: C_9  and  N_10
REMARK    3  A    between atoms: C_11  and  C_13
REMARK    4  A    between atoms: C_13  and  N_14
REMARK    5  A    between atoms: C_19  and  C_20
REMARK    6  A    between atoms: C_21  and  C_22
REMARK                            x       y       z     vdW  Elec       q    Type
REMARK                         _______ _______ _______ _____ _____    ______ ____
ROOT
ATOM      1  C   UNL     1      -1.800  11.934  20.211  0.00  0.00    +0.000 C 
ENDROOT
BRANCH   1   2
ATOM      2  N   UNL     1      -0.532  11.817  19.497  0.00  0.00    +0.000 N 
ATOM      3  C   UNL     1       0.266  12.905  19.280  0.00  0.00    +0.000 C 
ATOM      4  O   UNL     1       0.013  14.067  19.541  0.00  0.00    +0.000 OA
ATOM      5  S   UNL     1       1.771  12.402  18.525  0.00  0.00    +0.000 S 
ATOM      6  C   UNL     1       1.364  10.722  18.616  0.00  0.00    +0.000 C 
ATOM      7  C   UNL     1       2.211   9.748  18.248  0.00  0.00    +0.000 C 
ATOM      8  C   UNL     1      -0.016  10.585  19.176  0.00  0.00    +0.000 C 
ATOM      9  O   UNL     1      -0.617   9.529  19.326  0.00  0.00    +0.000 OA
BRANCH   7  10
ATOM     10  C   UNL     1       1.957   8.325  18.331  0.00  0.00    +0.000 C 
ATOM     11  C   UNL     1       2.399   7.528  19.315  0.00  0.00    +0.000 C 
BRANCH  11  12
ATOM     12  C   UNL     1       2.072   6.101  19.284  0.00  0.00    +0.000 A 
ATOM     13  C   UNL     1       2.154   5.391  18.081  0.00  0.00    +0.000 A 
ATOM     14  C   UNL     1       1.779   4.046  18.030  0.00  0.00    +0.000 A 
ATOM     15  C   UNL     1       1.319   3.406  19.180  0.00  0.00    +0.000 A 
ATOM     16  C   UNL     1       1.232   4.109  20.382  0.00  0.00    +0.000 A 
ATOM     17  C   UNL     1       1.605   5.454  20.434  0.00  0.00    +0.000 A 
ENDBRANCH  11  12
ENDBRANCH   7  10
ENDBRANCH   1   2
BRANCH   1  19
ATOM     18  N   UNL     1      -2.218  13.553  22.019  0.00  0.00    +0.000 N 
ATOM     19  C   UNL     1      -1.512  12.414  21.641  0.00  0.00    +0.000 C 
ATOM     20  O   UNL     1      -0.719  11.806  22.358  0.00  0.00    +0.000 OA
ATOM     21  H   UNL     1      -3.006  13.862  21.444  0.00  0.00    +0.000 HD
BRANCH  18  27
ATOM     22  C   UNL     1      -2.949  14.121  24.315  0.00  0.00    +0.000 A 
ATOM     23  C   UNL     1      -2.758  14.849  25.508  0.00  0.00    +0.000 A 
ATOM     24  C   UNL     1      -1.666  15.701  25.654  0.00  0.00    +0.000 A 
ATOM     25  C   UNL     1      -0.777  15.858  24.600  0.00  0.00    +0.000 A 
ATOM     26  C   UNL     1      -0.974  15.162  23.405  0.00  0.00    +0.000 A 
ATOM     27  C   UNL     1      -2.044  14.271  23.240  0.00  0.00    +0.000 A 
BRANCH  22  29
ATOM     28  N   UNL     1      -5.364  13.750  24.338  0.00  0.00    +0.000 N 
ATOM     29  C   UNL     1      -4.115  13.198  24.226  0.00  0.00    +0.000 C 
ATOM     30  O   UNL     1      -3.964  11.987  24.096  0.00  0.00    +0.000 OA
ATOM     31  H   UNL     1      -6.157  13.121  24.346  0.00  0.00    +0.000 HD
ATOM     32  H   UNL     1      -5.518  14.687  24.690  0.00  0.00    +0.000 HD
ENDBRANCH  22  29
ENDBRANCH  18  27
ENDBRANCH   1  19
TORSDOF 6
ENDMDL
MODEL 9
REMARK VINA RESULT:      -7.3      2.132      2.709
REMARK  Name = 
REMARK  6 active torsions:
REMARK  status: ('A' for Active; 'I' for Inactive)
REMARK    1  A    between atoms: C_2  and  C_4
REMARK    2  A    between atoms: C_9  and  N_10
REMARK    3  A    between atoms: C_11  and  C_13
REMARK    4  A    between atoms: C_13  and  N_14
REMARK    5  A    between atoms: C_19  and  C_20
REMARK    6  A    between atoms: C_21  and  C_22
REMARK                            x       y       z     vdW  Elec       q    Type
REMARK                         _______ _______ _______ _____ _____    ______ ____
ROOT
ATOM      1  C   UNL     1      -0.451  11.930  21.195  0.00  0.00    +0.000 C 
ENDROOT
BRANCH   1   2
ATOM      2  N   UNL     1       0.401  11.685  20.036  0.00  0.00    +0.000 N 
ATOM      3  C   UNL     1       1.135  12.687  19.466  0.00  0.00    +0.000 C 
ATOM      4  O   UNL     1       1.114  13.870  19.755  0.00  0.00    +0.000 OA
ATOM      5  S   UNL     1       2.152  12.034  18.191  0.00  0.00    +0.000 S 
ATOM      6  C   UNL     1       1.671  10.403  18.514  0.00  0.00    +0.000 C 
ATOM      7  C   UNL     1       2.205   9.348  17.879  0.00  0.00    +0.000 C 
ATOM      8  C   UNL     1       0.632  10.406  19.589  0.00  0.00    +0.000 C 
ATOM      9  O   UNL     1       0.053   9.416  20.016  0.00  0.00    +0.000 OA
BRANCH   7  10
ATOM     10  C   UNL     1       1.882   7.958  18.121  0.00  0.00    +0.000 C 
ATOM     11  C   UNL     1       2.606   7.129  18.890  0.00  0.00    +0.000 C 
BRANCH  11  12
ATOM     12  C   UNL     1       2.171   5.741  19.055  0.00  0.00    +0.000 A 
ATOM     13  C   UNL     1       2.110   4.890  17.946  0.00  0.00    +0.000 A 
ATOM     14  C   UNL     1       1.632   3.585  18.086  0.00  0.00    +0.000 A 
ATOM     15  C   UNL     1       1.210   3.126  19.333  0.00  0.00    +0.000 A 
ATOM     16  C   UNL     1       1.265   3.971  20.442  0.00  0.00    +0.000 A 
ATOM     17  C   UNL     1       1.741   5.276  20.304  0.00  0.00    +0.000 A 
ENDBRANCH  11  12
ENDBRANCH   7  10
ENDBRANCH   1   2
BRANCH   1  19
ATOM     18  N   UNL     1      -2.715  12.787  21.644  0.00  0.00    +0.000 N 
ATOM     19  C   UNL     1      -1.882  12.187  20.704  0.00  0.00    +0.000 C 
ATOM     20  O   UNL     1      -2.217  11.875  19.562  0.00  0.00    +0.000 OA
ATOM     21  H   UNL     1      -2.300  13.202  22.481  0.00  0.00    +0.000 HD
BRANCH  18  27
ATOM     22  C   UNL     1      -4.981  13.073  22.601  0.00  0.00    +0.000 A 
ATOM     23  C   UNL     1      -6.361  13.296  22.415  0.00  0.00    +0.000 A 
ATOM     24  C   UNL     1      -6.884  13.493  21.139  0.00  0.00    +0.000 A 
ATOM     25  C   UNL     1      -6.041  13.435  20.039  0.00  0.00    +0.000 A 
ATOM     26  C   UNL     1      -4.677  13.187  20.212  0.00  0.00    +0.000 A 
ATOM     27  C   UNL     1      -4.115  13.020  21.486  0.00  0.00    +0.000 A 
BRANCH  22  29
ATOM     28  N   UNL     1      -4.298  14.037  24.740  0.00  0.00    +0.000 N 
ATOM     29  C   UNL     1      -4.470  12.903  23.990  0.00  0.00    +0.000 C 
ATOM     30  O   UNL     1      -4.178  11.796  24.433  0.00  0.00    +0.000 OA
ATOM     31  H   UNL     1      -3.888  13.934  25.659  0.00  0.00    +0.000 HD
ATOM     32  H   UNL     1      -4.289  14.964  24.333  0.00  0.00    +0.000 HD
ENDBRANCH  22  29
ENDBRANCH  18  27
ENDBRANCH   1  19
TORSDOF 6
ENDMDL
