MODEL 1
REMARK VINA RESULT:      -6.9      0.000      0.000
REMARK  Name = 
REMARK  5 active torsions:
REMARK  status: ('A' for Active; 'I' for Inactive)
REMARK    1  A    between atoms: C_4  and  C_5
REMARK    2  A    between atoms: C_5  and  N_6
REMARK    3  A    between atoms: N_6  and  C_7
REMARK    4  A    between atoms: C_7  and  C_8
REMARK    5  A    between atoms: C_8  and  N_9
REMARK                            x       y       z     vdW  Elec       q    Type
REMARK                         _______ _______ _______ _____ _____    ______ ____
ROOT
ATOM      1  C   UNL     1       5.527   6.334  17.400  0.00  0.00    +0.000 C 
ENDROOT
BRANCH   1   2
ATOM      2  N   UNL     1       6.112   6.458  16.056  0.00  0.00    +0.000 NA
ATOM      3  H   UNL     1       5.373   6.426  15.354  0.00  0.00    +0.000 HD
BRANCH   2   4
ATOM      4  C   UNL     1       7.067   5.385  15.780  0.00  0.00    +0.000 C 
BRANCH   4   8
ATOM      5  C   UNL     1       6.401   3.689  11.861  0.00  0.00    +0.000 A 
ATOM      6  C   UNL     1       5.529   3.402  12.908  0.00  0.00    +0.000 A 
ATOM      7  C   UNL     1       5.746   3.959  14.169  0.00  0.00    +0.000 A 
ATOM      8  C   UNL     1       6.843   4.804  14.402  0.00  0.00    +0.000 A 
ATOM      9  C   UNL     1       7.707   5.096  13.337  0.00  0.00    +0.000 A 
ATOM     10  C   UNL     1       7.486   4.540  12.074  0.00  0.00    +0.000 A 
ENDBRANCH   4   8
ENDBRANCH   2   4
ENDBRANCH   1   2
BRANCH   1  11
ATOM     11  C   UNL     1       4.121   5.699  17.294  0.00  0.00    +0.000 C 
BRANCH  11  12
ATOM     12  N   UNL     1       3.880   4.478  18.098  0.00  0.00    +0.000 NA
ATOM     13  C   UNL     1       3.820   3.272  17.240  0.00  0.00    +0.000 C 
ATOM     14  C   UNL     1       3.432   1.993  18.004  0.00  0.00    +0.000 C 
ATOM     15  C   UNL     1       2.118   2.175  18.762  0.00  0.00    +0.000 C 
ATOM     16  C   UNL     1       2.286   3.382  19.668  0.00  0.00    +0.000 C 
ATOM     17  C   UNL     1       1.053   3.819  20.447  0.00  0.00    +0.000 C 
ATOM     18  C   UNL     1       1.319   5.296  20.766  0.00  0.00    +0.000 C 
ATOM     19  C   UNL     1       2.498   5.729  19.881  0.00  0.00    +0.000 C 
ATOM     20  C   UNL     1       2.605   4.622  18.828  0.00  0.00    +0.000 C 
ENDBRANCH  11  12
ENDBRANCH   1  11
TORSDOF 5
ENDMDL
MODEL 2
REMARK VINA RESULT:      -6.9      4.654      6.800
REMARK  Name = 
REMARK  5 active torsions:
REMARK  status: ('A' for Active; 'I' for Inactive)
REMARK    1  A    between atoms: C_4  and  C_5
REMARK    2  A    between atoms: C_5  and  N_6
REMARK    3  A    between atoms: N_6  and  C_7
REMARK    4  A    between atoms: C_7  and  C_8
REMARK    5  A    between atoms: C_8  and  N_9
REMARK                            x       y       z     vdW  Elec       q    Type
REMARK                         _______ _______ _______ _____ _____    ______ ____
ROOT
ATOM      1  C   UNL     1       7.663   7.656  17.646  0.00  0.00    +0.000 C 
ENDROOT
BRANCH   1   2
ATOM      2  N   UNL     1       8.490   8.531  18.490  0.00  0.00    +0.000 NA
ATOM      3  H   UNL     1       8.160   8.493  19.454  0.00  0.00    +0.000 HD
BRANCH   2   4
ATOM      4  C   UNL     1       8.448   9.920  18.034  0.00  0.00    +0.000 C 
BRANCH   4   8
ATOM      5  C   UNL     1      11.539  12.264  19.938  0.00  0.00    +0.000 A 
ATOM      6  C   UNL     1      11.569  12.049  18.563  0.00  0.00    +0.000 A 
ATOM      7  C   UNL     1      10.563  11.297  17.954  0.00  0.00    +0.000 A 
ATOM      8  C   UNL     1       9.520  10.743  18.713  0.00  0.00    +0.000 A 
ATOM      9  C   UNL     1       9.494  10.978  20.095  0.00  0.00    +0.000 A 
ATOM     10  C   UNL     1      10.500  11.734  20.703  0.00  0.00    +0.000 A 
ENDBRANCH   4   8
ENDBRANCH   2   4
ENDBRANCH   1   2
BRANCH   1  11
ATOM     11  C   UNL     1       7.479   6.289  18.345  0.00  0.00    +0.000 C 
BRANCH  11  12
ATOM     12  N   UNL     1       6.979   5.174  17.506  0.00  0.00    +0.000 NA
ATOM     13  C   UNL     1       7.260   5.413  16.071  0.00  0.00    +0.000 C 
ATOM     14  C   UNL     1       6.638   4.357  15.140  0.00  0.00    +0.000 C 
ATOM     15  C   UNL     1       5.134   4.223  15.375  0.00  0.00    +0.000 C 
ATOM     16  C   UNL     1       4.937   3.908  16.848  0.00  0.00    +0.000 C 
ATOM     17  C   UNL     1       3.497   3.836  17.336  0.00  0.00    +0.000 C 
ATOM     18  C   UNL     1       3.603   4.100  18.844  0.00  0.00    +0.000 C 
ATOM     19  C   UNL     1       5.017   4.644  19.095  0.00  0.00    +0.000 C 
ATOM     20  C   UNL     1       5.523   5.035  17.703  0.00  0.00    +0.000 C 
ENDBRANCH  11  12
ENDBRANCH   1  11
TORSDOF 5
ENDMDL
MODEL 3
REMARK VINA RESULT:      -6.8      1.132      2.504
REMARK  Name = 
REMARK  5 active torsions:
REMARK  status: ('A' for Active; 'I' for Inactive)
REMARK    1  A    between atoms: C_4  and  C_5
REMARK    2  A    between atoms: C_5  and  N_6
REMARK    3  A    between atoms: N_6  and  C_7
REMARK    4  A    between atoms: C_7  and  C_8
REMARK    5  A    between atoms: C_8  and  N_9
REMARK                            x       y       z     vdW  Elec       q    Type
REMARK                         _______ _______ _______ _____ _____    ______ ____
ROOT
ATOM      1  C   UNL     1       5.159   3.810  17.661  0.00  0.00    +0.000 C 
ENDROOT
BRANCH   1   2
ATOM      2  N   UNL     1       6.371   4.163  16.908  0.00  0.00    +0.000 NA
ATOM      3  H   UNL     1       7.104   4.461  17.551  0.00  0.00    +0.000 HD
BRANCH   2   4
ATOM      4  C   UNL     1       6.120   5.242  15.953  0.00  0.00    +0.000 C 
BRANCH   4   8
ATOM      5  C   UNL     1       7.035   4.009  11.913  0.00  0.00    +0.000 A 
ATOM      6  C   UNL     1       7.823   4.963  12.551  0.00  0.00    +0.000 A 
ATOM      7  C   UNL     1       7.526   5.350  13.858  0.00  0.00    +0.000 A 
ATOM      8  C   UNL     1       6.432   4.796  14.541  0.00  0.00    +0.000 A 
ATOM      9  C   UNL     1       5.654   3.827  13.893  0.00  0.00    +0.000 A 
ATOM     10  C   UNL     1       5.955   3.436  12.585  0.00  0.00    +0.000 A 
ENDBRANCH   4   8
ENDBRANCH   2   4
ENDBRANCH   1   2
BRANCH   1  11
ATOM     11  C   UNL     1       3.937   4.518  17.033  0.00  0.00    +0.000 C 
BRANCH  11  12
ATOM     12  N   UNL     1       2.901   5.014  17.970  0.00  0.00    +0.000 NA
ATOM     13  C   UNL     1       3.418   6.122  18.806  0.00  0.00    +0.000 C 
ATOM     14  C   UNL     1       2.432   6.583  19.894  0.00  0.00    +0.000 C 
ATOM     15  C   UNL     1       1.986   5.415  20.771  0.00  0.00    +0.000 C 
ATOM     16  C   UNL     1       1.404   4.357  19.850  0.00  0.00    +0.000 C 
ATOM     17  C   UNL     1       0.989   3.046  20.502  0.00  0.00    +0.000 C 
ATOM     18  C   UNL     1       1.018   2.033  19.351  0.00  0.00    +0.000 C 
ATOM     19  C   UNL     1       1.765   2.709  18.192  0.00  0.00    +0.000 C 
ATOM     20  C   UNL     1       2.465   3.906  18.842  0.00  0.00    +0.000 C 
ENDBRANCH  11  12
ENDBRANCH   1  11
TORSDOF 5
ENDMDL
MODEL 4
REMARK VINA RESULT:      -6.8      0.938      2.529
REMARK  Name = 
REMARK  5 active torsions:
REMARK  status: ('A' for Active; 'I' for Inactive)
REMARK    1  A    between atoms: C_4  and  C_5
REMARK    2  A    between atoms: C_5  and  N_6
REMARK    3  A    between atoms: N_6  and  C_7
REMARK    4  A    between atoms: C_7  and  C_8
REMARK    5  A    between atoms: C_8  and  N_9
REMARK                            x       y       z     vdW  Elec       q    Type
REMARK                         _______ _______ _______ _____ _____    ______ ____
ROOT
ATOM      1  C   UNL     1       5.687   4.952  18.220  0.00  0.00    +0.000 C 
ENDROOT
BRANCH   1   2
ATOM      2  N   UNL     1       6.464   4.397  17.102  0.00  0.00    +0.000 NA
ATOM      3  H   UNL     1       7.334   3.996  17.451  0.00  0.00    +0.000 HD
BRANCH   2   4
ATOM      4  C   UNL     1       6.784   5.418  16.105  0.00  0.00    +0.000 C 
BRANCH   4   8
ATOM      5  C   UNL     1       6.555   3.840  12.089  0.00  0.00    +0.000 A 
ATOM      6  C   UNL     1       7.559   4.740  12.433  0.00  0.00    +0.000 A 
ATOM      7  C   UNL     1       7.632   5.240  13.733  0.00  0.00    +0.000 A 
ATOM      8  C   UNL     1       6.696   4.853  14.705  0.00  0.00    +0.000 A 
ATOM      9  C   UNL     1       5.696   3.936  14.350  0.00  0.00    +0.000 A 
ATOM     10  C   UNL     1       5.627   3.433  13.048  0.00  0.00    +0.000 A 
ENDBRANCH   4   8
ENDBRANCH   2   4
ENDBRANCH   1   2
BRANCH   1  11
ATOM     11  C   UNL     1       4.498   5.771  17.666  0.00  0.00    +0.000 C 
BRANCH  11  12
ATOM     12  N   UNL     1       3.180   5.547  18.306  0.00  0.00    +0.000 NA
ATOM     13  C   UNL     1       3.091   6.242  19.611  0.00  0.00    +0.000 C 
ATOM     14  C   UNL     1       1.798   5.929  20.386  0.00  0.00    +0.000 C 
ATOM     15  C   UNL     1       1.608   4.424  20.568  0.00  0.00    +0.000 C 
ATOM     16  C   UNL     1       1.639   3.797  19.185  0.00  0.00    +0.000 C 
ATOM     17  C   UNL     1       1.575   2.277  19.130  0.00  0.00    +0.000 C 
ATOM     18  C   UNL     1       2.199   1.928  17.773  0.00  0.00    +0.000 C 
ATOM     19  C   UNL     1       2.894   3.202  17.270  0.00  0.00    +0.000 C 
ATOM     20  C   UNL     1       2.980   4.098  18.508  0.00  0.00    +0.000 C 
ENDBRANCH  11  12
ENDBRANCH   1  11
TORSDOF 5
ENDMDL
MODEL 5
REMARK VINA RESULT:      -6.8      1.028      2.227
REMARK  Name = 
REMARK  5 active torsions:
REMARK  status: ('A' for Active; 'I' for Inactive)
REMARK    1  A    between atoms: C_4  and  C_5
REMARK    2  A    between atoms: C_5  and  N_6
REMARK    3  A    between atoms: N_6  and  C_7
REMARK    4  A    between atoms: C_7  and  C_8
REMARK    5  A    between atoms: C_8  and  N_9
REMARK                            x       y       z     vdW  Elec       q    Type
REMARK                         _______ _______ _______ _____ _____    ______ ____
ROOT
ATOM      1  C   UNL     1       4.949   6.264  16.869  0.00  0.00    +0.000 C 
ENDROOT
BRANCH   1   2
ATOM      2  N   UNL     1       6.242   5.668  16.501  0.00  0.00    +0.000 NA
ATOM      3  H   UNL     1       6.714   6.262  15.820  0.00  0.00    +0.000 HD
BRANCH   2   4
ATOM      4  C   UNL     1       6.079   4.334  15.925  0.00  0.00    +0.000 C 
BRANCH   4   8
ATOM      5  C   UNL     1       7.143   4.274  11.737  0.00  0.00    +0.000 A 
ATOM      6  C   UNL     1       6.123   3.456  12.213  0.00  0.00    +0.000 A 
ATOM      7  C   UNL     1       5.780   3.486  13.565  0.00  0.00    +0.000 A 
ATOM      8  C   UNL     1       6.458   4.328  14.461  0.00  0.00    +0.000 A 
ATOM      9  C   UNL     1       7.476   5.156  13.967  0.00  0.00    +0.000 A 
ATOM     10  C   UNL     1       7.816   5.128  12.611  0.00  0.00    +0.000 A 
ENDBRANCH   4   8
ENDBRANCH   2   4
ENDBRANCH   1   2
BRANCH   1  11
ATOM     11  C   UNL     1       3.901   5.142  17.061  0.00  0.00    +0.000 C 
BRANCH  11  12
ATOM     12  N   UNL     1       2.798   5.418  18.012  0.00  0.00    +0.000 NA
ATOM     13  C   UNL     1       3.175   6.472  18.982  0.00  0.00    +0.000 C 
ATOM     14  C   UNL     1       2.122   6.701  20.081  0.00  0.00    +0.000 C 
ATOM     15  C   UNL     1       1.785   5.400  20.809  0.00  0.00    +0.000 C 
ATOM     16  C   UNL     1       1.340   4.399  19.757  0.00  0.00    +0.000 C 
ATOM     17  C   UNL     1       1.055   2.986  20.246  0.00  0.00    +0.000 C 
ATOM     18  C   UNL     1       1.218   2.119  18.992  0.00  0.00    +0.000 C 
ATOM     19  C   UNL     1       1.913   2.997  17.940  0.00  0.00    +0.000 C 
ATOM     20  C   UNL     1       2.465   4.178  18.741  0.00  0.00    +0.000 C 
ENDBRANCH  11  12
ENDBRANCH   1  11
TORSDOF 5
ENDMDL
MODEL 6
REMARK VINA RESULT:      -6.7      0.600      1.261
REMARK  Name = 
REMARK  5 active torsions:
REMARK  status: ('A' for Active; 'I' for Inactive)
REMARK    1  A    between atoms: C_4  and  C_5
REMARK    2  A    between atoms: C_5  and  N_6
REMARK    3  A    between atoms: N_6  and  C_7
REMARK    4  A    between atoms: C_7  and  C_8
REMARK    5  A    between atoms: C_8  and  N_9
REMARK                            x       y       z     vdW  Elec       q    Type
REMARK                         _______ _______ _______ _____ _____    ______ ____
ROOT
ATOM      1  C   UNL     1       4.625   6.183  17.190  0.00  0.00    +0.000 C 
ENDROOT
BRANCH   1   2
ATOM      2  N   UNL     1       5.477   6.411  16.013  0.00  0.00    +0.000 NA
ATOM      3  H   UNL     1       4.913   6.372  15.165  0.00  0.00    +0.000 HD
BRANCH   2   4
ATOM      4  C   UNL     1       6.542   5.414  15.914  0.00  0.00    +0.000 C 
BRANCH   4   8
ATOM      5  C   UNL     1       6.810   3.853  11.893  0.00  0.00    +0.000 A 
ATOM      6  C   UNL     1       7.666   4.869  12.310  0.00  0.00    +0.000 A 
ATOM      7  C   UNL     1       7.579   5.362  13.612  0.00  0.00    +0.000 A 
ATOM      8  C   UNL     1       6.629   4.854  14.512  0.00  0.00    +0.000 A 
ATOM      9  C   UNL     1       5.780   3.822  14.084  0.00  0.00    +0.000 A 
ATOM     10  C   UNL     1       5.871   3.326  12.781  0.00  0.00    +0.000 A 
ENDBRANCH   4   8
ENDBRANCH   2   4
ENDBRANCH   1   2
BRANCH   1  11
ATOM     11  C   UNL     1       5.282   5.123  18.104  0.00  0.00    +0.000 C 
BRANCH  11  12
ATOM     12  N   UNL     1       4.423   3.996  18.539  0.00  0.00    +0.000 NA
ATOM     13  C   UNL     1       4.211   3.026  17.439  0.00  0.00    +0.000 C 
ATOM     14  C   UNL     1       3.213   1.908  17.790  0.00  0.00    +0.000 C 
ATOM     15  C   UNL     1       1.878   2.482  18.261  0.00  0.00    +0.000 C 
ATOM     16  C   UNL     1       2.173   3.405  19.431  0.00  0.00    +0.000 C 
ATOM     17  C   UNL     1       0.990   4.178  19.997  0.00  0.00    +0.000 C 
ATOM     18  C   UNL     1       1.634   5.386  20.691  0.00  0.00    +0.000 C 
ATOM     19  C   UNL     1       3.091   5.442  20.209  0.00  0.00    +0.000 C 
ATOM     20  C   UNL     1       3.118   4.524  18.983  0.00  0.00    +0.000 C 
ENDBRANCH  11  12
ENDBRANCH   1  11
TORSDOF 5
ENDMDL
MODEL 7
REMARK VINA RESULT:      -6.7      0.697      2.243
REMARK  Name = 
REMARK  5 active torsions:
REMARK  status: ('A' for Active; 'I' for Inactive)
REMARK    1  A    between atoms: C_4  and  C_5
REMARK    2  A    between atoms: C_5  and  N_6
REMARK    3  A    between atoms: N_6  and  C_7
REMARK    4  A    between atoms: C_7  and  C_8
REMARK    5  A    between atoms: C_8  and  N_9
REMARK                            x       y       z     vdW  Elec       q    Type
REMARK                         _______ _______ _______ _____ _____    ______ ____
ROOT
ATOM      1  C   UNL     1       5.038   6.269  16.706  0.00  0.00    +0.000 C 
ENDROOT
BRANCH   1   2
ATOM      2  N   UNL     1       6.479   6.198  16.426  0.00  0.00    +0.000 NA
ATOM      3  H   UNL     1       6.709   6.805  15.639  0.00  0.00    +0.000 HD
BRANCH   2   4
ATOM      4  C   UNL     1       6.903   4.835  16.106  0.00  0.00    +0.000 C 
BRANCH   4   8
ATOM      5  C   UNL     1       6.897   4.143  11.840  0.00  0.00    +0.000 A 
ATOM      6  C   UNL     1       6.065   3.401  12.673  0.00  0.00    +0.000 A 
ATOM      7  C   UNL     1       6.066   3.635  14.048  0.00  0.00    +0.000 A 
ATOM      8  C   UNL     1       6.907   4.608  14.611  0.00  0.00    +0.000 A 
ATOM      9  C   UNL     1       7.733   5.358  13.761  0.00  0.00    +0.000 A 
ATOM     10  C   UNL     1       7.727   5.125  12.383  0.00  0.00    +0.000 A 
ENDBRANCH   4   8
ENDBRANCH   2   4
ENDBRANCH   1   2
BRANCH   1  11
ATOM     11  C   UNL     1       4.782   5.908  18.188  0.00  0.00    +0.000 C 
BRANCH  11  12
ATOM     12  N   UNL     1       3.401   5.507  18.546  0.00  0.00    +0.000 NA
ATOM     13  C   UNL     1       2.941   6.198  19.773  0.00  0.00    +0.000 C 
ATOM     14  C   UNL     1       1.568   5.715  20.272  0.00  0.00    +0.000 C 
ATOM     15  C   UNL     1       1.549   4.200  20.472  0.00  0.00    +0.000 C 
ATOM     16  C   UNL     1       1.960   3.568  19.154  0.00  0.00    +0.000 C 
ATOM     17  C   UNL     1       2.116   2.054  19.150  0.00  0.00    +0.000 C 
ATOM     18  C   UNL     1       3.056   1.780  17.969  0.00  0.00    +0.000 C 
ATOM     19  C   UNL     1       3.663   3.134  17.571  0.00  0.00    +0.000 C 
ATOM     20  C   UNL     1       3.360   4.047  18.762  0.00  0.00    +0.000 C 
ENDBRANCH  11  12
ENDBRANCH   1  11
TORSDOF 5
ENDMDL
MODEL 8
REMARK VINA RESULT:      -6.7      1.169      2.531
REMARK  Name = 
REMARK  5 active torsions:
REMARK  status: ('A' for Active; 'I' for Inactive)
REMARK    1  A    between atoms: C_4  and  C_5
REMARK    2  A    between atoms: C_5  and  N_6
REMARK    3  A    between atoms: N_6  and  C_7
REMARK    4  A    between atoms: C_7  and  C_8
REMARK    5  A    between atoms: C_8  and  N_9
REMARK                            x       y       z     vdW  Elec       q    Type
REMARK                         _______ _______ _______ _____ _____    ______ ____
ROOT
ATOM      1  C   UNL     1       7.016   4.847  17.994  0.00  0.00    +0.000 C 
ENDROOT
BRANCH   1   2
ATOM      2  N   UNL     1       7.645   4.662  16.678  0.00  0.00    +0.000 NA
ATOM      3  H   UNL     1       8.651   4.811  16.751  0.00  0.00    +0.000 HD
BRANCH   2   4
ATOM      4  C   UNL     1       7.105   5.589  15.685  0.00  0.00    +0.000 C 
BRANCH   4   8
ATOM      5  C   UNL     1       6.171   3.556  11.987  0.00  0.00    +0.000 A 
ATOM      6  C   UNL     1       7.326   4.326  12.092  0.00  0.00    +0.000 A 
ATOM      7  C   UNL     1       7.625   4.974  13.292  0.00  0.00    +0.000 A 
ATOM      8  C   UNL     1       6.769   4.867  14.399  0.00  0.00    +0.000 A 
ATOM      9  C   UNL     1       5.615   4.079  14.285  0.00  0.00    +0.000 A 
ATOM     10  C   UNL     1       5.318   3.428  13.084  0.00  0.00    +0.000 A 
ENDBRANCH   4   8
ENDBRANCH   2   4
ENDBRANCH   1   2
BRANCH   1  11
ATOM     11  C   UNL     1       5.762   3.949  18.097  0.00  0.00    +0.000 C 
BRANCH  11  12
ATOM     12  N   UNL     1       4.457   4.593  17.815  0.00  0.00    +0.000 NA
ATOM     13  C   UNL     1       4.458   6.015  18.232  0.00  0.00    +0.000 C 
ATOM     14  C   UNL     1       3.086   6.697  18.094  0.00  0.00    +0.000 C 
ATOM     15  C   UNL     1       2.001   5.921  18.841  0.00  0.00    +0.000 C 
ATOM     16  C   UNL     1       2.016   4.500  18.306  0.00  0.00    +0.000 C 
ATOM     17  C   UNL     1       1.081   3.511  18.988  0.00  0.00    +0.000 C 
ATOM     18  C   UNL     1       1.706   2.142  18.688  0.00  0.00    +0.000 C 
ATOM     19  C   UNL     1       3.122   2.414  18.160  0.00  0.00    +0.000 C 
ATOM     20  C   UNL     1       3.393   3.871  18.540  0.00  0.00    +0.000 C 
ENDBRANCH  11  12
ENDBRANCH   1  11
TORSDOF 5
ENDMDL
MODEL 9
REMARK VINA RESULT:      -6.5      1.828      3.541
REMARK  Name = 
REMARK  5 active torsions:
REMARK  status: ('A' for Active; 'I' for Inactive)
REMARK    1  A    between atoms: C_4  and  C_5
REMARK    2  A    between atoms: C_5  and  N_6
REMARK    3  A    between atoms: N_6  and  C_7
REMARK    4  A    between atoms: C_7  and  C_8
REMARK    5  A    between atoms: C_8  and  N_9
REMARK                            x       y       z     vdW  Elec       q    Type
REMARK                         _______ _______ _______ _____ _____    ______ ____
ROOT
ATOM      1  C   UNL     1       4.891   3.655  16.725  0.00  0.00    +0.000 C 
ENDROOT
BRANCH   1   2
ATOM      2  N   UNL     1       5.216   4.266  15.427  0.00  0.00    +0.000 NA
ATOM      3  H   UNL     1       4.963   3.630  14.673  0.00  0.00    +0.000 HD
BRANCH   2   4
ATOM      4  C   UNL     1       6.640   4.580  15.318  0.00  0.00    +0.000 C 
BRANCH   4   8
ATOM      5  C   UNL     1       7.991   6.765  18.794  0.00  0.00    +0.000 A 
ATOM      6  C   UNL     1       8.006   5.373  18.791  0.00  0.00    +0.000 A 
ATOM      7  C   UNL     1       7.576   4.674  17.662  0.00  0.00    +0.000 A 
ATOM      8  C   UNL     1       7.116   5.358  16.525  0.00  0.00    +0.000 A 
ATOM      9  C   UNL     1       7.117   6.760  16.536  0.00  0.00    +0.000 A 
ATOM     10  C   UNL     1       7.553   7.459  17.666  0.00  0.00    +0.000 A 
ENDBRANCH   4   8
ENDBRANCH   2   4
ENDBRANCH   1   2
BRANCH   1  11
ATOM     11  C   UNL     1       3.400   3.901  17.051  0.00  0.00    +0.000 C 
BRANCH  11  12
ATOM     12  N   UNL     1       3.003   3.788  18.475  0.00  0.00    +0.000 NA
ATOM     13  C   UNL     1       2.096   2.637  18.690  0.00  0.00    +0.000 C 
ATOM     14  C   UNL     1       1.539   2.553  20.122  0.00  0.00    +0.000 C 
ATOM     15  C   UNL     1       0.855   3.857  20.531  0.00  0.00    +0.000 C 
ATOM     16  C   UNL     1       1.870   4.972  20.351  0.00  0.00    +0.000 C 
ATOM     17  C   UNL     1       1.369   6.388  20.598  0.00  0.00    +0.000 C 
ATOM     18  C   UNL     1       2.344   7.271  19.808  0.00  0.00    +0.000 C 
ATOM     19  C   UNL     1       3.131   6.331  18.882  0.00  0.00    +0.000 C 
ATOM     20  C   UNL     1       2.323   5.031  18.889  0.00  0.00    +0.000 C 
ENDBRANCH  11  12
ENDBRANCH   1  11
TORSDOF 5
ENDMDL
