MODEL 1
REMARK VINA RESULT:      -7.5      0.000      0.000
REMARK  Name = 
REMARK  11 active torsions:
REMARK  status: ('A' for Active; 'I' for Inactive)
REMARK    1  A    between atoms: C_1  and  C_2
REMARK    2  A    between atoms: C_2  and  O_3
REMARK    3  A    between atoms: O_3  and  C_4
REMARK    4  A    between atoms: C_6  and  C_7
REMARK    5  A    between atoms: C_8  and  C_9
REMARK    6  A    between atoms: C_9  and  O_11
REMARK    7  A    between atoms: C_14  and  O_15
REMARK    8  A    between atoms: O_15  and  C_16
REMARK    9  A    between atoms: C_16  and  C_17
REMARK   10  A    between atoms: C_17  and  O_18
REMARK   11  A    between atoms: O_18  and  C_19
REMARK                            x       y       z     vdW  Elec       q    Type
REMARK                         _______ _______ _______ _____ _____    ______ ____
ROOT
ATOM      1  C   UNL     1       6.017   5.113  15.942  0.00  0.00    +0.000 A 
ATOM      2  C   UNL     1       4.823   4.416  16.228  0.00  0.00    +0.000 A 
ATOM      3  C   UNL     1       4.208   4.453  17.485  0.00  0.00    +0.000 A 
ATOM      4  C   UNL     1       4.813   5.214  18.486  0.00  0.00    +0.000 A 
ATOM      5  C   UNL     1       5.982   5.931  18.210  0.00  0.00    +0.000 A 
ATOM      6  C   UNL     1       6.565   5.931  16.936  0.00  0.00    +0.000 A 
ENDROOT
BRANCH   3   7
ATOM      7  C   UNL     1       2.922   3.799  17.773  0.00  0.00    +0.000 C 
ATOM      8  C   UNL     1       2.345   3.733  18.983  0.00  0.00    +0.000 C 
BRANCH   8   9
ATOM      9  C   UNL     1       1.060   3.016  19.129  0.00  0.00    +0.000 C 
ATOM     10  O   UNL     1       0.660   2.148  18.372  0.00  0.00    +0.000 OA
BRANCH   9  11
ATOM     11  O   UNL     1       0.370   3.427  20.210  0.00  0.00    +0.000 OA
ATOM     12  H   UNL     1       0.746   4.190  20.686  0.00  0.00    +0.000 HD
ENDBRANCH   9  11
ENDBRANCH   8   9
ENDBRANCH   3   7
BRANCH   1  13
ATOM     13  O   UNL     1       6.410   4.905  14.653  0.00  0.00    +0.000 OA
BRANCH  13  15
ATOM     14  C   UNL     1       6.513   3.794  12.521  0.00  0.00    +0.000 C 
ATOM     15  C   UNL     1       5.863   3.835  13.895  0.00  0.00    +0.000 C 
ENDBRANCH  13  15
ENDBRANCH   1  13
BRANCH   6  16
ATOM     16  O   UNL     1       7.637   6.765  16.869  0.00  0.00    +0.000 OA
BRANCH  16  17
ATOM     17  C   UNL     1       7.530   8.115  17.312  0.00  0.00    +0.000 C 
BRANCH  17  18
ATOM     18  C   UNL     1       8.483   8.629  18.392  0.00  0.00    +0.000 C 
BRANCH  18  19
ATOM     19  O   UNL     1       8.415  10.055  18.318  0.00  0.00    +0.000 OA
BRANCH  19  20
ATOM     20  C   UNL     1       9.495  10.765  18.744  0.00  0.00    +0.000 A 
ATOM     21  C   UNL     1       9.511  11.015  20.118  0.00  0.00    +0.000 A 
ATOM     22  C   UNL     1      10.554  11.737  20.695  0.00  0.00    +0.000 A 
ATOM     23  C   UNL     1      11.598  12.198  19.898  0.00  0.00    +0.000 A 
ATOM     24  C   UNL     1      11.601  11.928  18.531  0.00  0.00    +0.000 A 
ATOM     25  C   UNL     1      10.551  11.211  17.950  0.00  0.00    +0.000 A 
ENDBRANCH  19  20
ENDBRANCH  18  19
ENDBRANCH  17  18
ENDBRANCH  16  17
ENDBRANCH   6  16
TORSDOF 10
ENDMDL
MODEL 2
REMARK VINA RESULT:      -7.3      4.567      8.400
REMARK  Name = 
REMARK  11 active torsions:
REMARK  status: ('A' for Active; 'I' for Inactive)
REMARK    1  A    between atoms: C_1  and  C_2
REMARK    2  A    between atoms: C_2  and  O_3
REMARK    3  A    between atoms: O_3  and  C_4
REMARK    4  A    between atoms: C_6  and  C_7
REMARK    5  A    between atoms: C_8  and  C_9
REMARK    6  A    between atoms: C_9  and  O_11
REMARK    7  A    between atoms: C_14  and  O_15
REMARK    8  A    between atoms: O_15  and  C_16
REMARK    9  A    between atoms: C_16  and  C_17
REMARK   10  A    between atoms: C_17  and  O_18
REMARK   11  A    between atoms: O_18  and  C_19
REMARK                            x       y       z     vdW  Elec       q    Type
REMARK                         _______ _______ _______ _____ _____    ______ ____
ROOT
ATOM      1  C   UNL     1       3.103   6.625  18.612  0.00  0.00    +0.000 A 
ATOM      2  C   UNL     1       3.904   6.594  17.449  0.00  0.00    +0.000 A 
ATOM      3  C   UNL     1       5.053   5.802  17.343  0.00  0.00    +0.000 A 
ATOM      4  C   UNL     1       5.408   5.017  18.441  0.00  0.00    +0.000 A 
ATOM      5  C   UNL     1       4.611   5.018  19.590  0.00  0.00    +0.000 A 
ATOM      6  C   UNL     1       3.434   5.773  19.671  0.00  0.00    +0.000 A 
ENDROOT
BRANCH   3   7
ATOM      7  C   UNL     1       5.850   5.698  16.110  0.00  0.00    +0.000 C 
ATOM      8  C   UNL     1       5.867   4.634  15.292  0.00  0.00    +0.000 C 
BRANCH   8   9
ATOM      9  C   UNL     1       6.741   4.658  14.100  0.00  0.00    +0.000 C 
ATOM     10  O   UNL     1       6.584   3.963  13.110  0.00  0.00    +0.000 OA
BRANCH   9  11
ATOM     11  O   UNL     1       7.744   5.549  14.225  0.00  0.00    +0.000 OA
ATOM     12  H   UNL     1       8.638   5.170  14.300  0.00  0.00    +0.000 HD
ENDBRANCH   9  11
ENDBRANCH   8   9
ENDBRANCH   3   7
BRANCH   1  13
ATOM     13  O   UNL     1       2.052   7.480  18.461  0.00  0.00    +0.000 OA
BRANCH  13  15
ATOM     14  C   UNL     1       1.090   9.647  18.051  0.00  0.00    +0.000 C 
ATOM     15  C   UNL     1       2.187   8.662  17.684  0.00  0.00    +0.000 C 
ENDBRANCH  13  15
ENDBRANCH   1  13
BRANCH   6  16
ATOM     16  O   UNL     1       2.770   5.553  20.837  0.00  0.00    +0.000 OA
BRANCH  16  17
ATOM     17  C   UNL     1       1.476   4.954  20.831  0.00  0.00    +0.000 C 
BRANCH  17  18
ATOM     18  C   UNL     1       1.314   3.511  21.308  0.00  0.00    +0.000 C 
BRANCH  18  19
ATOM     19  O   UNL     1       0.887   2.772  20.161  0.00  0.00    +0.000 OA
BRANCH  19  20
ATOM     20  C   UNL     1       1.791   2.569  19.164  0.00  0.00    +0.000 A 
ATOM     21  C   UNL     1       1.556   3.328  18.015  0.00  0.00    +0.000 A 
ATOM     22  C   UNL     1       2.396   3.220  16.909  0.00  0.00    +0.000 A 
ATOM     23  C   UNL     1       3.491   2.361  16.956  0.00  0.00    +0.000 A 
ATOM     24  C   UNL     1       3.747   1.622  18.110  0.00  0.00    +0.000 A 
ATOM     25  C   UNL     1       2.899   1.725  19.216  0.00  0.00    +0.000 A 
ENDBRANCH  19  20
ENDBRANCH  18  19
ENDBRANCH  17  18
ENDBRANCH  16  17
ENDBRANCH   6  16
TORSDOF 10
ENDMDL
MODEL 3
REMARK VINA RESULT:      -7.1      1.025      1.373
REMARK  Name = 
REMARK  11 active torsions:
REMARK  status: ('A' for Active; 'I' for Inactive)
REMARK    1  A    between atoms: C_1  and  C_2
REMARK    2  A    between atoms: C_2  and  O_3
REMARK    3  A    between atoms: O_3  and  C_4
REMARK    4  A    between atoms: C_6  and  C_7
REMARK    5  A    between atoms: C_8  and  C_9
REMARK    6  A    between atoms: C_9  and  O_11
REMARK    7  A    between atoms: C_14  and  O_15
REMARK    8  A    between atoms: O_15  and  C_16
REMARK    9  A    between atoms: C_16  and  C_17
REMARK   10  A    between atoms: C_17  and  O_18
REMARK   11  A    between atoms: O_18  and  C_19
REMARK                            x       y       z     vdW  Elec       q    Type
REMARK                         _______ _______ _______ _____ _____    ______ ____
ROOT
ATOM      1  C   UNL     1       6.490   4.823  16.162  0.00  0.00    +0.000 A 
ATOM      2  C   UNL     1       5.484   3.914  16.557  0.00  0.00    +0.000 A 
ATOM      3  C   UNL     1       4.844   3.988  17.800  0.00  0.00    +0.000 A 
ATOM      4  C   UNL     1       5.227   5.008  18.672  0.00  0.00    +0.000 A 
ATOM      5  C   UNL     1       6.203   5.931  18.284  0.00  0.00    +0.000 A 
ATOM      6  C   UNL     1       6.804   5.883  17.019  0.00  0.00    +0.000 A 
ENDROOT
BRANCH   3   7
ATOM      7  C   UNL     1       3.739   3.099  18.192  0.00  0.00    +0.000 C 
ATOM      8  C   UNL     1       2.436   3.359  18.002  0.00  0.00    +0.000 C 
BRANCH   8   9
ATOM      9  C   UNL     1       1.431   2.383  18.475  0.00  0.00    +0.000 C 
ATOM     10  O   UNL     1       0.229   2.582  18.499  0.00  0.00    +0.000 OA
BRANCH   9  11
ATOM     11  O   UNL     1       1.997   1.230  18.880  0.00  0.00    +0.000 OA
ATOM     12  H   UNL     1       2.220   1.178  19.826  0.00  0.00    +0.000 HD
ENDBRANCH   9  11
ENDBRANCH   8   9
ENDBRANCH   3   7
BRANCH   1  13
ATOM     13  O   UNL     1       6.955   4.527  14.915  0.00  0.00    +0.000 OA
BRANCH  13  15
ATOM     14  C   UNL     1       6.630   3.648  12.699  0.00  0.00    +0.000 C 
ATOM     15  C   UNL     1       6.083   4.549  13.794  0.00  0.00    +0.000 C 
ENDBRANCH  13  15
ENDBRANCH   1  13
BRANCH   6  16
ATOM     16  O   UNL     1       7.652   6.928  16.821  0.00  0.00    +0.000 OA
BRANCH  16  17
ATOM     17  C   UNL     1       8.085   7.725  17.919  0.00  0.00    +0.000 C 
BRANCH  17  18
ATOM     18  C   UNL     1       8.099   9.248  17.782  0.00  0.00    +0.000 C 
BRANCH  18  19
ATOM     19  O   UNL     1       8.921   9.723  18.851  0.00  0.00    +0.000 OA
BRANCH  19  20
ATOM     20  C   UNL     1       9.541  10.924  18.690  0.00  0.00    +0.000 A 
ATOM     21  C   UNL     1       8.812  11.848  17.939  0.00  0.00    +0.000 A 
ATOM     22  C   UNL     1       9.325  13.119  17.687  0.00  0.00    +0.000 A 
ATOM     23  C   UNL     1      10.567  13.477  18.203  0.00  0.00    +0.000 A 
ATOM     24  C   UNL     1      11.286  12.568  18.977  0.00  0.00    +0.000 A 
ATOM     25  C   UNL     1      10.776  11.290  19.224  0.00  0.00    +0.000 A 
ENDBRANCH  19  20
ENDBRANCH  18  19
ENDBRANCH  17  18
ENDBRANCH  16  17
ENDBRANCH   6  16
TORSDOF 10
ENDMDL
MODEL 4
REMARK VINA RESULT:      -7.1      0.821      1.385
REMARK  Name = 
REMARK  11 active torsions:
REMARK  status: ('A' for Active; 'I' for Inactive)
REMARK    1  A    between atoms: C_1  and  C_2
REMARK    2  A    between atoms: C_2  and  O_3
REMARK    3  A    between atoms: O_3  and  C_4
REMARK    4  A    between atoms: C_6  and  C_7
REMARK    5  A    between atoms: C_8  and  C_9
REMARK    6  A    between atoms: C_9  and  O_11
REMARK    7  A    between atoms: C_14  and  O_15
REMARK    8  A    between atoms: O_15  and  C_16
REMARK    9  A    between atoms: C_16  and  C_17
REMARK   10  A    between atoms: C_17  and  O_18
REMARK   11  A    between atoms: O_18  and  C_19
REMARK                            x       y       z     vdW  Elec       q    Type
REMARK                         _______ _______ _______ _____ _____    ______ ____
ROOT
ATOM      1  C   UNL     1       6.552   5.018  16.440  0.00  0.00    +0.000 A 
ATOM      2  C   UNL     1       5.525   4.126  16.818  0.00  0.00    +0.000 A 
ATOM      3  C   UNL     1       4.635   4.396  17.865  0.00  0.00    +0.000 A 
ATOM      4  C   UNL     1       4.784   5.600  18.553  0.00  0.00    +0.000 A 
ATOM      5  C   UNL     1       5.780   6.505  18.174  0.00  0.00    +0.000 A 
ATOM      6  C   UNL     1       6.635   6.253  17.093  0.00  0.00    +0.000 A 
ENDROOT
BRANCH   3   7
ATOM      7  C   UNL     1       3.511   3.514  18.215  0.00  0.00    +0.000 C 
ATOM      8  C   UNL     1       2.503   3.841  19.039  0.00  0.00    +0.000 C 
BRANCH   8   9
ATOM      9  C   UNL     1       1.453   2.839  19.323  0.00  0.00    +0.000 C 
ATOM     10  O   UNL     1       1.225   2.366  20.424  0.00  0.00    +0.000 OA
BRANCH   9  11
ATOM     11  O   UNL     1       0.761   2.503  18.218  0.00  0.00    +0.000 OA
ATOM     12  H   UNL     1       1.015   2.970  17.402  0.00  0.00    +0.000 HD
ENDBRANCH   9  11
ENDBRANCH   8   9
ENDBRANCH   3   7
BRANCH   1  13
ATOM     13  O   UNL     1       7.281   4.516  15.403  0.00  0.00    +0.000 OA
BRANCH  13  15
ATOM     14  C   UNL     1       6.221   3.787  13.370  0.00  0.00    +0.000 C 
ATOM     15  C   UNL     1       6.991   4.897  14.066  0.00  0.00    +0.000 C 
ENDBRANCH  13  15
ENDBRANCH   1  13
BRANCH   6  16
ATOM     16  O   UNL     1       7.462   7.304  16.844  0.00  0.00    +0.000 OA
BRANCH  16  17
ATOM     17  C   UNL     1       8.168   7.935  17.909  0.00  0.00    +0.000 C 
BRANCH  17  18
ATOM     18  C   UNL     1       8.250   9.461  17.955  0.00  0.00    +0.000 C 
BRANCH  18  19
ATOM     19  O   UNL     1       8.909   9.774  19.184  0.00  0.00    +0.000 OA
BRANCH  19  20
ATOM     20  C   UNL     1       9.781  10.820  19.189  0.00  0.00    +0.000 A 
ATOM     21  C   UNL     1      10.160  11.255  17.916  0.00  0.00    +0.000 A 
ATOM     22  C   UNL     1      11.053  12.314  17.767  0.00  0.00    +0.000 A 
ATOM     23  C   UNL     1      11.557  12.956  18.894  0.00  0.00    +0.000 A 
ATOM     24  C   UNL     1      11.161  12.544  20.165  0.00  0.00    +0.000 A 
ATOM     25  C   UNL     1      10.272  11.476  20.316  0.00  0.00    +0.000 A 
ENDBRANCH  19  20
ENDBRANCH  18  19
ENDBRANCH  17  18
ENDBRANCH  16  17
ENDBRANCH   6  16
TORSDOF 10
ENDMDL
MODEL 5
REMARK VINA RESULT:      -7.0      4.486      7.639
REMARK  Name = 
REMARK  11 active torsions:
REMARK  status: ('A' for Active; 'I' for Inactive)
REMARK    1  A    between atoms: C_1  and  C_2
REMARK    2  A    between atoms: C_2  and  O_3
REMARK    3  A    between atoms: O_3  and  C_4
REMARK    4  A    between atoms: C_6  and  C_7
REMARK    5  A    between atoms: C_8  and  C_9
REMARK    6  A    between atoms: C_9  and  O_11
REMARK    7  A    between atoms: C_14  and  O_15
REMARK    8  A    between atoms: O_15  and  C_16
REMARK    9  A    between atoms: C_16  and  C_17
REMARK   10  A    between atoms: C_17  and  O_18
REMARK   11  A    between atoms: O_18  and  C_19
REMARK                            x       y       z     vdW  Elec       q    Type
REMARK                         _______ _______ _______ _____ _____    ______ ____
ROOT
ATOM      1  C   UNL     1       3.886   4.593  17.737  0.00  0.00    +0.000 A 
ATOM      2  C   UNL     1       4.484   4.250  16.505  0.00  0.00    +0.000 A 
ATOM      3  C   UNL     1       5.235   5.159  15.749  0.00  0.00    +0.000 A 
ATOM      4  C   UNL     1       5.389   6.452  16.248  0.00  0.00    +0.000 A 
ATOM      5  C   UNL     1       4.824   6.799  17.480  0.00  0.00    +0.000 A 
ATOM      6  C   UNL     1       4.117   5.871  18.256  0.00  0.00    +0.000 A 
ENDROOT
BRANCH   3   7
ATOM      7  C   UNL     1       5.930   4.792  14.505  0.00  0.00    +0.000 C 
ATOM      8  C   UNL     1       5.566   3.794  13.684  0.00  0.00    +0.000 C 
BRANCH   8   9
ATOM      9  C   UNL     1       6.379   3.520  12.480  0.00  0.00    +0.000 C 
ATOM     10  O   UNL     1       7.177   4.301  11.989  0.00  0.00    +0.000 OA
BRANCH   9  11
ATOM     11  O   UNL     1       6.144   2.293  11.979  0.00  0.00    +0.000 OA
ATOM     12  H   UNL     1       6.698   1.577  12.338  0.00  0.00    +0.000 HD
ENDBRANCH   9  11
ENDBRANCH   8   9
ENDBRANCH   3   7
BRANCH   1  13
ATOM     13  O   UNL     1       3.207   3.535  18.263  0.00  0.00    +0.000 OA
BRANCH  13  15
ATOM     14  C   UNL     1       1.175   2.484  19.009  0.00  0.00    +0.000 C 
ATOM     15  C   UNL     1       1.847   3.307  17.923  0.00  0.00    +0.000 C 
ENDBRANCH  13  15
ENDBRANCH   1  13
BRANCH   6  16
ATOM     16  O   UNL     1       3.739   6.395  19.453  0.00  0.00    +0.000 OA
BRANCH  16  17
ATOM     17  C   UNL     1       2.358   6.565  19.763  0.00  0.00    +0.000 C 
BRANCH  17  18
ATOM     18  C   UNL     1       1.800   7.975  19.957  0.00  0.00    +0.000 C 
BRANCH  18  19
ATOM     19  O   UNL     1       1.450   8.063  21.340  0.00  0.00    +0.000 OA
BRANCH  19  20
ATOM     20  C   UNL     1       0.716   9.136  21.743  0.00  0.00    +0.000 A 
ATOM     21  C   UNL     1       0.817  10.247  20.902  0.00  0.00    +0.000 A 
ATOM     22  C   UNL     1       0.125  11.421  21.192  0.00  0.00    +0.000 A 
ATOM     23  C   UNL     1      -0.689  11.482  22.320  0.00  0.00    +0.000 A 
ATOM     24  C   UNL     1      -0.815  10.367  23.147  0.00  0.00    +0.000 A 
ATOM     25  C   UNL     1      -0.115   9.192  22.861  0.00  0.00    +0.000 A 
ENDBRANCH  19  20
ENDBRANCH  18  19
ENDBRANCH  17  18
ENDBRANCH  16  17
ENDBRANCH   6  16
TORSDOF 10
ENDMDL
MODEL 6
REMARK VINA RESULT:      -7.0      1.088      1.323
REMARK  Name = 
REMARK  11 active torsions:
REMARK  status: ('A' for Active; 'I' for Inactive)
REMARK    1  A    between atoms: C_1  and  C_2
REMARK    2  A    between atoms: C_2  and  O_3
REMARK    3  A    between atoms: O_3  and  C_4
REMARK    4  A    between atoms: C_6  and  C_7
REMARK    5  A    between atoms: C_8  and  C_9
REMARK    6  A    between atoms: C_9  and  O_11
REMARK    7  A    between atoms: C_14  and  O_15
REMARK    8  A    between atoms: O_15  and  C_16
REMARK    9  A    between atoms: C_16  and  C_17
REMARK   10  A    between atoms: C_17  and  O_18
REMARK   11  A    between atoms: O_18  and  C_19
REMARK                            x       y       z     vdW  Elec       q    Type
REMARK                         _______ _______ _______ _____ _____    ______ ____
ROOT
ATOM      1  C   UNL     1       6.121   5.452  16.138  0.00  0.00    +0.000 A 
ATOM      2  C   UNL     1       5.077   4.585  16.524  0.00  0.00    +0.000 A 
ATOM      3  C   UNL     1       4.781   4.306  17.864  0.00  0.00    +0.000 A 
ATOM      4  C   UNL     1       5.560   4.920  18.846  0.00  0.00    +0.000 A 
ATOM      5  C   UNL     1       6.582   5.802  18.478  0.00  0.00    +0.000 A 
ATOM      6  C   UNL     1       6.840   6.116  17.138  0.00  0.00    +0.000 A 
ENDROOT
BRANCH   3   7
ATOM      7  C   UNL     1       3.645   3.469  18.282  0.00  0.00    +0.000 C 
ATOM      8  C   UNL     1       3.259   3.273  19.553  0.00  0.00    +0.000 C 
BRANCH   8   9
ATOM      9  C   UNL     1       2.114   2.380  19.827  0.00  0.00    +0.000 C 
ATOM     10  O   UNL     1       1.420   2.428  20.828  0.00  0.00    +0.000 OA
BRANCH   9  11
ATOM     11  O   UNL     1       1.913   1.494  18.832  0.00  0.00    +0.000 OA
ATOM     12  H   UNL     1       2.598   1.475  18.139  0.00  0.00    +0.000 HD
ENDBRANCH   9  11
ENDBRANCH   8   9
ENDBRANCH   3   7
BRANCH   1  13
ATOM     13  O   UNL     1       6.205   5.545  14.780  0.00  0.00    +0.000 OA
BRANCH  13  15
ATOM     14  C   UNL     1       6.053   3.786  13.146  0.00  0.00    +0.000 C 
ATOM     15  C   UNL     1       6.970   4.608  14.037  0.00  0.00    +0.000 C 
ENDBRANCH  13  15
ENDBRANCH   1  13
BRANCH   6  16
ATOM     16  O   UNL     1       7.810   7.062  17.017  0.00  0.00    +0.000 OA
BRANCH  16  17
ATOM     17  C   UNL     1       7.588   8.389  17.485  0.00  0.00    +0.000 C 
BRANCH  17  18
ATOM     18  C   UNL     1       8.584   9.018  18.459  0.00  0.00    +0.000 C 
BRANCH  18  19
ATOM     19  O   UNL     1       8.990  10.248  17.854  0.00  0.00    +0.000 OA
BRANCH  19  20
ATOM     20  C   UNL     1       9.305  11.287  18.675  0.00  0.00    +0.000 A 
ATOM     21  C   UNL     1       9.941  10.908  19.859  0.00  0.00    +0.000 A 
ATOM     22  C   UNL     1      10.316  11.865  20.800  0.00  0.00    +0.000 A 
ATOM     23  C   UNL     1      10.072  13.213  20.548  0.00  0.00    +0.000 A 
ATOM     24  C   UNL     1       9.463  13.599  19.355  0.00  0.00    +0.000 A 
ATOM     25  C   UNL     1       9.079  12.638  18.416  0.00  0.00    +0.000 A 
ENDBRANCH  19  20
ENDBRANCH  18  19
ENDBRANCH  17  18
ENDBRANCH  16  17
ENDBRANCH   6  16
TORSDOF 10
ENDMDL
MODEL 7
REMARK VINA RESULT:      -7.0      4.142      7.508
REMARK  Name = 
REMARK  11 active torsions:
REMARK  status: ('A' for Active; 'I' for Inactive)
REMARK    1  A    between atoms: C_1  and  C_2
REMARK    2  A    between atoms: C_2  and  O_3
REMARK    3  A    between atoms: O_3  and  C_4
REMARK    4  A    between atoms: C_6  and  C_7
REMARK    5  A    between atoms: C_8  and  C_9
REMARK    6  A    between atoms: C_9  and  O_11
REMARK    7  A    between atoms: C_14  and  O_15
REMARK    8  A    between atoms: O_15  and  C_16
REMARK    9  A    between atoms: C_16  and  C_17
REMARK   10  A    between atoms: C_17  and  O_18
REMARK   11  A    between atoms: O_18  and  C_19
REMARK                            x       y       z     vdW  Elec       q    Type
REMARK                         _______ _______ _______ _____ _____    ______ ____
ROOT
ATOM      1  C   UNL     1       5.745   6.326  16.579  0.00  0.00    +0.000 A 
ATOM      2  C   UNL     1       5.180   5.732  15.429  0.00  0.00    +0.000 A 
ATOM      3  C   UNL     1       5.775   4.653  14.764  0.00  0.00    +0.000 A 
ATOM      4  C   UNL     1       6.976   4.156  15.271  0.00  0.00    +0.000 A 
ATOM      5  C   UNL     1       7.535   4.718  16.424  0.00  0.00    +0.000 A 
ATOM      6  C   UNL     1       6.908   5.764  17.115  0.00  0.00    +0.000 A 
ENDROOT
BRANCH   3   7
ATOM      7  C   UNL     1       5.156   3.973  13.616  0.00  0.00    +0.000 C 
ATOM      8  C   UNL     1       5.828   3.343  12.639  0.00  0.00    +0.000 C 
BRANCH   8   9
ATOM      9  C   UNL     1       5.072   2.728  11.528  0.00  0.00    +0.000 C 
ATOM     10  O   UNL     1       4.098   3.226  10.991  0.00  0.00    +0.000 OA
BRANCH   9  11
ATOM     11  O   UNL     1       5.589   1.539  11.162  0.00  0.00    +0.000 OA
ATOM     12  H   UNL     1       6.502   1.561  10.824  0.00  0.00    +0.000 HD
ENDBRANCH   9  11
ENDBRANCH   8   9
ENDBRANCH   3   7
BRANCH   1  13
ATOM     13  O   UNL     1       4.976   7.360  17.025  0.00  0.00    +0.000 OA
BRANCH  13  15
ATOM     14  C   UNL     1       2.996   7.215  18.383  0.00  0.00    +0.000 C 
ATOM     15  C   UNL     1       3.559   7.281  16.973  0.00  0.00    +0.000 C 
ENDBRANCH  13  15
ENDBRANCH   1  13
BRANCH   6  16
ATOM     16  O   UNL     1       7.576   6.090  18.254  0.00  0.00    +0.000 OA
BRANCH  16  17
ATOM     17  C   UNL     1       7.169   5.552  19.509  0.00  0.00    +0.000 C 
BRANCH  17  18
ATOM     18  C   UNL     1       5.701   5.186  19.728  0.00  0.00    +0.000 C 
BRANCH  18  19
ATOM     19  O   UNL     1       5.587   3.811  19.354  0.00  0.00    +0.000 OA
BRANCH  19  20
ATOM     20  C   UNL     1       4.366   3.360  18.957  0.00  0.00    +0.000 A 
ATOM     21  C   UNL     1       3.550   2.920  20.002  0.00  0.00    +0.000 A 
ATOM     22  C   UNL     1       2.274   2.424  19.744  0.00  0.00    +0.000 A 
ATOM     23  C   UNL     1       1.800   2.385  18.436  0.00  0.00    +0.000 A 
ATOM     24  C   UNL     1       2.599   2.848  17.392  0.00  0.00    +0.000 A 
ATOM     25  C   UNL     1       3.883   3.338  17.649  0.00  0.00    +0.000 A 
ENDBRANCH  19  20
ENDBRANCH  18  19
ENDBRANCH  17  18
ENDBRANCH  16  17
ENDBRANCH   6  16
TORSDOF 10
ENDMDL
MODEL 8
REMARK VINA RESULT:      -7.0      2.241      8.901
REMARK  Name = 
REMARK  11 active torsions:
REMARK  status: ('A' for Active; 'I' for Inactive)
REMARK    1  A    between atoms: C_1  and  C_2
REMARK    2  A    between atoms: C_2  and  O_3
REMARK    3  A    between atoms: O_3  and  C_4
REMARK    4  A    between atoms: C_6  and  C_7
REMARK    5  A    between atoms: C_8  and  C_9
REMARK    6  A    between atoms: C_9  and  O_11
REMARK    7  A    between atoms: C_14  and  O_15
REMARK    8  A    between atoms: O_15  and  C_16
REMARK    9  A    between atoms: C_16  and  C_17
REMARK   10  A    between atoms: C_17  and  O_18
REMARK   11  A    between atoms: O_18  and  C_19
REMARK                            x       y       z     vdW  Elec       q    Type
REMARK                         _______ _______ _______ _____ _____    ______ ____
ROOT
ATOM      1  C   UNL     1       5.670   6.799  17.442  0.00  0.00    +0.000 A 
ATOM      2  C   UNL     1       6.376   8.021  17.392  0.00  0.00    +0.000 A 
ATOM      3  C   UNL     1       7.671   8.168  17.904  0.00  0.00    +0.000 A 
ATOM      4  C   UNL     1       8.274   7.052  18.484  0.00  0.00    +0.000 A 
ATOM      5  C   UNL     1       7.597   5.828  18.518  0.00  0.00    +0.000 A 
ATOM      6  C   UNL     1       6.322   5.674  17.958  0.00  0.00    +0.000 A 
ENDROOT
BRANCH   3   7
ATOM      7  C   UNL     1       8.448   9.412  17.785  0.00  0.00    +0.000 C 
ATOM      8  C   UNL     1       9.077  10.027  18.799  0.00  0.00    +0.000 C 
BRANCH   8   9
ATOM      9  C   UNL     1       9.798  11.291  18.537  0.00  0.00    +0.000 C 
ATOM     10  O   UNL     1       9.636  12.324  19.163  0.00  0.00    +0.000 OA
BRANCH   9  11
ATOM     11  O   UNL     1      10.671  11.174  17.518  0.00  0.00    +0.000 OA
ATOM     12  H   UNL     1      10.277  11.087  16.632  0.00  0.00    +0.000 HD
ENDBRANCH   9  11
ENDBRANCH   8   9
ENDBRANCH   3   7
BRANCH   1  13
ATOM     13  O   UNL     1       4.432   6.925  16.886  0.00  0.00    +0.000 OA
BRANCH  13  15
ATOM     14  C   UNL     1       2.721   8.342  17.807  0.00  0.00    +0.000 C 
ATOM     15  C   UNL     1       3.270   6.929  17.701  0.00  0.00    +0.000 C 
ENDBRANCH  13  15
ENDBRANCH   1  13
BRANCH   6  16
ATOM     16  O   UNL     1       5.895   4.384  18.020  0.00  0.00    +0.000 OA
BRANCH  16  17
ATOM     17  C   UNL     1       5.299   3.765  16.883  0.00  0.00    +0.000 C 
BRANCH  17  18
ATOM     18  C   UNL     1       3.825   3.365  16.932  0.00  0.00    +0.000 C 
BRANCH  18  19
ATOM     19  O   UNL     1       3.743   2.314  17.898  0.00  0.00    +0.000 OA
BRANCH  19  20
ATOM     20  C   UNL     1       3.011   2.541  19.023  0.00  0.00    +0.000 A 
ATOM     21  C   UNL     1       1.653   2.767  18.787  0.00  0.00    +0.000 A 
ATOM     22  C   UNL     1       0.783   3.020  19.845  0.00  0.00    +0.000 A 
ATOM     23  C   UNL     1       1.266   3.029  21.150  0.00  0.00    +0.000 A 
ATOM     24  C   UNL     1       2.615   2.776  21.394  0.00  0.00    +0.000 A 
ATOM     25  C   UNL     1       3.491   2.530  20.332  0.00  0.00    +0.000 A 
ENDBRANCH  19  20
ENDBRANCH  18  19
ENDBRANCH  17  18
ENDBRANCH  16  17
ENDBRANCH   6  16
TORSDOF 10
ENDMDL
MODEL 9
REMARK VINA RESULT:      -7.0      5.571      9.108
REMARK  Name = 
REMARK  11 active torsions:
REMARK  status: ('A' for Active; 'I' for Inactive)
REMARK    1  A    between atoms: C_1  and  C_2
REMARK    2  A    between atoms: C_2  and  O_3
REMARK    3  A    between atoms: O_3  and  C_4
REMARK    4  A    between atoms: C_6  and  C_7
REMARK    5  A    between atoms: C_8  and  C_9
REMARK    6  A    between atoms: C_9  and  O_11
REMARK    7  A    between atoms: C_14  and  O_15
REMARK    8  A    between atoms: O_15  and  C_16
REMARK    9  A    between atoms: C_16  and  C_17
REMARK   10  A    between atoms: C_17  and  O_18
REMARK   11  A    between atoms: O_18  and  C_19
REMARK                            x       y       z     vdW  Elec       q    Type
REMARK                         _______ _______ _______ _____ _____    ______ ____
ROOT
ATOM      1  C   UNL     1       2.342   6.572  19.633  0.00  0.00    +0.000 A 
ATOM      2  C   UNL     1       3.427   5.854  19.085  0.00  0.00    +0.000 A 
ATOM      3  C   UNL     1       4.151   6.307  17.975  0.00  0.00    +0.000 A 
ATOM      4  C   UNL     1       3.771   7.520  17.399  0.00  0.00    +0.000 A 
ATOM      5  C   UNL     1       2.714   8.254  17.947  0.00  0.00    +0.000 A 
ATOM      6  C   UNL     1       2.027   7.821  19.088  0.00  0.00    +0.000 A 
ENDROOT
BRANCH   3   7
ATOM      7  C   UNL     1       5.334   5.611  17.445  0.00  0.00    +0.000 C 
ATOM      8  C   UNL     1       6.029   5.990  16.361  0.00  0.00    +0.000 C 
BRANCH   8   9
ATOM      9  C   UNL     1       7.182   5.174  15.925  0.00  0.00    +0.000 C 
ATOM     10  O   UNL     1       7.807   4.414  16.646  0.00  0.00    +0.000 OA
BRANCH   9  11
ATOM     11  O   UNL     1       7.471   5.359  14.623  0.00  0.00    +0.000 OA
ATOM     12  H   UNL     1       8.417   5.338  14.392  0.00  0.00    +0.000 HD
ENDBRANCH   9  11
ENDBRANCH   8   9
ENDBRANCH   3   7
BRANCH   1  13
ATOM     13  O   UNL     1       1.806   5.912  20.699  0.00  0.00    +0.000 OA
BRANCH  13  15
ATOM     14  C   UNL     1       1.147   3.599  20.756  0.00  0.00    +0.000 C 
ATOM     15  C   UNL     1       2.250   4.606  21.038  0.00  0.00    +0.000 C 
ENDBRANCH  13  15
ENDBRANCH   1  13
BRANCH   6  16
ATOM     16  O   UNL     1       1.104   8.732  19.500  0.00  0.00    +0.000 OA
BRANCH  16  17
ATOM     17  C   UNL     1       1.268  10.114  19.198  0.00  0.00    +0.000 C 
BRANCH  17  18
ATOM     18  C   UNL     1       0.157  10.859  18.459  0.00  0.00    +0.000 C 
BRANCH  18  19
ATOM     19  O   UNL     1      -0.741   9.847  17.995  0.00  0.00    +0.000 OA
BRANCH  19  20
ATOM     20  C   UNL     1      -1.916  10.247  17.437  0.00  0.00    +0.000 A 
ATOM     21  C   UNL     1      -2.714  11.026  18.280  0.00  0.00    +0.000 A 
ATOM     22  C   UNL     1      -3.949  11.502  17.846  0.00  0.00    +0.000 A 
ATOM     23  C   UNL     1      -4.385  11.215  16.555  0.00  0.00    +0.000 A 
ATOM     24  C   UNL     1      -3.581  10.462  15.701  0.00  0.00    +0.000 A 
ATOM     25  C   UNL     1      -2.345   9.977  16.138  0.00  0.00    +0.000 A 
ENDBRANCH  19  20
ENDBRANCH  18  19
ENDBRANCH  17  18
ENDBRANCH  16  17
ENDBRANCH   6  16
TORSDOF 10
ENDMDL
