MODEL 1
REMARK VINA RESULT:      -7.9      0.000      0.000
REMARK  Name = 
REMARK  3 active torsions:
REMARK  status: ('A' for Active; 'I' for Inactive)
REMARK    1  A    between atoms: C_1  and  C_2
REMARK    2  A    between atoms: C_6  and  C_7
REMARK    3  A    between atoms: C_11  and  C_12
REMARK                            x       y       z     vdW  Elec       q    Type
REMARK                         _______ _______ _______ _____ _____    ______ ____
ROOT
ATOM      1  C   UNL     1       1.052  10.158  18.769  0.00  0.00    +0.000 A 
ATOM      2  C   UNL     1       1.937   9.686  17.808  0.00  0.00    +0.000 A 
ATOM      3  C   UNL     1       2.472   8.426  18.177  0.00  0.00    +0.000 A 
ATOM      4  N   UNL     1       3.426   7.708  17.433  0.00  0.00    +0.000 NA
ATOM      5  C   UNL     1       3.722   6.535  17.925  0.00  0.00    +0.000 A 
ATOM      6  N   UNL     1       3.132   5.997  19.054  0.00  0.00    +0.000 N 
ATOM      7  C   UNL     1       2.273   6.680  19.875  0.00  0.00    +0.000 A 
ATOM      8  O   UNL     1       1.870   6.180  20.921  0.00  0.00    +0.000 OA
ATOM      9  C   UNL     1       1.951   7.962  19.348  0.00  0.00    +0.000 A 
ATOM     10  S   UNL     1       0.894   9.051  20.072  0.00  0.00    +0.000 S 
ATOM     11  H   UNL     1       3.365   5.077  19.380  0.00  0.00    +0.000 HD
ENDROOT
BRANCH   5  12
ATOM     12  C   UNL     1       4.763   5.640  17.213  0.00  0.00    +0.000 C 
ATOM     13  C   UNL     1       5.457   4.644  18.163  0.00  0.00    +0.000 C 
ATOM     14  C   UNL     1       6.981   4.750  17.993  0.00  0.00    +0.000 C 
ATOM     15  C   UNL     1       7.318   4.473  16.518  0.00  0.00    +0.000 C 
ATOM     16  C   UNL     1       6.548   5.458  15.617  0.00  0.00    +0.000 C 
ATOM     17  N   UNL     1       5.769   6.434  16.428  0.00  0.00    +0.000 NA
ATOM     18  C   UNL     1       6.754   7.139  17.277  0.00  0.00    +0.000 C 
ATOM     19  C   UNL     1       7.397   6.194  18.305  0.00  0.00    +0.000 C 
ENDBRANCH   5  12
BRANCH   1  25
ATOM     20  C   UNL     1       2.189  13.294  18.514  0.00  0.00    +0.000 C 
ATOM     21  C   UNL     1       0.793  12.792  18.608  0.00  0.00    +0.000 A 
ATOM     22  N   UNL     1      -0.215  13.677  18.591  0.00  0.00    +0.000 NA
ATOM     23  N   UNL     1      -1.318  12.923  18.662  0.00  0.00    +0.000 N 
ATOM     24  C   UNL     1      -1.063  11.585  18.717  0.00  0.00    +0.000 A 
ATOM     25  C   UNL     1       0.308  11.455  18.698  0.00  0.00    +0.000 A 
ATOM     26  H   UNL     1      -2.216  13.391  18.673  0.00  0.00    +0.000 HD
ENDBRANCH   1  25
TORSDOF 2
ENDMDL
MODEL 2
REMARK VINA RESULT:      -7.8      3.080      4.186
REMARK  Name = 
REMARK  3 active torsions:
REMARK  status: ('A' for Active; 'I' for Inactive)
REMARK    1  A    between atoms: C_1  and  C_2
REMARK    2  A    between atoms: C_6  and  C_7
REMARK    3  A    between atoms: C_11  and  C_12
REMARK                            x       y       z     vdW  Elec       q    Type
REMARK                         _______ _______ _______ _____ _____    ______ ____
ROOT
ATOM      1  C   UNL     1       0.372  10.119  21.148  0.00  0.00    +0.000 A 
ATOM      2  C   UNL     1       0.786   8.868  21.586  0.00  0.00    +0.000 A 
ATOM      3  C   UNL     1       1.412   8.140  20.543  0.00  0.00    +0.000 A 
ATOM      4  N   UNL     1       1.902   6.827  20.660  0.00  0.00    +0.000 NA
ATOM      5  C   UNL     1       2.506   6.379  19.592  0.00  0.00    +0.000 A 
ATOM      6  N   UNL     1       2.704   7.123  18.444  0.00  0.00    +0.000 N 
ATOM      7  C   UNL     1       2.168   8.367  18.230  0.00  0.00    +0.000 A 
ATOM      8  O   UNL     1       2.291   8.927  17.145  0.00  0.00    +0.000 OA
ATOM      9  C   UNL     1       1.503   8.858  19.387  0.00  0.00    +0.000 A 
ATOM     10  S   UNL     1       0.769  10.367  19.496  0.00  0.00    +0.000 S 
ATOM     11  H   UNL     1       3.202   6.751  17.657  0.00  0.00    +0.000 HD
ENDROOT
BRANCH   5  12
ATOM     12  C   UNL     1       3.087   4.945  19.578  0.00  0.00    +0.000 C 
ATOM     13  C   UNL     1       3.219   4.359  18.159  0.00  0.00    +0.000 C 
ATOM     14  C   UNL     1       2.564   2.968  18.116  0.00  0.00    +0.000 C 
ATOM     15  C   UNL     1       3.249   2.085  19.173  0.00  0.00    +0.000 C 
ATOM     16  C   UNL     1       3.139   2.754  20.557  0.00  0.00    +0.000 C 
ATOM     17  N   UNL     1       2.342   4.009  20.488  0.00  0.00    +0.000 NA
ATOM     18  C   UNL     1       1.012   3.621  19.970  0.00  0.00    +0.000 C 
ATOM     19  C   UNL     1       1.091   3.121  18.519  0.00  0.00    +0.000 C 
ENDBRANCH   5  12
BRANCH   1  25
ATOM     20  C   UNL     1       0.549  13.459  21.074  0.00  0.00    +0.000 C 
ATOM     21  C   UNL     1      -0.233  12.567  21.969  0.00  0.00    +0.000 A 
ATOM     22  N   UNL     1      -1.011  13.118  22.913  0.00  0.00    +0.000 NA
ATOM     23  N   UNL     1      -1.589  12.073  23.516  0.00  0.00    +0.000 N 
ATOM     24  C   UNL     1      -1.221  10.868  22.995  0.00  0.00    +0.000 A 
ATOM     25  C   UNL     1      -0.322  11.145  21.988  0.00  0.00    +0.000 A 
ATOM     26  H   UNL     1      -2.225  12.257  24.284  0.00  0.00    +0.000 HD
ENDBRANCH   1  25
TORSDOF 2
ENDMDL
MODEL 3
REMARK VINA RESULT:      -7.8      1.302      1.640
REMARK  Name = 
REMARK  3 active torsions:
REMARK  status: ('A' for Active; 'I' for Inactive)
REMARK    1  A    between atoms: C_1  and  C_2
REMARK    2  A    between atoms: C_6  and  C_7
REMARK    3  A    between atoms: C_11  and  C_12
REMARK                            x       y       z     vdW  Elec       q    Type
REMARK                         _______ _______ _______ _____ _____    ______ ____
ROOT
ATOM      1  C   UNL     1       1.003   9.316  19.733  0.00  0.00    +0.000 A 
ATOM      2  C   UNL     1       1.737   9.061  18.582  0.00  0.00    +0.000 A 
ATOM      3  C   UNL     1       2.394   7.807  18.659  0.00  0.00    +0.000 A 
ATOM      4  N   UNL     1       3.245   7.283  17.670  0.00  0.00    +0.000 NA
ATOM      5  C   UNL     1       3.683   6.077  17.919  0.00  0.00    +0.000 A 
ATOM      6  N   UNL     1       3.323   5.336  19.029  0.00  0.00    +0.000 N 
ATOM      7  C   UNL     1       2.581   5.823  20.073  0.00  0.00    +0.000 A 
ATOM      8  O   UNL     1       2.389   5.145  21.078  0.00  0.00    +0.000 OA
ATOM      9  C   UNL     1       2.105   7.137  19.811  0.00  0.00    +0.000 A 
ATOM     10  S   UNL     1       1.128   8.022  20.855  0.00  0.00    +0.000 S 
ATOM     11  H   UNL     1       3.658   4.400  19.165  0.00  0.00    +0.000 HD
ENDROOT
BRANCH   5  12
ATOM     12  C   UNL     1       4.636   5.381  16.918  0.00  0.00    +0.000 C 
ATOM     13  C   UNL     1       5.495   4.278  17.568  0.00  0.00    +0.000 C 
ATOM     14  C   UNL     1       6.973   4.500  17.206  0.00  0.00    +0.000 C 
ATOM     15  C   UNL     1       7.096   4.502  15.673  0.00  0.00    +0.000 C 
ATOM     16  C   UNL     1       6.168   5.581  15.080  0.00  0.00    +0.000 C 
ATOM     17  N   UNL     1       5.487   6.356  16.154  0.00  0.00    +0.000 NA
ATOM     18  C   UNL     1       6.564   6.960  16.969  0.00  0.00    +0.000 C 
ATOM     19  C   UNL     1       7.383   5.892  17.710  0.00  0.00    +0.000 C 
ENDBRANCH   5  12
BRANCH   1  25
ATOM     20  C   UNL     1      -1.815  10.384  18.280  0.00  0.00    +0.000 C 
ATOM     21  C   UNL     1      -1.001  11.011  19.355  0.00  0.00    +0.000 A 
ATOM     22  N   UNL     1      -1.402  12.183  19.869  0.00  0.00    +0.000 NA
ATOM     23  N   UNL     1      -0.492  12.459  20.811  0.00  0.00    +0.000 N 
ATOM     24  C   UNL     1       0.476  11.506  20.931  0.00  0.00    +0.000 A 
ATOM     25  C   UNL     1       0.190  10.546  19.986  0.00  0.00    +0.000 A 
ATOM     26  H   UNL     1      -0.592  13.321  21.334  0.00  0.00    +0.000 HD
ENDBRANCH   1  25
TORSDOF 2
ENDMDL
MODEL 4
REMARK VINA RESULT:      -7.7      2.826      3.962
REMARK  Name = 
REMARK  3 active torsions:
REMARK  status: ('A' for Active; 'I' for Inactive)
REMARK    1  A    between atoms: C_1  and  C_2
REMARK    2  A    between atoms: C_6  and  C_7
REMARK    3  A    between atoms: C_11  and  C_12
REMARK                            x       y       z     vdW  Elec       q    Type
REMARK                         _______ _______ _______ _____ _____    ______ ____
ROOT
ATOM      1  C   UNL     1      -0.121  10.145  20.930  0.00  0.00    +0.000 A 
ATOM      2  C   UNL     1       0.350   8.940  21.435  0.00  0.00    +0.000 A 
ATOM      3  C   UNL     1       1.146   8.259  20.480  0.00  0.00    +0.000 A 
ATOM      4  N   UNL     1       1.732   6.995  20.675  0.00  0.00    +0.000 NA
ATOM      5  C   UNL     1       2.485   6.592  19.687  0.00  0.00    +0.000 A 
ATOM      6  N   UNL     1       2.741   7.339  18.553  0.00  0.00    +0.000 N 
ATOM      7  C   UNL     1       2.127   8.528  18.258  0.00  0.00    +0.000 A 
ATOM      8  O   UNL     1       2.319   9.086  17.182  0.00  0.00    +0.000 OA
ATOM      9  C   UNL     1       1.300   8.971  19.327  0.00  0.00    +0.000 A 
ATOM     10  S   UNL     1       0.430  10.410  19.326  0.00  0.00    +0.000 S 
ATOM     11  H   UNL     1       3.353   7.004  17.832  0.00  0.00    +0.000 HD
ENDROOT
BRANCH   5  12
ATOM     12  C   UNL     1       3.186   5.215  19.765  0.00  0.00    +0.000 C 
ATOM     13  C   UNL     1       4.136   4.952  18.580  0.00  0.00    +0.000 C 
ATOM     14  C   UNL     1       3.815   3.581  17.960  0.00  0.00    +0.000 C 
ATOM     15  C   UNL     1       3.953   2.515  19.060  0.00  0.00    +0.000 C 
ATOM     16  C   UNL     1       3.027   2.867  20.242  0.00  0.00    +0.000 C 
ATOM     17  N   UNL     1       2.217   4.081  19.948  0.00  0.00    +0.000 NA
ATOM     18  C   UNL     1       1.439   3.769  18.729  0.00  0.00    +0.000 C 
ATOM     19  C   UNL     1       2.350   3.595  17.503  0.00  0.00    +0.000 C 
ENDBRANCH   5  12
BRANCH   1  25
ATOM     20  C   UNL     1      -2.032  12.645  19.793  0.00  0.00    +0.000 C 
ATOM     21  C   UNL     1      -1.789  12.191  21.188  0.00  0.00    +0.000 A 
ATOM     22  N   UNL     1      -2.400  12.835  22.194  0.00  0.00    +0.000 NA
ATOM     23  N   UNL     1      -2.004  12.181  23.293  0.00  0.00    +0.000 N 
ATOM     24  C   UNL     1      -1.168  11.135  23.036  0.00  0.00    +0.000 A 
ATOM     25  C   UNL     1      -0.989  11.114  21.670  0.00  0.00    +0.000 A 
ATOM     26  H   UNL     1      -2.343  12.508  24.190  0.00  0.00    +0.000 HD
ENDBRANCH   1  25
TORSDOF 2
ENDMDL
MODEL 5
REMARK VINA RESULT:      -7.5      3.039      8.433
REMARK  Name = 
REMARK  3 active torsions:
REMARK  status: ('A' for Active; 'I' for Inactive)
REMARK    1  A    between atoms: C_1  and  C_2
REMARK    2  A    between atoms: C_6  and  C_7
REMARK    3  A    between atoms: C_11  and  C_12
REMARK                            x       y       z     vdW  Elec       q    Type
REMARK                         _______ _______ _______ _____ _____    ______ ____
ROOT
ATOM      1  C   UNL     1       2.964   5.656  19.628  0.00  0.00    +0.000 A 
ATOM      2  C   UNL     1       2.097   6.249  20.537  0.00  0.00    +0.000 A 
ATOM      3  C   UNL     1       1.687   7.531  20.093  0.00  0.00    +0.000 A 
ATOM      4  N   UNL     1       0.843   8.398  20.810  0.00  0.00    +0.000 NA
ATOM      5  C   UNL     1       0.538   9.500  20.177  0.00  0.00    +0.000 A 
ATOM      6  N   UNL     1       0.955   9.797  18.893  0.00  0.00    +0.000 N 
ATOM      7  C   UNL     1       1.854   9.044  18.182  0.00  0.00    +0.000 A 
ATOM      8  O   UNL     1       2.265   9.422  17.089  0.00  0.00    +0.000 OA
ATOM      9  C   UNL     1       2.195   7.846  18.868  0.00  0.00    +0.000 A 
ATOM     10  S   UNL     1       3.236   6.669  18.269  0.00  0.00    +0.000 S 
ATOM     11  H   UNL     1       0.671  10.640  18.432  0.00  0.00    +0.000 HD
ENDROOT
BRANCH   5  12
ATOM     12  C   UNL     1      -0.377  10.549  20.852  0.00  0.00    +0.000 C 
ATOM     13  C   UNL     1      -1.320  11.257  19.860  0.00  0.00    +0.000 C 
ATOM     14  C   UNL     1      -1.205  12.780  20.041  0.00  0.00    +0.000 C 
ATOM     15  C   UNL     1      -1.545  13.116  21.503  0.00  0.00    +0.000 C 
ATOM     16  C   UNL     1      -0.611  12.331  22.445  0.00  0.00    +0.000 C 
ATOM     17  N   UNL     1       0.393  11.543  21.676  0.00  0.00    +0.000 NA
ATOM     18  C   UNL     1       1.147  12.523  20.864  0.00  0.00    +0.000 C 
ATOM     19  C   UNL     1       0.257  13.180  19.797  0.00  0.00    +0.000 C 
ENDBRANCH   5  12
BRANCH   1  25
ATOM     20  C   UNL     1       1.826   2.910  21.164  0.00  0.00    +0.000 C 
ATOM     21  C   UNL     1       3.111   3.139  20.452  0.00  0.00    +0.000 A 
ATOM     22  N   UNL     1       3.995   2.133  20.372  0.00  0.00    +0.000 NA
ATOM     23  N   UNL     1       5.010   2.641  19.662  0.00  0.00    +0.000 N 
ATOM     24  C   UNL     1       4.813   3.933  19.274  0.00  0.00    +0.000 A 
ATOM     25  C   UNL     1       3.587   4.304  19.782  0.00  0.00    +0.000 A 
ATOM     26  H   UNL     1       5.810   2.047  19.483  0.00  0.00    +0.000 HD
ENDBRANCH   1  25
TORSDOF 2
ENDMDL
MODEL 6
REMARK VINA RESULT:      -7.5      1.620      1.970
REMARK  Name = 
REMARK  3 active torsions:
REMARK  status: ('A' for Active; 'I' for Inactive)
REMARK    1  A    between atoms: C_1  and  C_2
REMARK    2  A    between atoms: C_6  and  C_7
REMARK    3  A    between atoms: C_11  and  C_12
REMARK                            x       y       z     vdW  Elec       q    Type
REMARK                         _______ _______ _______ _____ _____    ______ ____
ROOT
ATOM      1  C   UNL     1       0.938   9.150  20.111  0.00  0.00    +0.000 A 
ATOM      2  C   UNL     1       1.654   8.942  18.939  0.00  0.00    +0.000 A 
ATOM      3  C   UNL     1       2.283   7.672  18.941  0.00  0.00    +0.000 A 
ATOM      4  N   UNL     1       3.112   7.184  17.915  0.00  0.00    +0.000 NA
ATOM      5  C   UNL     1       3.527   5.958  18.094  0.00  0.00    +0.000 A 
ATOM      6  N   UNL     1       3.162   5.165  19.166  0.00  0.00    +0.000 N 
ATOM      7  C   UNL     1       2.442   5.611  20.244  0.00  0.00    +0.000 A 
ATOM      8  O   UNL     1       2.245   4.885  21.213  0.00  0.00    +0.000 OA
ATOM      9  C   UNL     1       1.992   6.948  20.059  0.00  0.00    +0.000 A 
ATOM     10  S   UNL     1       1.046   7.796  21.160  0.00  0.00    +0.000 S 
ATOM     11  H   UNL     1       3.477   4.217  19.248  0.00  0.00    +0.000 HD
ENDROOT
BRANCH   5  12
ATOM     12  C   UNL     1       4.453   5.296  17.046  0.00  0.00    +0.000 C 
ATOM     13  C   UNL     1       5.393   4.236  17.653  0.00  0.00    +0.000 C 
ATOM     14  C   UNL     1       6.838   4.519  17.211  0.00  0.00    +0.000 C 
ATOM     15  C   UNL     1       6.878   4.515  15.673  0.00  0.00    +0.000 C 
ATOM     16  C   UNL     1       5.873   5.549  15.127  0.00  0.00    +0.000 C 
ATOM     17  N   UNL     1       5.218   6.301  16.233  0.00  0.00    +0.000 NA
ATOM     18  C   UNL     1       6.311   6.957  16.984  0.00  0.00    +0.000 C 
ATOM     19  C   UNL     1       7.215   5.930  17.685  0.00  0.00    +0.000 C 
ENDBRANCH   5  12
BRANCH   1  25
ATOM     20  C   UNL     1      -0.534  10.083  22.967  0.00  0.00    +0.000 C 
ATOM     21  C   UNL     1      -0.489  10.772  21.650  0.00  0.00    +0.000 A 
ATOM     22  N   UNL     1      -1.109  11.954  21.517  0.00  0.00    +0.000 NA
ATOM     23  N   UNL     1      -0.863  12.315  20.252  0.00  0.00    +0.000 N 
ATOM     24  C   UNL     1      -0.102  11.416  19.565  0.00  0.00    +0.000 A 
ATOM     25  C   UNL     1       0.154  10.383  20.439  0.00  0.00    +0.000 A 
ATOM     26  H   UNL     1      -1.252  13.190  19.922  0.00  0.00    +0.000 HD
ENDBRANCH   1  25
TORSDOF 2
ENDMDL
MODEL 7
REMARK VINA RESULT:      -7.4      2.029      7.558
REMARK  Name = 
REMARK  3 active torsions:
REMARK  status: ('A' for Active; 'I' for Inactive)
REMARK    1  A    between atoms: C_1  and  C_2
REMARK    2  A    between atoms: C_6  and  C_7
REMARK    3  A    between atoms: C_11  and  C_12
REMARK                            x       y       z     vdW  Elec       q    Type
REMARK                         _______ _______ _______ _____ _____    ______ ____
ROOT
ATOM      1  C   UNL     1       4.352   6.533  17.554  0.00  0.00    +0.000 A 
ATOM      2  C   UNL     1       3.644   7.727  17.495  0.00  0.00    +0.000 A 
ATOM      3  C   UNL     1       2.658   7.790  18.511  0.00  0.00    +0.000 A 
ATOM      4  N   UNL     1       1.752   8.851  18.688  0.00  0.00    +0.000 NA
ATOM      5  C   UNL     1       0.979   8.732  19.734  0.00  0.00    +0.000 A 
ATOM      6  N   UNL     1       1.050   7.685  20.635  0.00  0.00    +0.000 N 
ATOM      7  C   UNL     1       1.838   6.576  20.467  0.00  0.00    +0.000 A 
ATOM      8  O   UNL     1       1.772   5.633  21.250  0.00  0.00    +0.000 OA
ATOM      9  C   UNL     1       2.678   6.697  19.326  0.00  0.00    +0.000 A 
ATOM     10  S   UNL     1       3.803   5.543  18.845  0.00  0.00    +0.000 S 
ATOM     11  H   UNL     1       0.459   7.649  21.444  0.00  0.00    +0.000 HD
ENDROOT
BRANCH   5  12
ATOM     12  C   UNL     1      -0.071   9.824  20.047  0.00  0.00    +0.000 C 
ATOM     13  C   UNL     1      -0.761  10.379  18.785  0.00  0.00    +0.000 C 
ATOM     14  C   UNL     1      -0.696  11.916  18.800  0.00  0.00    +0.000 C 
ATOM     15  C   UNL     1      -1.368  12.410  20.092  0.00  0.00    +0.000 C 
ATOM     16  C   UNL     1      -0.676  11.772  21.313  0.00  0.00    +0.000 C 
ATOM     17  N   UNL     1       0.481  10.932  20.899  0.00  0.00    +0.000 NA
ATOM     18  C   UNL     1       1.400  11.833  20.168  0.00  0.00    +0.000 C 
ATOM     19  C   UNL     1       0.782  12.331  18.853  0.00  0.00    +0.000 C 
ENDBRANCH   5  12
BRANCH   1  25
ATOM     20  C   UNL     1       7.666   6.815  17.914  0.00  0.00    +0.000 C 
ATOM     21  C   UNL     1       6.874   6.276  16.777  0.00  0.00    +0.000 A 
ATOM     22  N   UNL     1       7.524   5.811  15.699  0.00  0.00    +0.000 NA
ATOM     23  N   UNL     1       6.551   5.381  14.887  0.00  0.00    +0.000 N 
ATOM     24  C   UNL     1       5.299   5.543  15.401  0.00  0.00    +0.000 A 
ATOM     25  C   UNL     1       5.463   6.139  16.632  0.00  0.00    +0.000 A 
ATOM     26  H   UNL     1       6.815   4.990  13.991  0.00  0.00    +0.000 HD
ENDBRANCH   1  25
TORSDOF 2
ENDMDL
MODEL 8
REMARK VINA RESULT:      -7.3      1.851      7.835
REMARK  Name = 
REMARK  3 active torsions:
REMARK  status: ('A' for Active; 'I' for Inactive)
REMARK    1  A    between atoms: C_1  and  C_2
REMARK    2  A    between atoms: C_6  and  C_7
REMARK    3  A    between atoms: C_11  and  C_12
REMARK                            x       y       z     vdW  Elec       q    Type
REMARK                         _______ _______ _______ _____ _____    ______ ____
ROOT
ATOM      1  C   UNL     1       4.603   6.039  17.784  0.00  0.00    +0.000 A 
ATOM      2  C   UNL     1       4.137   7.232  17.246  0.00  0.00    +0.000 A 
ATOM      3  C   UNL     1       3.065   7.756  18.012  0.00  0.00    +0.000 A 
ATOM      4  N   UNL     1       2.354   8.929  17.703  0.00  0.00    +0.000 NA
ATOM      5  C   UNL     1       1.454   9.263  18.588  0.00  0.00    +0.000 A 
ATOM      6  N   UNL     1       1.226   8.569  19.762  0.00  0.00    +0.000 N 
ATOM      7  C   UNL     1       1.812   7.370  20.074  0.00  0.00    +0.000 A 
ATOM      8  O   UNL     1       1.483   6.753  21.083  0.00  0.00    +0.000 OA
ATOM      9  C   UNL     1       2.789   6.997  19.111  0.00  0.00    +0.000 A 
ATOM     10  S   UNL     1       3.733   5.608  19.200  0.00  0.00    +0.000 S 
ATOM     11  H   UNL     1       0.546   8.879  20.431  0.00  0.00    +0.000 HD
ENDROOT
BRANCH   5  12
ATOM     12  C   UNL     1       0.591  10.529  18.371  0.00  0.00    +0.000 C 
ATOM     13  C   UNL     1       1.364  11.839  18.621  0.00  0.00    +0.000 C 
ATOM     14  C   UNL     1       0.562  12.733  19.582  0.00  0.00    +0.000 C 
ATOM     15  C   UNL     1      -0.821  12.986  18.957  0.00  0.00    +0.000 C 
ATOM     16  C   UNL     1      -1.516  11.640  18.674  0.00  0.00    +0.000 C 
ATOM     17  N   UNL     1      -0.692  10.496  19.154  0.00  0.00    +0.000 NA
ATOM     18  C   UNL     1      -0.502  10.709  20.605  0.00  0.00    +0.000 C 
ATOM     19  C   UNL     1       0.350  11.957  20.889  0.00  0.00    +0.000 C 
ENDBRANCH   5  12
BRANCH   1  25
ATOM     20  C   UNL     1       7.790   5.782  18.767  0.00  0.00    +0.000 C 
ATOM     21  C   UNL     1       7.087   5.122  17.635  0.00  0.00    +0.000 A 
ATOM     22  N   UNL     1       7.774   4.281  16.848  0.00  0.00    +0.000 NA
ATOM     23  N   UNL     1       6.870   3.844  15.963  0.00  0.00    +0.000 N 
ATOM     24  C   UNL     1       5.625   4.365  16.152  0.00  0.00    +0.000 A 
ATOM     25  C   UNL     1       5.724   5.218  17.228  0.00  0.00    +0.000 A 
ATOM     26  H   UNL     1       7.177   3.191  15.252  0.00  0.00    +0.000 HD
ENDBRANCH   1  25
TORSDOF 2
ENDMDL
MODEL 9
REMARK VINA RESULT:      -7.3      3.021      4.179
REMARK  Name = 
REMARK  3 active torsions:
REMARK  status: ('A' for Active; 'I' for Inactive)
REMARK    1  A    between atoms: C_1  and  C_2
REMARK    2  A    between atoms: C_6  and  C_7
REMARK    3  A    between atoms: C_11  and  C_12
REMARK                            x       y       z     vdW  Elec       q    Type
REMARK                         _______ _______ _______ _____ _____    ______ ____
ROOT
ATOM      1  C   UNL     1       0.742   9.502  20.570  0.00  0.00    +0.000 A 
ATOM      2  C   UNL     1       1.107   8.228  20.988  0.00  0.00    +0.000 A 
ATOM      3  C   UNL     1       1.828   7.544  19.979  0.00  0.00    +0.000 A 
ATOM      4  N   UNL     1       2.300   6.222  20.082  0.00  0.00    +0.000 NA
ATOM      5  C   UNL     1       3.003   5.819  19.059  0.00  0.00    +0.000 A 
ATOM      6  N   UNL     1       3.315   6.613  17.971  0.00  0.00    +0.000 N 
ATOM      7  C   UNL     1       2.808   7.870  17.764  0.00  0.00    +0.000 A 
ATOM      8  O   UNL     1       3.039   8.478  16.723  0.00  0.00    +0.000 OA
ATOM      9  C   UNL     1       2.035   8.313  18.872  0.00  0.00    +0.000 A 
ATOM     10  S   UNL     1       1.300   9.822  18.978  0.00  0.00    +0.000 S 
ATOM     11  H   UNL     1       3.887   6.274  17.220  0.00  0.00    +0.000 HD
ENDROOT
BRANCH   5  12
ATOM     12  C   UNL     1       3.578   4.382  19.035  0.00  0.00    +0.000 C 
ATOM     13  C   UNL     1       3.455   3.704  17.657  0.00  0.00    +0.000 C 
ATOM     14  C   UNL     1       2.808   2.318  17.823  0.00  0.00    +0.000 C 
ATOM     15  C   UNL     1       3.674   1.500  18.796  0.00  0.00    +0.000 C 
ATOM     16  C   UNL     1       3.811   2.259  20.131  0.00  0.00    +0.000 C 
ATOM     17  N   UNL     1       3.010   3.514  20.122  0.00  0.00    +0.000 NA
ATOM     18  C   UNL     1       1.610   3.104  19.877  0.00  0.00    +0.000 C 
ATOM     19  C   UNL     1       1.430   2.510  18.471  0.00  0.00    +0.000 C 
ENDBRANCH   5  12
BRANCH   1  25
ATOM     20  C   UNL     1      -0.068   9.471  23.816  0.00  0.00    +0.000 C 
ATOM     21  C   UNL     1      -0.388  10.472  22.764  0.00  0.00    +0.000 A 
ATOM     22  N   UNL     1      -1.106  11.555  23.099  0.00  0.00    +0.000 NA
ATOM     23  N   UNL     1      -1.196  12.256  21.962  0.00  0.00    +0.000 N 
ATOM     24  C   UNL     1      -0.558  11.671  20.908  0.00  0.00    +0.000 A 
ATOM     25  C   UNL     1      -0.027  10.494  21.386  0.00  0.00    +0.000 A 
ATOM     26  H   UNL     1      -1.714  13.126  21.978  0.00  0.00    +0.000 HD
ENDBRANCH   1  25
TORSDOF 2
ENDMDL
