MODEL 1
REMARK VINA RESULT:      -8.0      0.000      0.000
REMARK  Name = 
REMARK  3 active torsions:
REMARK  status: ('A' for Active; 'I' for Inactive)
REMARK    1  A    between atoms: O_1  and  C_2
REMARK    2  A    between atoms: C_9  and  C_10
REMARK    3  A    between atoms: C_14  and  C_15
REMARK                            x       y       z     vdW  Elec       q    Type
REMARK                         _______ _______ _______ _____ _____    ______ ____
ROOT
ATOM      1  C   UNL     1      -1.902  12.316  21.160  0.00  0.00    +0.000 C 
ATOM      2  C   UNL     1      -0.871  11.526  21.966  0.00  0.00    +0.000 C 
ATOM      3  C   UNL     1       0.515  11.585  21.329  0.00  0.00    +0.000 C 
ATOM      4  N   UNL     1       0.462  11.253  19.909  0.00  0.00    +0.000 N 
ATOM      5  C   UNL     1       1.035  10.079  19.455  0.00  0.00    +0.000 A 
ATOM      6  C   UNL     1       1.487   9.977  18.146  0.00  0.00    +0.000 A 
ATOM      7  C   UNL     1       2.102   8.812  17.689  0.00  0.00    +0.000 A 
ATOM      8  C   UNL     1       2.264   7.738  18.550  0.00  0.00    +0.000 A 
ATOM      9  N   UNL     1       1.818   7.840  19.819  0.00  0.00    +0.000 NA
ATOM     10  N   UNL     1       1.219   9.020  20.271  0.00  0.00    +0.000 NA
ATOM     11  C   UNL     1      -0.499  11.991  19.091  0.00  0.00    +0.000 C 
ATOM     12  C   UNL     1      -1.898  11.887  19.698  0.00  0.00    +0.000 C 
ENDROOT
BRANCH   8  13
ATOM     13  C   UNL     1       2.901   6.474  18.142  0.00  0.00    +0.000 A 
ATOM     14  C   UNL     1       4.130   6.464  17.449  0.00  0.00    +0.000 A 
ATOM     15  C   UNL     1       4.715   5.273  17.014  0.00  0.00    +0.000 A 
ATOM     16  C   UNL     1       4.088   4.058  17.266  0.00  0.00    +0.000 A 
ATOM     17  C   UNL     1       2.874   4.020  17.964  0.00  0.00    +0.000 A 
ATOM     18  C   UNL     1       2.298   5.229  18.401  0.00  0.00    +0.000 A 
BRANCH  17  19
ATOM     19  C   UNL     1       2.179   2.709  18.238  0.00  0.00    +0.000 C 
ATOM     20  F   UNL     1       0.832   2.834  18.408  0.00  0.00    +0.000 F 
ATOM     21  F   UNL     1       2.343   1.806  17.233  0.00  0.00    +0.000 F 
ATOM     22  F   UNL     1       2.636   2.102  19.369  0.00  0.00    +0.000 F 
ENDBRANCH  17  19
ENDBRANCH   8  13
BRANCH   1  23
ATOM     23  O   UNL     1      -1.630  13.715  21.232  0.00  0.00    +0.000 OA
ATOM     24  H   UNL     1      -2.479  14.185  21.157  0.00  0.00    +0.000 HD
ENDBRANCH   1  23
TORSDOF 3
ENDMDL
MODEL 2
REMARK VINA RESULT:      -7.9      1.359      1.589
REMARK  Name = 
REMARK  3 active torsions:
REMARK  status: ('A' for Active; 'I' for Inactive)
REMARK    1  A    between atoms: O_1  and  C_2
REMARK    2  A    between atoms: C_9  and  C_10
REMARK    3  A    between atoms: C_14  and  C_15
REMARK                            x       y       z     vdW  Elec       q    Type
REMARK                         _______ _______ _______ _____ _____    ______ ____
ROOT
ATOM      1  C   UNL     1      -2.310  12.358  20.066  0.00  0.00    +0.000 C 
ATOM      2  C   UNL     1      -1.293  11.903  21.111  0.00  0.00    +0.000 C 
ATOM      3  C   UNL     1       0.126  11.877  20.549  0.00  0.00    +0.000 C 
ATOM      4  N   UNL     1       0.184  11.155  19.283  0.00  0.00    +0.000 N 
ATOM      5  C   UNL     1       0.848   9.943  19.211  0.00  0.00    +0.000 A 
ATOM      6  C   UNL     1       1.388   9.507  18.009  0.00  0.00    +0.000 A 
ATOM      7  C   UNL     1       2.093   8.307  17.933  0.00  0.00    +0.000 A 
ATOM      8  C   UNL     1       2.257   7.535  19.072  0.00  0.00    +0.000 A 
ATOM      9  N   UNL     1       1.725   7.959  20.236  0.00  0.00    +0.000 NA
ATOM     10  N   UNL     1       1.035   9.174  20.304  0.00  0.00    +0.000 NA
ATOM     11  C   UNL     1      -0.761  11.562  18.244  0.00  0.00    +0.000 C 
ATOM     12  C   UNL     1      -2.188  11.536  18.789  0.00  0.00    +0.000 C 
ENDROOT
BRANCH   8  13
ATOM     13  C   UNL     1       2.987   6.255  19.073  0.00  0.00    +0.000 A 
ATOM     14  C   UNL     1       4.063   6.025  18.189  0.00  0.00    +0.000 A 
ATOM     15  C   UNL     1       4.726   4.797  18.148  0.00  0.00    +0.000 A 
ATOM     16  C   UNL     1       4.335   3.766  18.996  0.00  0.00    +0.000 A 
ATOM     17  C   UNL     1       3.282   3.956  19.901  0.00  0.00    +0.000 A 
ATOM     18  C   UNL     1       2.624   5.202  19.934  0.00  0.00    +0.000 A 
BRANCH  17  19
ATOM     19  C   UNL     1       2.842   2.844  20.822  0.00  0.00    +0.000 C 
ATOM     20  F   UNL     1       2.199   3.288  21.939  0.00  0.00    +0.000 F 
ATOM     21  F   UNL     1       1.986   1.973  20.222  0.00  0.00    +0.000 F 
ATOM     22  F   UNL     1       3.888   2.096  21.273  0.00  0.00    +0.000 F 
ENDBRANCH  17  19
ENDBRANCH   8  13
BRANCH   1  23
ATOM     23  O   UNL     1      -2.120  13.737  19.747  0.00  0.00    +0.000 OA
ATOM     24  H   UNL     1      -2.695  14.258  20.334  0.00  0.00    +0.000 HD
ENDBRANCH   1  23
TORSDOF 3
ENDMDL
MODEL 3
REMARK VINA RESULT:      -7.8      1.215      1.287
REMARK  Name = 
REMARK  3 active torsions:
REMARK  status: ('A' for Active; 'I' for Inactive)
REMARK    1  A    between atoms: O_1  and  C_2
REMARK    2  A    between atoms: C_9  and  C_10
REMARK    3  A    between atoms: C_14  and  C_15
REMARK                            x       y       z     vdW  Elec       q    Type
REMARK                         _______ _______ _______ _____ _____    ______ ____
ROOT
ATOM      1  C   UNL     1      -2.022  11.948  19.839  0.00  0.00    +0.000 C 
ATOM      2  C   UNL     1      -1.003  11.526  20.896  0.00  0.00    +0.000 C 
ATOM      3  C   UNL     1       0.416  11.489  20.335  0.00  0.00    +0.000 C 
ATOM      4  N   UNL     1       0.476  10.731  19.089  0.00  0.00    +0.000 N 
ATOM      5  C   UNL     1       1.143   9.520  19.052  0.00  0.00    +0.000 A 
ATOM      6  C   UNL     1       1.685   9.052  17.862  0.00  0.00    +0.000 A 
ATOM      7  C   UNL     1       2.394   7.852  17.820  0.00  0.00    +0.000 A 
ATOM      8  C   UNL     1       2.560   7.113  18.981  0.00  0.00    +0.000 A 
ATOM      9  N   UNL     1       2.027   7.568  20.133  0.00  0.00    +0.000 NA
ATOM     10  N   UNL     1       1.333   8.782  20.166  0.00  0.00    +0.000 NA
ATOM     11  C   UNL     1      -0.471  11.106  18.040  0.00  0.00    +0.000 C 
ATOM     12  C   UNL     1      -1.897  11.090  18.585  0.00  0.00    +0.000 C 
ENDROOT
BRANCH   8  13
ATOM     13  C   UNL     1       3.294   5.836  19.018  0.00  0.00    +0.000 A 
ATOM     14  C   UNL     1       4.682   5.795  19.270  0.00  0.00    +0.000 A 
ATOM     15  C   UNL     1       5.393   4.594  19.255  0.00  0.00    +0.000 A 
ATOM     16  C   UNL     1       4.734   3.398  18.994  0.00  0.00    +0.000 A 
ATOM     17  C   UNL     1       3.354   3.390  18.753  0.00  0.00    +0.000 A 
ATOM     18  C   UNL     1       2.648   4.609  18.775  0.00  0.00    +0.000 A 
BRANCH  17  19
ATOM     19  C   UNL     1       2.626   2.100  18.461  0.00  0.00    +0.000 C 
ATOM     20  F   UNL     1       1.582   1.862  19.306  0.00  0.00    +0.000 F 
ATOM     21  F   UNL     1       2.102   2.065  17.205  0.00  0.00    +0.000 F 
ATOM     22  F   UNL     1       3.436   1.009  18.562  0.00  0.00    +0.000 F 
ENDBRANCH  17  19
ENDBRANCH   8  13
BRANCH   1  23
ATOM     23  O   UNL     1      -1.836  13.318  19.480  0.00  0.00    +0.000 OA
ATOM     24  H   UNL     1      -1.853  13.374  18.509  0.00  0.00    +0.000 HD
ENDBRANCH   1  23
TORSDOF 3
ENDMDL
MODEL 4
REMARK VINA RESULT:      -7.8      4.773      8.269
REMARK  Name = 
REMARK  3 active torsions:
REMARK  status: ('A' for Active; 'I' for Inactive)
REMARK    1  A    between atoms: O_1  and  C_2
REMARK    2  A    between atoms: C_9  and  C_10
REMARK    3  A    between atoms: C_14  and  C_15
REMARK                            x       y       z     vdW  Elec       q    Type
REMARK                         _______ _______ _______ _____ _____    ______ ____
ROOT
ATOM      1  C   UNL     1       5.282   4.267  16.123  0.00  0.00    +0.000 C 
ATOM      2  C   UNL     1       5.389   5.747  15.759  0.00  0.00    +0.000 C 
ATOM      3  C   UNL     1       5.436   6.635  17.000  0.00  0.00    +0.000 C 
ATOM      4  N   UNL     1       4.359   6.309  17.929  0.00  0.00    +0.000 N 
ATOM      5  C   UNL     1       3.333   7.213  18.137  0.00  0.00    +0.000 A 
ATOM      6  C   UNL     1       2.629   7.215  19.335  0.00  0.00    +0.000 A 
ATOM      7  C   UNL     1       1.620   8.146  19.572  0.00  0.00    +0.000 A 
ATOM      8  C   UNL     1       1.310   9.084  18.599  0.00  0.00    +0.000 A 
ATOM      9  N   UNL     1       1.991   9.075  17.436  0.00  0.00    +0.000 NA
ATOM     10  N   UNL     1       3.014   8.146  17.217  0.00  0.00    +0.000 NA
ATOM     11  C   UNL     1       4.222   4.906  18.319  0.00  0.00    +0.000 C 
ATOM     12  C   UNL     1       4.120   4.021  17.078  0.00  0.00    +0.000 C 
ENDROOT
BRANCH   8  13
ATOM     13  C   UNL     1       0.256  10.099  18.775  0.00  0.00    +0.000 A 
ATOM     14  C   UNL     1       0.338  11.073  19.793  0.00  0.00    +0.000 A 
ATOM     15  C   UNL     1      -0.680  12.005  19.997  0.00  0.00    +0.000 A 
ATOM     16  C   UNL     1      -1.808  11.994  19.183  0.00  0.00    +0.000 A 
ATOM     17  C   UNL     1      -1.924  11.055  18.150  0.00  0.00    +0.000 A 
ATOM     18  C   UNL     1      -0.886  10.122  17.953  0.00  0.00    +0.000 A 
BRANCH  17  19
ATOM     19  C   UNL     1      -3.145  11.026  17.263  0.00  0.00    +0.000 C 
ATOM     20  F   UNL     1      -3.769   9.813  17.239  0.00  0.00    +0.000 F 
ATOM     21  F   UNL     1      -4.094  11.923  17.645  0.00  0.00    +0.000 F 
ATOM     22  F   UNL     1      -2.853  11.315  15.964  0.00  0.00    +0.000 F 
ENDBRANCH  17  19
ENDBRANCH   8  13
BRANCH   1  23
ATOM     23  O   UNL     1       6.488   3.812  16.737  0.00  0.00    +0.000 OA
ATOM     24  H   UNL     1       6.409   3.968  17.694  0.00  0.00    +0.000 HD
ENDBRANCH   1  23
TORSDOF 3
ENDMDL
MODEL 5
REMARK VINA RESULT:      -7.8      2.692      3.462
REMARK  Name = 
REMARK  3 active torsions:
REMARK  status: ('A' for Active; 'I' for Inactive)
REMARK    1  A    between atoms: O_1  and  C_2
REMARK    2  A    between atoms: C_9  and  C_10
REMARK    3  A    between atoms: C_14  and  C_15
REMARK                            x       y       z     vdW  Elec       q    Type
REMARK                         _______ _______ _______ _____ _____    ______ ____
ROOT
ATOM      1  C   UNL     1       0.529  13.537  19.837  0.00  0.00    +0.000 C 
ATOM      2  C   UNL     1       0.291  12.843  18.496  0.00  0.00    +0.000 C 
ATOM      3  C   UNL     1      -0.293  11.444  18.677  0.00  0.00    +0.000 C 
ATOM      4  N   UNL     1       0.478  10.667  19.642  0.00  0.00    +0.000 N 
ATOM      5  C   UNL     1       1.218   9.578  19.215  0.00  0.00    +0.000 A 
ATOM      6  C   UNL     1       1.500   8.534  20.086  0.00  0.00    +0.000 A 
ATOM      7  C   UNL     1       2.210   7.414  19.656  0.00  0.00    +0.000 A 
ATOM      8  C   UNL     1       2.645   7.341  18.341  0.00  0.00    +0.000 A 
ATOM      9  N   UNL     1       2.374   8.360  17.501  0.00  0.00    +0.000 NA
ATOM     10  N   UNL     1       1.645   9.470  17.940  0.00  0.00    +0.000 NA
ATOM     11  C   UNL     1       0.722  11.282  20.946  0.00  0.00    +0.000 C 
ATOM     12  C   UNL     1       1.357  12.660  20.768  0.00  0.00    +0.000 C 
ENDROOT
BRANCH   8  13
ATOM     13  C   UNL     1       3.402   6.192  17.813  0.00  0.00    +0.000 A 
ATOM     14  C   UNL     1       2.816   4.913  17.712  0.00  0.00    +0.000 A 
ATOM     15  C   UNL     1       3.543   3.810  17.261  0.00  0.00    +0.000 A 
ATOM     16  C   UNL     1       4.875   3.958  16.890  0.00  0.00    +0.000 A 
ATOM     17  C   UNL     1       5.492   5.213  16.959  0.00  0.00    +0.000 A 
ATOM     18  C   UNL     1       4.745   6.319  17.413  0.00  0.00    +0.000 A 
BRANCH  17  19
ATOM     19  C   UNL     1       6.939   5.388  16.568  0.00  0.00    +0.000 C 
ATOM     20  F   UNL     1       7.780   4.516  17.195  0.00  0.00    +0.000 F 
ATOM     21  F   UNL     1       7.149   5.211  15.235  0.00  0.00    +0.000 F 
ATOM     22  F   UNL     1       7.413   6.631  16.863  0.00  0.00    +0.000 F 
ENDBRANCH  17  19
ENDBRANCH   8  13
BRANCH   1  23
ATOM     23  O   UNL     1      -0.713  13.842  20.472  0.00  0.00    +0.000 OA
ATOM     24  H   UNL     1      -1.079  13.009  20.819  0.00  0.00    +0.000 HD
ENDBRANCH   1  23
TORSDOF 3
ENDMDL
MODEL 6
REMARK VINA RESULT:      -7.7      4.776      8.097
REMARK  Name = 
REMARK  3 active torsions:
REMARK  status: ('A' for Active; 'I' for Inactive)
REMARK    1  A    between atoms: O_1  and  C_2
REMARK    2  A    between atoms: C_9  and  C_10
REMARK    3  A    between atoms: C_14  and  C_15
REMARK                            x       y       z     vdW  Elec       q    Type
REMARK                         _______ _______ _______ _____ _____    ______ ____
ROOT
ATOM      1  C   UNL     1       4.070   2.859  18.746  0.00  0.00    +0.000 C 
ATOM      2  C   UNL     1       4.550   4.061  17.934  0.00  0.00    +0.000 C 
ATOM      3  C   UNL     1       4.737   5.299  18.809  0.00  0.00    +0.000 C 
ATOM      4  N   UNL     1       3.561   5.548  19.636  0.00  0.00    +0.000 N 
ATOM      5  C   UNL     1       2.771   6.657  19.393  0.00  0.00    +0.000 A 
ATOM      6  C   UNL     1       2.021   7.223  20.416  0.00  0.00    +0.000 A 
ATOM      7  C   UNL     1       1.252   8.365  20.193  0.00  0.00    +0.000 A 
ATOM      8  C   UNL     1       1.233   8.944  18.933  0.00  0.00    +0.000 A 
ATOM      9  N   UNL     1       1.958   8.386  17.942  0.00  0.00    +0.000 NA
ATOM     10  N   UNL     1       2.739   7.252  18.183  0.00  0.00    +0.000 NA
ATOM     11  C   UNL     1       3.070   4.431  20.443  0.00  0.00    +0.000 C 
ATOM     12  C   UNL     1       2.830   3.208  19.561  0.00  0.00    +0.000 C 
ENDROOT
BRANCH   8  13
ATOM     13  C   UNL     1       0.445  10.148  18.619  0.00  0.00    +0.000 A 
ATOM     14  C   UNL     1       0.902  11.436  18.971  0.00  0.00    +0.000 A 
ATOM     15  C   UNL     1       0.138  12.577  18.722  0.00  0.00    +0.000 A 
ATOM     16  C   UNL     1      -1.104  12.462  18.108  0.00  0.00    +0.000 A 
ATOM     17  C   UNL     1      -1.591  11.205  17.727  0.00  0.00    +0.000 A 
ATOM     18  C   UNL     1      -0.807  10.062  17.980  0.00  0.00    +0.000 A 
BRANCH  17  19
ATOM     19  C   UNL     1      -2.940  11.065  17.066  0.00  0.00    +0.000 C 
ATOM     20  F   UNL     1      -3.483   9.821  17.199  0.00  0.00    +0.000 F 
ATOM     21  F   UNL     1      -3.865  11.928  17.568  0.00  0.00    +0.000 F 
ATOM     22  F   UNL     1      -2.892  11.302  15.725  0.00  0.00    +0.000 F 
ENDBRANCH  17  19
ENDBRANCH   8  13
BRANCH   1  23
ATOM     23  O   UNL     1       5.095   2.411  19.635  0.00  0.00    +0.000 OA
ATOM     24  H   UNL     1       4.668   2.151  20.470  0.00  0.00    +0.000 HD
ENDBRANCH   1  23
TORSDOF 3
ENDMDL
MODEL 7
REMARK VINA RESULT:      -7.7      4.866      8.346
REMARK  Name = 
REMARK  3 active torsions:
REMARK  status: ('A' for Active; 'I' for Inactive)
REMARK    1  A    between atoms: O_1  and  C_2
REMARK    2  A    between atoms: C_9  and  C_10
REMARK    3  A    between atoms: C_14  and  C_15
REMARK                            x       y       z     vdW  Elec       q    Type
REMARK                         _______ _______ _______ _____ _____    ______ ____
ROOT
ATOM      1  C   UNL     1       5.204   4.283  15.854  0.00  0.00    +0.000 C 
ATOM      2  C   UNL     1       5.320   5.796  15.679  0.00  0.00    +0.000 C 
ATOM      3  C   UNL     1       5.454   6.514  17.021  0.00  0.00    +0.000 C 
ATOM      4  N   UNL     1       4.424   6.082  17.960  0.00  0.00    +0.000 N 
ATOM      5  C   UNL     1       3.429   6.964  18.343  0.00  0.00    +0.000 A 
ATOM      6  C   UNL     1       2.793   6.818  19.569  0.00  0.00    +0.000 A 
ATOM      7  C   UNL     1       1.817   7.723  19.983  0.00  0.00    +0.000 A 
ATOM      8  C   UNL     1       1.473   8.784  19.160  0.00  0.00    +0.000 A 
ATOM      9  N   UNL     1       2.088   8.918  17.967  0.00  0.00    +0.000 NA
ATOM     10  N   UNL     1       3.079   8.014  17.571  0.00  0.00    +0.000 NA
ATOM     11  C   UNL     1       4.281   4.642  18.171  0.00  0.00    +0.000 C 
ATOM     12  C   UNL     1       4.092   3.928  16.834  0.00  0.00    +0.000 C 
ENDROOT
BRANCH   8  13
ATOM     13  C   UNL     1       0.451   9.781  19.525  0.00  0.00    +0.000 A 
ATOM     14  C   UNL     1      -0.238  10.519  18.540  0.00  0.00    +0.000 A 
ATOM     15  C   UNL     1      -1.170  11.501  18.881  0.00  0.00    +0.000 A 
ATOM     16  C   UNL     1      -1.443  11.767  20.218  0.00  0.00    +0.000 A 
ATOM     17  C   UNL     1      -0.794  11.047  21.229  0.00  0.00    +0.000 A 
ATOM     18  C   UNL     1       0.142  10.056  20.870  0.00  0.00    +0.000 A 
BRANCH  17  19
ATOM     19  C   UNL     1      -1.075  11.330  22.685  0.00  0.00    +0.000 C 
ATOM     20  F   UNL     1      -0.604  12.539  23.103  0.00  0.00    +0.000 F 
ATOM     21  F   UNL     1      -2.405  11.330  22.973  0.00  0.00    +0.000 F 
ATOM     22  F   UNL     1      -0.510  10.408  23.514  0.00  0.00    +0.000 F 
ENDBRANCH  17  19
ENDBRANCH   8  13
BRANCH   1  23
ATOM     23  O   UNL     1       6.433   3.736  16.333  0.00  0.00    +0.000 OA
ATOM     24  H   UNL     1       6.268   3.372  17.220  0.00  0.00    +0.000 HD
ENDBRANCH   1  23
TORSDOF 3
ENDMDL
MODEL 8
REMARK VINA RESULT:      -7.7      2.207      2.752
REMARK  Name = 
REMARK  3 active torsions:
REMARK  status: ('A' for Active; 'I' for Inactive)
REMARK    1  A    between atoms: O_1  and  C_2
REMARK    2  A    between atoms: C_9  and  C_10
REMARK    3  A    between atoms: C_14  and  C_15
REMARK                            x       y       z     vdW  Elec       q    Type
REMARK                         _______ _______ _______ _____ _____    ______ ____
ROOT
ATOM      1  C   UNL     1      -1.941  12.228  20.984  0.00  0.00    +0.000 C 
ATOM      2  C   UNL     1      -0.937  11.427  21.812  0.00  0.00    +0.000 C 
ATOM      3  C   UNL     1       0.474  11.515  21.236  0.00  0.00    +0.000 C 
ATOM      4  N   UNL     1       0.484  11.220  19.806  0.00  0.00    +0.000 N 
ATOM      5  C   UNL     1       1.087  10.063  19.347  0.00  0.00    +0.000 A 
ATOM      6  C   UNL     1       1.594   9.999  18.056  0.00  0.00    +0.000 A 
ATOM      7  C   UNL     1       2.239   8.852  17.595  0.00  0.00    +0.000 A 
ATOM      8  C   UNL     1       2.375   7.758  18.435  0.00  0.00    +0.000 A 
ATOM      9  N   UNL     1       1.876   7.822  19.686  0.00  0.00    +0.000 NA
ATOM     10  N   UNL     1       1.247   8.985  20.143  0.00  0.00    +0.000 NA
ATOM     11  C   UNL     1      -0.450  11.971  18.968  0.00  0.00    +0.000 C 
ATOM     12  C   UNL     1      -1.871  11.838  19.513  0.00  0.00    +0.000 C 
ENDROOT
BRANCH   8  13
ATOM     13  C   UNL     1       3.042   6.511  18.022  0.00  0.00    +0.000 A 
ATOM     14  C   UNL     1       2.390   5.263  18.120  0.00  0.00    +0.000 A 
ATOM     15  C   UNL     1       3.033   4.073  17.778  0.00  0.00    +0.000 A 
ATOM     16  C   UNL     1       4.347   4.097  17.322  0.00  0.00    +0.000 A 
ATOM     17  C   UNL     1       5.028   5.315  17.194  0.00  0.00    +0.000 A 
ATOM     18  C   UNL     1       4.364   6.510  17.539  0.00  0.00    +0.000 A 
BRANCH  17  19
ATOM     19  C   UNL     1       6.456   5.357  16.707  0.00  0.00    +0.000 C 
ATOM     20  F   UNL     1       7.269   4.459  17.334  0.00  0.00    +0.000 F 
ATOM     21  F   UNL     1       6.566   5.091  15.377  0.00  0.00    +0.000 F 
ATOM     22  F   UNL     1       7.036   6.574  16.898  0.00  0.00    +0.000 F 
ENDBRANCH  17  19
ENDBRANCH   8  13
BRANCH   1  23
ATOM     23  O   UNL     1      -1.686  13.628  21.103  0.00  0.00    +0.000 OA
ATOM     24  H   UNL     1      -0.946  13.742  21.724  0.00  0.00    +0.000 HD
ENDBRANCH   1  23
TORSDOF 3
ENDMDL
MODEL 9
REMARK VINA RESULT:      -7.6      4.816      8.247
REMARK  Name = 
REMARK  3 active torsions:
REMARK  status: ('A' for Active; 'I' for Inactive)
REMARK    1  A    between atoms: O_1  and  C_2
REMARK    2  A    between atoms: C_9  and  C_10
REMARK    3  A    between atoms: C_14  and  C_15
REMARK                            x       y       z     vdW  Elec       q    Type
REMARK                         _______ _______ _______ _____ _____    ______ ____
ROOT
ATOM      1  C   UNL     1       6.288   5.018  18.578  0.00  0.00    +0.000 C 
ATOM      2  C   UNL     1       5.029   4.753  19.402  0.00  0.00    +0.000 C 
ATOM      3  C   UNL     1       3.758   4.994  18.590  0.00  0.00    +0.000 C 
ATOM      4  N   UNL     1       3.792   6.291  17.922  0.00  0.00    +0.000 N 
ATOM      5  C   UNL     1       2.928   7.294  18.323  0.00  0.00    +0.000 A 
ATOM      6  C   UNL     1       2.540   8.286  17.432  0.00  0.00    +0.000 A 
ATOM      7  C   UNL     1       1.640   9.280  17.813  0.00  0.00    +0.000 A 
ATOM      8  C   UNL     1       1.124   9.281  19.100  0.00  0.00    +0.000 A 
ATOM      9  N   UNL     1       1.508   8.319  19.964  0.00  0.00    +0.000 NA
ATOM     10  N   UNL     1       2.399   7.317  19.564  0.00  0.00    +0.000 NA
ATOM     11  C   UNL     1       4.971   6.587  17.110  0.00  0.00    +0.000 C 
ATOM     12  C   UNL     1       6.242   6.400  17.936  0.00  0.00    +0.000 C 
ENDROOT
BRANCH   8  13
ATOM     13  C   UNL     1       0.170  10.297  19.578  0.00  0.00    +0.000 A 
ATOM     14  C   UNL     1      -0.428  11.216  18.690  0.00  0.00    +0.000 A 
ATOM     15  C   UNL     1      -1.292  12.214  19.143  0.00  0.00    +0.000 A 
ATOM     16  C   UNL     1      -1.589  12.316  20.498  0.00  0.00    +0.000 A 
ATOM     17  C   UNL     1      -1.030  11.415  21.413  0.00  0.00    +0.000 A 
ATOM     18  C   UNL     1      -0.162  10.410  20.941  0.00  0.00    +0.000 A 
BRANCH  17  19
ATOM     19  C   UNL     1      -1.337  11.518  22.888  0.00  0.00    +0.000 C 
ATOM     20  F   UNL     1      -0.836  10.481  23.619  0.00  0.00    +0.000 F 
ATOM     21  F   UNL     1      -0.832  12.648  23.452  0.00  0.00    +0.000 F 
ATOM     22  F   UNL     1      -2.675  11.534  23.142  0.00  0.00    +0.000 F 
ENDBRANCH  17  19
ENDBRANCH   8  13
BRANCH   1  23
ATOM     23  O   UNL     1       6.432   4.037  17.550  0.00  0.00    +0.000 OA
ATOM     24  H   UNL     1       6.581   3.177  17.982  0.00  0.00    +0.000 HD
ENDBRANCH   1  23
TORSDOF 3
ENDMDL
