MODEL 1
REMARK VINA RESULT:      -6.6      0.000      0.000
REMARK  Name = 
REMARK  5 active torsions:
REMARK  status: ('A' for Active; 'I' for Inactive)
REMARK    1  A    between atoms: C_2  and  N_3
REMARK    2  A    between atoms: C_2  and  N_10
REMARK    3  A    between atoms: N_3  and  C_4
REMARK    4  A    between atoms: C_4  and  C_5
REMARK    5  A    between atoms: N_10  and  C_11
REMARK                            x       y       z     vdW  Elec       q    Type
REMARK                         _______ _______ _______ _____ _____    ______ ____
ROOT
ATOM      1  S   UNL     1       3.424   3.371  17.072  0.00  0.00    +0.000 S 
ATOM      2  C   UNL     1       4.823   3.424  17.983  0.00  0.00    +0.000 C 
ENDROOT
BRANCH   2   3
ATOM      3  N   UNL     1       4.931   3.076  19.304  0.00  0.00    +0.000 N 
ATOM      4  H   UNL     1       5.459   3.692  19.904  0.00  0.00    +0.000 HD
BRANCH   3   5
ATOM      5  C   UNL     1       4.011   2.218  20.055  0.00  0.00    +0.000 C 
BRANCH   5   6
ATOM      6  C   UNL     1       2.931   3.060  20.754  0.00  0.00    +0.000 C 
ATOM      7  C   UNL     1       1.499   2.771  20.317  0.00  0.00    +0.000 C 
ATOM      8  C   UNL     1       0.822   4.099  20.547  0.00  0.00    +0.000 C 
ATOM      9  C   UNL     1       1.910   5.083  20.173  0.00  0.00    +0.000 C 
ATOM     10  O   UNL     1       3.163   4.460  20.482  0.00  0.00    +0.000 OA
ENDBRANCH   5   6
ENDBRANCH   3   5
ENDBRANCH   2   3
BRANCH   2  11
ATOM     11  N   UNL     1       5.929   3.991  17.413  0.00  0.00    +0.000 N 
ATOM     12  H   UNL     1       6.269   3.480  16.603  0.00  0.00    +0.000 HD
BRANCH  11  13
ATOM     13  C   UNL     1       6.558   5.224  17.672  0.00  0.00    +0.000 A 
ATOM     14  C   UNL     1       7.483   5.362  18.712  0.00  0.00    +0.000 A 
ATOM     15  C   UNL     1       8.131   6.582  18.920  0.00  0.00    +0.000 A 
ATOM     16  C   UNL     1       7.848   7.670  18.094  0.00  0.00    +0.000 A 
ATOM     17 CL   UNL     1       8.632   9.175  18.370  0.00  0.00    +0.000 Cl
ATOM     18  C   UNL     1       6.945   7.544  17.042  0.00  0.00    +0.000 A 
ATOM     19  C   UNL     1       6.319   6.317  16.819  0.00  0.00    +0.000 A 
ATOM     20 CL   UNL     1       5.193   6.199  15.512  0.00  0.00    +0.000 Cl
ENDBRANCH  11  13
ENDBRANCH   2  11
TORSDOF 5
ENDMDL
MODEL 2
REMARK VINA RESULT:      -6.6      4.056      6.593
REMARK  Name = 
REMARK  5 active torsions:
REMARK  status: ('A' for Active; 'I' for Inactive)
REMARK    1  A    between atoms: C_2  and  N_3
REMARK    2  A    between atoms: C_2  and  N_10
REMARK    3  A    between atoms: N_3  and  C_4
REMARK    4  A    between atoms: C_4  and  C_5
REMARK    5  A    between atoms: N_10  and  C_11
REMARK                            x       y       z     vdW  Elec       q    Type
REMARK                         _______ _______ _______ _____ _____    ______ ____
ROOT
ATOM      1  S   UNL     1       7.447   5.939  18.143  0.00  0.00    +0.000 S 
ATOM      2  C   UNL     1       6.624   5.346  16.816  0.00  0.00    +0.000 C 
ENDROOT
BRANCH   2   3
ATOM      3  N   UNL     1       7.195   4.755  15.719  0.00  0.00    +0.000 N 
ATOM      4  H   UNL     1       7.621   3.850  15.850  0.00  0.00    +0.000 HD
BRANCH   3   5
ATOM      5  C   UNL     1       6.861   5.018  14.317  0.00  0.00    +0.000 C 
BRANCH   5   6
ATOM      6  C   UNL     1       6.281   3.760  13.651  0.00  0.00    +0.000 C 
ATOM      7  C   UNL     1       6.938   3.360  12.335  0.00  0.00    +0.000 C 
ATOM      8  C   UNL     1       5.810   2.664  11.615  0.00  0.00    +0.000 C 
ATOM      9  C   UNL     1       4.606   3.476  12.042  0.00  0.00    +0.000 C 
ATOM     10  O   UNL     1       4.882   3.973  13.357  0.00  0.00    +0.000 OA
ENDBRANCH   5   6
ENDBRANCH   3   5
ENDBRANCH   2   3
BRANCH   2  11
ATOM     11  N   UNL     1       5.281   5.591  16.742  0.00  0.00    +0.000 N 
ATOM     12  H   UNL     1       5.051   6.398  16.169  0.00  0.00    +0.000 HD
BRANCH  11  13
ATOM     13  C   UNL     1       4.188   4.825  17.194  0.00  0.00    +0.000 A 
ATOM     14  C   UNL     1       4.169   3.434  17.052  0.00  0.00    +0.000 A 
ATOM     15  C   UNL     1       3.098   2.690  17.552  0.00  0.00    +0.000 A 
ATOM     16  C   UNL     1       2.038   3.337  18.187  0.00  0.00    +0.000 A 
ATOM     17 CL   UNL     1       0.711   2.418  18.779  0.00  0.00    +0.000 Cl
ATOM     18  C   UNL     1       2.050   4.719  18.354  0.00  0.00    +0.000 A 
ATOM     19  C   UNL     1       3.134   5.457  17.878  0.00  0.00    +0.000 A 
ATOM     20 CL   UNL     1       3.111   7.174  18.091  0.00  0.00    +0.000 Cl
ENDBRANCH  11  13
ENDBRANCH   2  11
TORSDOF 5
ENDMDL
MODEL 3
REMARK VINA RESULT:      -6.5      3.800      6.506
REMARK  Name = 
REMARK  5 active torsions:
REMARK  status: ('A' for Active; 'I' for Inactive)
REMARK    1  A    between atoms: C_2  and  N_3
REMARK    2  A    between atoms: C_2  and  N_10
REMARK    3  A    between atoms: N_3  and  C_4
REMARK    4  A    between atoms: C_4  and  C_5
REMARK    5  A    between atoms: N_10  and  C_11
REMARK                            x       y       z     vdW  Elec       q    Type
REMARK                         _______ _______ _______ _____ _____    ______ ____
ROOT
ATOM      1  S   UNL     1       7.223   5.858  18.675  0.00  0.00    +0.000 S 
ATOM      2  C   UNL     1       6.336   4.943  17.594  0.00  0.00    +0.000 C 
ENDROOT
BRANCH   2   3
ATOM      3  N   UNL     1       6.842   4.264  16.517  0.00  0.00    +0.000 N 
ATOM      4  H   UNL     1       7.767   3.871  16.609  0.00  0.00    +0.000 HD
BRANCH   3   5
ATOM      5  C   UNL     1       6.067   3.626  15.450  0.00  0.00    +0.000 C 
BRANCH   5   6
ATOM      6  C   UNL     1       6.164   4.439  14.148  0.00  0.00    +0.000 C 
ATOM      7  C   UNL     1       6.386   3.617  12.884  0.00  0.00    +0.000 C 
ATOM      8  C   UNL     1       7.130   4.586  12.000  0.00  0.00    +0.000 C 
ATOM      9  C   UNL     1       7.995   5.329  12.995  0.00  0.00    +0.000 C 
ATOM     10  O   UNL     1       7.278   5.356  14.236  0.00  0.00    +0.000 OA
ENDBRANCH   5   6
ENDBRANCH   3   5
ENDBRANCH   2   3
BRANCH   2  11
ATOM     11  N   UNL     1       4.973   4.981  17.701  0.00  0.00    +0.000 N 
ATOM     12  H   UNL     1       4.520   5.405  16.897  0.00  0.00    +0.000 HD
BRANCH  11  13
ATOM     13  C   UNL     1       4.117   4.396  18.655  0.00  0.00    +0.000 A 
ATOM     14  C   UNL     1       4.351   3.108  19.145  0.00  0.00    +0.000 A 
ATOM     15  C   UNL     1       3.517   2.567  20.127  0.00  0.00    +0.000 A 
ATOM     16  C   UNL     1       2.442   3.310  20.613  0.00  0.00    +0.000 A 
ATOM     17 CL   UNL     1       1.405   2.629  21.804  0.00  0.00    +0.000 Cl
ATOM     18  C   UNL     1       2.206   4.601  20.150  0.00  0.00    +0.000 A 
ATOM     19  C   UNL     1       3.057   5.150  19.189  0.00  0.00    +0.000 A 
ATOM     20 CL   UNL     1       2.728   6.752  18.626  0.00  0.00    +0.000 Cl
ENDBRANCH  11  13
ENDBRANCH   2  11
TORSDOF 5
ENDMDL
MODEL 4
REMARK VINA RESULT:      -6.4      1.003      1.343
REMARK  Name = 
REMARK  5 active torsions:
REMARK  status: ('A' for Active; 'I' for Inactive)
REMARK    1  A    between atoms: C_2  and  N_3
REMARK    2  A    between atoms: C_2  and  N_10
REMARK    3  A    between atoms: N_3  and  C_4
REMARK    4  A    between atoms: C_4  and  C_5
REMARK    5  A    between atoms: N_10  and  C_11
REMARK                            x       y       z     vdW  Elec       q    Type
REMARK                         _______ _______ _______ _____ _____    ______ ____
ROOT
ATOM      1  S   UNL     1       3.884   2.588  17.517  0.00  0.00    +0.000 S 
ATOM      2  C   UNL     1       4.805   3.705  18.350  0.00  0.00    +0.000 C 
ENDROOT
BRANCH   2   3
ATOM      3  N   UNL     1       4.481   4.271  19.554  0.00  0.00    +0.000 N 
ATOM      4  H   UNL     1       5.175   4.236  20.285  0.00  0.00    +0.000 HD
BRANCH   3   5
ATOM      5  C   UNL     1       3.483   5.321  19.780  0.00  0.00    +0.000 C 
BRANCH   5   6
ATOM      6  C   UNL     1       2.208   4.732  20.406  0.00  0.00    +0.000 C 
ATOM      7  C   UNL     1       2.429   3.539  21.329  0.00  0.00    +0.000 C 
ATOM      8  C   UNL     1       1.132   2.783  21.187  0.00  0.00    +0.000 C 
ATOM      9  C   UNL     1       0.792   2.997  19.728  0.00  0.00    +0.000 C 
ATOM     10  O   UNL     1       1.324   4.276  19.358  0.00  0.00    +0.000 OA
ENDBRANCH   5   6
ENDBRANCH   3   5
ENDBRANCH   2   3
BRANCH   2  11
ATOM     11  N   UNL     1       5.911   4.207  17.722  0.00  0.00    +0.000 N 
ATOM     12  H   UNL     1       6.236   3.625  16.956  0.00  0.00    +0.000 HD
BRANCH  11  13
ATOM     13  C   UNL     1       6.557   5.451  17.867  0.00  0.00    +0.000 A 
ATOM     14  C   UNL     1       7.592   5.626  18.790  0.00  0.00    +0.000 A 
ATOM     15  C   UNL     1       8.251   6.855  18.883  0.00  0.00    +0.000 A 
ATOM     16  C   UNL     1       7.868   7.914  18.060  0.00  0.00    +0.000 A 
ATOM     17 CL   UNL     1       8.667   9.430  18.196  0.00  0.00    +0.000 Cl
ATOM     18  C   UNL     1       6.852   7.750  17.122  0.00  0.00    +0.000 A 
ATOM     19  C   UNL     1       6.214   6.514  17.012  0.00  0.00    +0.000 A 
ATOM     20 CL   UNL     1       4.947   6.349  15.846  0.00  0.00    +0.000 Cl
ENDBRANCH  11  13
ENDBRANCH   2  11
TORSDOF 5
ENDMDL
MODEL 5
REMARK VINA RESULT:      -6.4      3.866      6.299
REMARK  Name = 
REMARK  5 active torsions:
REMARK  status: ('A' for Active; 'I' for Inactive)
REMARK    1  A    between atoms: C_2  and  N_3
REMARK    2  A    between atoms: C_2  and  N_10
REMARK    3  A    between atoms: N_3  and  C_4
REMARK    4  A    between atoms: C_4  and  C_5
REMARK    5  A    between atoms: N_10  and  C_11
REMARK                            x       y       z     vdW  Elec       q    Type
REMARK                         _______ _______ _______ _____ _____    ______ ____
ROOT
ATOM      1  S   UNL     1       7.687   5.913  19.063  0.00  0.00    +0.000 S 
ATOM      2  C   UNL     1       6.855   6.018  17.619  0.00  0.00    +0.000 C 
ENDROOT
BRANCH   2   3
ATOM      3  N   UNL     1       7.416   6.004  16.369  0.00  0.00    +0.000 N 
ATOM      4  H   UNL     1       8.064   6.744  16.144  0.00  0.00    +0.000 HD
BRANCH   3   5
ATOM      5  C   UNL     1       7.580   4.834  15.503  0.00  0.00    +0.000 C 
BRANCH   5   6
ATOM      6  C   UNL     1       6.605   4.896  14.316  0.00  0.00    +0.000 C 
ATOM      7  C   UNL     1       5.515   3.831  14.314  0.00  0.00    +0.000 C 
ATOM      8  C   UNL     1       5.236   3.663  12.842  0.00  0.00    +0.000 C 
ATOM      9  C   UNL     1       6.611   3.831  12.233  0.00  0.00    +0.000 C 
ATOM     10  O   UNL     1       7.339   4.727  13.082  0.00  0.00    +0.000 OA
ENDBRANCH   5   6
ENDBRANCH   3   5
ENDBRANCH   2   3
BRANCH   2  11
ATOM     11  N   UNL     1       5.513   6.279  17.678  0.00  0.00    +0.000 N 
ATOM     12  H   UNL     1       5.284   7.245  17.464  0.00  0.00    +0.000 HD
BRANCH  11  13
ATOM     13  C   UNL     1       4.420   5.404  17.830  0.00  0.00    +0.000 A 
ATOM     14  C   UNL     1       4.602   4.019  17.882  0.00  0.00    +0.000 A 
ATOM     15  C   UNL     1       3.508   3.173  18.082  0.00  0.00    +0.000 A 
ATOM     16  C   UNL     1       2.229   3.710  18.220  0.00  0.00    +0.000 A 
ATOM     17 CL   UNL     1       0.884   2.662  18.443  0.00  0.00    +0.000 Cl
ATOM     18  C   UNL     1       2.032   5.088  18.190  0.00  0.00    +0.000 A 
ATOM     19  C   UNL     1       3.130   5.933  18.017  0.00  0.00    +0.000 A 
ATOM     20 CL   UNL     1       2.849   7.639  17.971  0.00  0.00    +0.000 Cl
ENDBRANCH  11  13
ENDBRANCH   2  11
TORSDOF 5
ENDMDL
MODEL 6
REMARK VINA RESULT:      -6.4      1.429      1.557
REMARK  Name = 
REMARK  5 active torsions:
REMARK  status: ('A' for Active; 'I' for Inactive)
REMARK    1  A    between atoms: C_2  and  N_3
REMARK    2  A    between atoms: C_2  and  N_10
REMARK    3  A    between atoms: N_3  and  C_4
REMARK    4  A    between atoms: C_4  and  C_5
REMARK    5  A    between atoms: N_10  and  C_11
REMARK                            x       y       z     vdW  Elec       q    Type
REMARK                         _______ _______ _______ _____ _____    ______ ____
ROOT
ATOM      1  S   UNL     1       3.934   5.100  19.643  0.00  0.00    +0.000 S 
ATOM      2  C   UNL     1       4.823   3.900  18.895  0.00  0.00    +0.000 C 
ENDROOT
BRANCH   2   3
ATOM      3  N   UNL     1       4.525   2.563  18.899  0.00  0.00    +0.000 N 
ATOM      4  H   UNL     1       4.740   2.043  19.737  0.00  0.00    +0.000 HD
BRANCH   3   5
ATOM      5  C   UNL     1       3.522   1.893  18.067  0.00  0.00    +0.000 C 
BRANCH   5   6
ATOM      6  C   UNL     1       2.159   1.863  18.778  0.00  0.00    +0.000 C 
ATOM      7  C   UNL     1       1.241   3.041  18.472  0.00  0.00    +0.000 C 
ATOM      8  C   UNL     1       0.422   3.141  19.735  0.00  0.00    +0.000 C 
ATOM      9  C   UNL     1       1.433   2.782  20.803  0.00  0.00    +0.000 C 
ATOM     10  O   UNL     1       2.363   1.868  20.208  0.00  0.00    +0.000 OA
ENDBRANCH   5   6
ENDBRANCH   3   5
ENDBRANCH   2   3
BRANCH   2  11
ATOM     11  N   UNL     1       6.025   4.252  18.345  0.00  0.00    +0.000 N 
ATOM     12  H   UNL     1       6.458   3.501  17.815  0.00  0.00    +0.000 HD
BRANCH  11  13
ATOM     13  C   UNL     1       6.662   5.506  18.270  0.00  0.00    +0.000 A 
ATOM     14  C   UNL     1       7.705   5.841  19.138  0.00  0.00    +0.000 A 
ATOM     15  C   UNL     1       8.355   7.072  19.014  0.00  0.00    +0.000 A 
ATOM     16  C   UNL     1       7.956   7.973  18.028  0.00  0.00    +0.000 A 
ATOM     17 CL   UNL     1       8.744   9.496  17.896  0.00  0.00    +0.000 Cl
ATOM     18  C   UNL     1       6.932   7.647  17.143  0.00  0.00    +0.000 A 
ATOM     19  C   UNL     1       6.302   6.406  17.252  0.00  0.00    +0.000 A 
ATOM     20 CL   UNL     1       5.025   6.038  16.145  0.00  0.00    +0.000 Cl
ENDBRANCH  11  13
ENDBRANCH   2  11
TORSDOF 5
ENDMDL
MODEL 7
REMARK VINA RESULT:      -6.3      2.505      3.432
REMARK  Name = 
REMARK  5 active torsions:
REMARK  status: ('A' for Active; 'I' for Inactive)
REMARK    1  A    between atoms: C_2  and  N_3
REMARK    2  A    between atoms: C_2  and  N_10
REMARK    3  A    between atoms: N_3  and  C_4
REMARK    4  A    between atoms: C_4  and  C_5
REMARK    5  A    between atoms: N_10  and  C_11
REMARK                            x       y       z     vdW  Elec       q    Type
REMARK                         _______ _______ _______ _____ _____    ______ ____
ROOT
ATOM      1  S   UNL     1       5.522   3.835  15.983  0.00  0.00    +0.000 S 
ATOM      2  C   UNL     1       4.996   3.856  17.568  0.00  0.00    +0.000 C 
ENDROOT
BRANCH   2   3
ATOM      3  N   UNL     1       4.387   2.818  18.223  0.00  0.00    +0.000 N 
ATOM      4  H   UNL     1       4.670   2.641  19.175  0.00  0.00    +0.000 HD
BRANCH   3   5
ATOM      5  C   UNL     1       3.074   2.246  17.914  0.00  0.00    +0.000 C 
BRANCH   5   6
ATOM      6  C   UNL     1       2.252   2.048  19.198  0.00  0.00    +0.000 C 
ATOM      7  C   UNL     1       1.097   3.026  19.388  0.00  0.00    +0.000 C 
ATOM      8  C   UNL     1       0.982   3.095  20.890  0.00  0.00    +0.000 C 
ATOM      9  C   UNL     1       2.428   3.002  21.328  0.00  0.00    +0.000 C 
ATOM     10  O   UNL     1       3.111   2.209  20.349  0.00  0.00    +0.000 OA
ENDBRANCH   5   6
ENDBRANCH   3   5
ENDBRANCH   2   3
BRANCH   2  11
ATOM     11  N   UNL     1       5.046   5.048  18.236  0.00  0.00    +0.000 N 
ATOM     12  H   UNL     1       5.984   5.304  18.529  0.00  0.00    +0.000 HD
BRANCH  11  13
ATOM     13  C   UNL     1       4.050   6.024  18.436  0.00  0.00    +0.000 A 
ATOM     14  C   UNL     1       3.239   6.010  19.575  0.00  0.00    +0.000 A 
ATOM     15  C   UNL     1       2.291   7.016  19.776  0.00  0.00    +0.000 A 
ATOM     16  C   UNL     1       2.144   8.033  18.833  0.00  0.00    +0.000 A 
ATOM     17 CL   UNL     1       0.959   9.254  19.075  0.00  0.00    +0.000 Cl
ATOM     18  C   UNL     1       2.956   8.073  17.703  0.00  0.00    +0.000 A 
ATOM     19  C   UNL     1       3.922   7.082  17.518  0.00  0.00    +0.000 A 
ATOM     20 CL   UNL     1       4.905   7.155  16.097  0.00  0.00    +0.000 Cl
ENDBRANCH  11  13
ENDBRANCH   2  11
TORSDOF 5
ENDMDL
MODEL 8
REMARK VINA RESULT:      -6.3      3.144      5.276
REMARK  Name = 
REMARK  5 active torsions:
REMARK  status: ('A' for Active; 'I' for Inactive)
REMARK    1  A    between atoms: C_2  and  N_3
REMARK    2  A    between atoms: C_2  and  N_10
REMARK    3  A    between atoms: N_3  and  C_4
REMARK    4  A    between atoms: C_4  and  C_5
REMARK    5  A    between atoms: N_10  and  C_11
REMARK                            x       y       z     vdW  Elec       q    Type
REMARK                         _______ _______ _______ _____ _____    ______ ____
ROOT
ATOM      1  S   UNL     1       2.926   2.816  17.188  0.00  0.00    +0.000 S 
ATOM      2  C   UNL     1       4.176   3.733  17.807  0.00  0.00    +0.000 C 
ENDROOT
BRANCH   2   3
ATOM      3  N   UNL     1       5.505   3.581  17.507  0.00  0.00    +0.000 N 
ATOM      4  H   UNL     1       5.980   2.782  17.898  0.00  0.00    +0.000 HD
BRANCH   3   5
ATOM      5  C   UNL     1       6.200   4.129  16.339  0.00  0.00    +0.000 C 
BRANCH   5   6
ATOM      6  C   UNL     1       7.262   5.153  16.771  0.00  0.00    +0.000 C 
ATOM      7  C   UNL     1       7.485   5.263  18.275  0.00  0.00    +0.000 C 
ATOM      8  C   UNL     1       7.936   6.694  18.427  0.00  0.00    +0.000 C 
ATOM      9  C   UNL     1       7.103   7.406  17.383  0.00  0.00    +0.000 C 
ATOM     10  O   UNL     1       6.871   6.470  16.323  0.00  0.00    +0.000 OA
ENDBRANCH   5   6
ENDBRANCH   3   5
ENDBRANCH   2   3
BRANCH   2  11
ATOM     11  N   UNL     1       3.878   4.621  18.804  0.00  0.00    +0.000 N 
ATOM     12  H   UNL     1       4.219   4.330  19.715  0.00  0.00    +0.000 HD
BRANCH  11  13
ATOM     13  C   UNL     1       3.324   5.915  18.736  0.00  0.00    +0.000 A 
ATOM     14  C   UNL     1       3.610   6.771  17.669  0.00  0.00    +0.000 A 
ATOM     15  C   UNL     1       3.011   8.031  17.598  0.00  0.00    +0.000 A 
ATOM     16  C   UNL     1       2.132   8.441  18.600  0.00  0.00    +0.000 A 
ATOM     17 CL   UNL     1       1.417  10.003  18.519  0.00  0.00    +0.000 Cl
ATOM     18  C   UNL     1       1.821   7.594  19.659  0.00  0.00    +0.000 A 
ATOM     19  C   UNL     1       2.400   6.325  19.714  0.00  0.00    +0.000 A 
ATOM     20 CL   UNL     1       2.002   5.302  21.051  0.00  0.00    +0.000 Cl
ENDBRANCH  11  13
ENDBRANCH   2  11
TORSDOF 5
ENDMDL
MODEL 9
REMARK VINA RESULT:      -6.3      4.238      6.660
REMARK  Name = 
REMARK  5 active torsions:
REMARK  status: ('A' for Active; 'I' for Inactive)
REMARK    1  A    between atoms: C_2  and  N_3
REMARK    2  A    between atoms: C_2  and  N_10
REMARK    3  A    between atoms: N_3  and  C_4
REMARK    4  A    between atoms: C_4  and  C_5
REMARK    5  A    between atoms: N_10  and  C_11
REMARK                            x       y       z     vdW  Elec       q    Type
REMARK                         _______ _______ _______ _____ _____    ______ ____
ROOT
ATOM      1  S   UNL     1       5.359   6.560  16.091  0.00  0.00    +0.000 S 
ATOM      2  C   UNL     1       6.113   5.071  16.018  0.00  0.00    +0.000 C 
ENDROOT
BRANCH   2   3
ATOM      3  N   UNL     1       7.114   4.723  15.149  0.00  0.00    +0.000 N 
ATOM      4  H   UNL     1       7.842   4.120  15.499  0.00  0.00    +0.000 HD
BRANCH   3   5
ATOM      5  C   UNL     1       7.028   4.707  13.687  0.00  0.00    +0.000 C 
BRANCH   5   6
ATOM      6  C   UNL     1       6.242   3.477  13.203  0.00  0.00    +0.000 C 
ATOM      7  C   UNL     1       6.776   2.824  11.933  0.00  0.00    +0.000 C 
ATOM      8  C   UNL     1       5.529   2.221  11.337  0.00  0.00    +0.000 C 
ATOM      9  C   UNL     1       4.476   3.251  11.685  0.00  0.00    +0.000 C 
ATOM     10  O   UNL     1       4.878   3.860  12.918  0.00  0.00    +0.000 OA
ENDBRANCH   5   6
ENDBRANCH   3   5
ENDBRANCH   2   3
BRANCH   2  11
ATOM     11  N   UNL     1       5.603   4.064  16.791  0.00  0.00    +0.000 N 
ATOM     12  H   UNL     1       6.225   3.264  16.867  0.00  0.00    +0.000 HD
BRANCH  11  13
ATOM     13  C   UNL     1       4.453   4.031  17.603  0.00  0.00    +0.000 A 
ATOM     14  C   UNL     1       3.262   3.456  17.149  0.00  0.00    +0.000 A 
ATOM     15  C   UNL     1       2.148   3.390  17.990  0.00  0.00    +0.000 A 
ATOM     16  C   UNL     1       2.220   3.908  19.282  0.00  0.00    +0.000 A 
ATOM     17 CL   UNL     1       0.838   3.845  20.303  0.00  0.00    +0.000 Cl
ATOM     18  C   UNL     1       3.403   4.467  19.756  0.00  0.00    +0.000 A 
ATOM     19  C   UNL     1       4.523   4.507  18.924  0.00  0.00    +0.000 A 
ATOM     20 CL   UNL     1       5.974   5.220  19.540  0.00  0.00    +0.000 Cl
ENDBRANCH  11  13
ENDBRANCH   2  11
TORSDOF 5
ENDMDL
