MODEL 1
REMARK VINA RESULT:      -7.2      0.000      0.000
REMARK  Name = 
REMARK  7 active torsions:
REMARK  status: ('A' for Active; 'I' for Inactive)
REMARK    1  A    between atoms: N_4  and  C_5
REMARK    2  A    between atoms: C_8  and  C_9
REMARK    3  A    between atoms: C_9  and  O_11
REMARK    4  A    between atoms: O_11  and  C_12
REMARK    5  A    between atoms: C_15  and  C_16
REMARK    6  A    between atoms: C_16  and  C_17
REMARK    7  A    between atoms: C_17  and  O_19
REMARK                            x       y       z     vdW  Elec       q    Type
REMARK                         _______ _______ _______ _____ _____    ______ ____
ROOT
ATOM      1  C   UNL     1       6.933   6.363  17.028  0.00  0.00    +0.000 C 
ATOM      2  O   UNL     1       7.500   7.430  16.815  0.00  0.00    +0.000 OA
ENDROOT
BRANCH   1   6
ATOM      3  C   UNL     1       3.905   5.493  19.349  0.00  0.00    +0.000 A 
ATOM      4  C   UNL     1       3.408   6.267  18.320  0.00  0.00    +0.000 A 
ATOM      5  C   UNL     1       4.407   6.665  17.383  0.00  0.00    +0.000 A 
ATOM      6  C   UNL     1       5.663   6.198  17.719  0.00  0.00    +0.000 A 
ATOM      7  S   UNL     1       5.604   5.294  19.178  0.00  0.00    +0.000 S 
BRANCH   3  11
ATOM      8  N   UNL     1       2.961   2.672  19.711  0.00  0.00    +0.000 NA
ATOM      9  C   UNL     1       2.822   3.635  20.553  0.00  0.00    +0.000 C 
ATOM     10  N   UNL     1       2.212   3.422  21.745  0.00  0.00    +0.000 N 
ATOM     11  N   UNL     1       3.251   4.920  20.397  0.00  0.00    +0.000 N 
ATOM     12  H   UNL     1       2.580   1.807  20.094  0.00  0.00    +0.000 HD
ATOM     13  H   UNL     1       1.705   2.548  21.813  0.00  0.00    +0.000 HD
ATOM     14  H   UNL     1       1.640   4.188  22.079  0.00  0.00    +0.000 HD
ATOM     15  H   UNL     1       3.204   5.483  21.235  0.00  0.00    +0.000 HD
ENDBRANCH   3  11
ENDBRANCH   1   6
BRANCH   1  16
ATOM     16  O   UNL     1       7.420   5.129  16.651  0.00  0.00    +0.000 OA
BRANCH  16  17
ATOM     17  C   UNL     1       6.843   4.573  15.500  0.00  0.00    +0.000 A 
ATOM     18  C   UNL     1       5.756   3.772  15.496  0.00  0.00    +0.000 A 
ATOM     19  C   UNL     1       5.226   3.216  14.259  0.00  0.00    +0.000 A 
ATOM     20  C   UNL     1       5.787   3.557  13.081  0.00  0.00    +0.000 A 
ATOM     21  N   UNL     1       6.857   4.466  13.093  0.00  0.00    +0.000 N 
ATOM     22  N   UNL     1       7.493   5.009  12.017  0.00  0.00    +0.000 NA
ATOM     23  C   UNL     1       8.450   5.738  12.600  0.00  0.00    +0.000 A 
ATOM     24  N   UNL     1       8.436   5.764  13.962  0.00  0.00    +0.000 NA
ATOM     25  C   UNL     1       7.421   4.981  14.264  0.00  0.00    +0.000 A 
BRANCH  20  26
ATOM     26  C   UNL     1       5.381   2.960  11.762  0.00  0.00    +0.000 C 
BRANCH  26  27
ATOM     27  C   UNL     1       6.196   1.736  11.403  0.00  0.00    +0.000 C 
ATOM     28  O   UNL     1       5.710   0.621  11.272  0.00  0.00    +0.000 OA
BRANCH  27  29
ATOM     29  O   UNL     1       7.523   1.973  11.270  0.00  0.00    +0.000 OA
ATOM     30  H   UNL     1       8.065   1.653  12.024  0.00  0.00    +0.000 HD
ENDBRANCH  27  29
ENDBRANCH  26  27
ENDBRANCH  20  26
ENDBRANCH  16  17
ENDBRANCH   1  16
TORSDOF 7
ENDMDL
MODEL 2
REMARK VINA RESULT:      -7.2      3.717      7.283
REMARK  Name = 
REMARK  7 active torsions:
REMARK  status: ('A' for Active; 'I' for Inactive)
REMARK    1  A    between atoms: N_4  and  C_5
REMARK    2  A    between atoms: C_8  and  C_9
REMARK    3  A    between atoms: C_9  and  O_11
REMARK    4  A    between atoms: O_11  and  C_12
REMARK    5  A    between atoms: C_15  and  C_16
REMARK    6  A    between atoms: C_16  and  C_17
REMARK    7  A    between atoms: C_17  and  O_19
REMARK                            x       y       z     vdW  Elec       q    Type
REMARK                         _______ _______ _______ _____ _____    ______ ____
ROOT
ATOM      1  C   UNL     1       5.794   4.778  16.203  0.00  0.00    +0.000 C 
ATOM      2  O   UNL     1       6.116   3.960  15.347  0.00  0.00    +0.000 OA
ENDROOT
BRANCH   1   6
ATOM      3  C   UNL     1       8.062   6.884  18.596  0.00  0.00    +0.000 A 
ATOM      4  C   UNL     1       8.106   5.582  19.051  0.00  0.00    +0.000 A 
ATOM      5  C   UNL     1       7.318   4.687  18.269  0.00  0.00    +0.000 A 
ATOM      6  C   UNL     1       6.668   5.325  17.229  0.00  0.00    +0.000 A 
ATOM      7  S   UNL     1       7.020   7.006  17.235  0.00  0.00    +0.000 S 
BRANCH   3  11
ATOM      8  N   UNL     1       7.925   9.729  17.662  0.00  0.00    +0.000 NA
ATOM      9  C   UNL     1       8.634   9.282  18.639  0.00  0.00    +0.000 C 
ATOM     10  N   UNL     1       9.406  10.124  19.369  0.00  0.00    +0.000 N 
ATOM     11  N   UNL     1       8.699   7.991  19.072  0.00  0.00    +0.000 N 
ATOM     12  H   UNL     1       8.036  10.738  17.576  0.00  0.00    +0.000 HD
ATOM     13  H   UNL     1       9.542  11.039  18.957  0.00  0.00    +0.000 HD
ATOM     14  H   UNL     1      10.291   9.739  19.675  0.00  0.00    +0.000 HD
ATOM     15  H   UNL     1       9.173   7.867  19.956  0.00  0.00    +0.000 HD
ENDBRANCH   3  11
ENDBRANCH   1   6
BRANCH   1  16
ATOM     16  O   UNL     1       4.529   5.311  16.339  0.00  0.00    +0.000 OA
BRANCH  16  17
ATOM     17  C   UNL     1       3.712   4.702  17.302  0.00  0.00    +0.000 A 
ATOM     18  C   UNL     1       3.523   3.370  17.417  0.00  0.00    +0.000 A 
ATOM     19  C   UNL     1       2.642   2.812  18.433  0.00  0.00    +0.000 A 
ATOM     20  C   UNL     1       2.050   3.633  19.325  0.00  0.00    +0.000 A 
ATOM     21  N   UNL     1       2.331   5.006  19.253  0.00  0.00    +0.000 N 
ATOM     22  N   UNL     1       1.917   5.982  20.109  0.00  0.00    +0.000 NA
ATOM     23  C   UNL     1       2.413   7.082  19.536  0.00  0.00    +0.000 A 
ATOM     24  N   UNL     1       3.171   6.886  18.422  0.00  0.00    +0.000 NA
ATOM     25  C   UNL     1       3.133   5.580  18.262  0.00  0.00    +0.000 A 
BRANCH  20  26
ATOM     26  C   UNL     1       1.047   3.168  20.344  0.00  0.00    +0.000 C 
BRANCH  26  27
ATOM     27  C   UNL     1       1.697   2.697  21.627  0.00  0.00    +0.000 C 
ATOM     28  O   UNL     1       2.909   2.601  21.769  0.00  0.00    +0.000 OA
BRANCH  27  29
ATOM     29  O   UNL     1       0.820   2.356  22.601  0.00  0.00    +0.000 OA
ATOM     30  H   UNL     1       0.784   1.392  22.789  0.00  0.00    +0.000 HD
ENDBRANCH  27  29
ENDBRANCH  26  27
ENDBRANCH  20  26
ENDBRANCH  16  17
ENDBRANCH   1  16
TORSDOF 7
ENDMDL
MODEL 3
REMARK VINA RESULT:      -7.1      5.203      9.257
REMARK  Name = 
REMARK  7 active torsions:
REMARK  status: ('A' for Active; 'I' for Inactive)
REMARK    1  A    between atoms: N_4  and  C_5
REMARK    2  A    between atoms: C_8  and  C_9
REMARK    3  A    between atoms: C_9  and  O_11
REMARK    4  A    between atoms: O_11  and  C_12
REMARK    5  A    between atoms: C_15  and  C_16
REMARK    6  A    between atoms: C_16  and  C_17
REMARK    7  A    between atoms: C_17  and  O_19
REMARK                            x       y       z     vdW  Elec       q    Type
REMARK                         _______ _______ _______ _____ _____    ______ ____
ROOT
ATOM      1  C   UNL     1       2.325   5.848  19.699  0.00  0.00    +0.000 C 
ATOM      2  O   UNL     1       1.442   5.302  20.353  0.00  0.00    +0.000 OA
ENDROOT
BRANCH   1   6
ATOM      3  C   UNL     1       4.662   4.882  16.714  0.00  0.00    +0.000 A 
ATOM      4  C   UNL     1       3.788   3.828  16.891  0.00  0.00    +0.000 A 
ATOM      5  C   UNL     1       2.864   4.039  17.957  0.00  0.00    +0.000 A 
ATOM      6  C   UNL     1       3.056   5.252  18.591  0.00  0.00    +0.000 A 
ATOM      7  S   UNL     1       4.368   6.105  17.884  0.00  0.00    +0.000 S 
BRANCH   3  11
ATOM      8  N   UNL     1       7.611   4.404  16.955  0.00  0.00    +0.000 NA
ATOM      9  C   UNL     1       6.992   4.824  15.908  0.00  0.00    +0.000 C 
ATOM     10  N   UNL     1       7.672   5.082  14.765  0.00  0.00    +0.000 N 
ATOM     11  N   UNL     1       5.651   5.041  15.790  0.00  0.00    +0.000 N 
ATOM     12  H   UNL     1       8.606   4.296  16.760  0.00  0.00    +0.000 HD
ATOM     13  H   UNL     1       8.679   5.131  14.872  0.00  0.00    +0.000 HD
ATOM     14  H   UNL     1       7.336   5.876  14.233  0.00  0.00    +0.000 HD
ATOM     15  H   UNL     1       5.334   5.203  14.844  0.00  0.00    +0.000 HD
ENDBRANCH   3  11
ENDBRANCH   1   6
BRANCH   1  16
ATOM     16  O   UNL     1       2.782   7.131  19.919  0.00  0.00    +0.000 OA
BRANCH  16  17
ATOM     17  C   UNL     1       1.915   8.162  19.527  0.00  0.00    +0.000 A 
ATOM     18  C   UNL     1       1.716   8.555  18.251  0.00  0.00    +0.000 A 
ATOM     19  C   UNL     1       0.812   9.648  17.924  0.00  0.00    +0.000 A 
ATOM     20  C   UNL     1       0.103  10.242  18.906  0.00  0.00    +0.000 A 
ATOM     21  N   UNL     1       0.247   9.758  20.216  0.00  0.00    +0.000 N 
ATOM     22  N   UNL     1      -0.443  10.150  21.324  0.00  0.00    +0.000 NA
ATOM     23  C   UNL     1       0.135   9.422  22.283  0.00  0.00    +0.000 A 
ATOM     24  N   UNL     1       1.091   8.543  21.872  0.00  0.00    +0.000 NA
ATOM     25  C   UNL     1       1.141   8.744  20.572  0.00  0.00    +0.000 A 
BRANCH  20  26
ATOM     26  C   UNL     1      -0.777  11.442  18.688  0.00  0.00    +0.000 C 
BRANCH  26  27
ATOM     27  C   UNL     1      -2.194  11.063  18.316  0.00  0.00    +0.000 C 
ATOM     28  O   UNL     1      -2.530   9.922  18.026  0.00  0.00    +0.000 OA
BRANCH  27  29
ATOM     29  O   UNL     1      -3.060  12.105  18.298  0.00  0.00    +0.000 OA
ATOM     30  H   UNL     1      -3.968  11.867  18.005  0.00  0.00    +0.000 HD
ENDBRANCH  27  29
ENDBRANCH  26  27
ENDBRANCH  20  26
ENDBRANCH  16  17
ENDBRANCH   1  16
TORSDOF 7
ENDMDL
MODEL 4
REMARK VINA RESULT:      -7.1      4.939      9.354
REMARK  Name = 
REMARK  7 active torsions:
REMARK  status: ('A' for Active; 'I' for Inactive)
REMARK    1  A    between atoms: N_4  and  C_5
REMARK    2  A    between atoms: C_8  and  C_9
REMARK    3  A    between atoms: C_9  and  O_11
REMARK    4  A    between atoms: O_11  and  C_12
REMARK    5  A    between atoms: C_15  and  C_16
REMARK    6  A    between atoms: C_16  and  C_17
REMARK    7  A    between atoms: C_17  and  O_19
REMARK                            x       y       z     vdW  Elec       q    Type
REMARK                         _______ _______ _______ _____ _____    ______ ____
ROOT
ATOM      1  C   UNL     1       2.452   5.900  19.503  0.00  0.00    +0.000 C 
ATOM      2  O   UNL     1       1.569   5.335  20.140  0.00  0.00    +0.000 OA
ENDROOT
BRANCH   1   6
ATOM      3  C   UNL     1       4.804   5.011  16.506  0.00  0.00    +0.000 A 
ATOM      4  C   UNL     1       4.110   3.860  16.821  0.00  0.00    +0.000 A 
ATOM      5  C   UNL     1       3.202   4.032  17.908  0.00  0.00    +0.000 A 
ATOM      6  C   UNL     1       3.226   5.316  18.419  0.00  0.00    +0.000 A 
ATOM      7  S   UNL     1       4.365   6.284  17.573  0.00  0.00    +0.000 S 
BRANCH   3  11
ATOM      8  N   UNL     1       7.762   4.528  16.504  0.00  0.00    +0.000 NA
ATOM      9  C   UNL     1       7.068   5.007  15.531  0.00  0.00    +0.000 C 
ATOM     10  N   UNL     1       7.664   5.334  14.358  0.00  0.00    +0.000 N 
ATOM     11  N   UNL     1       5.723   5.227  15.523  0.00  0.00    +0.000 N 
ATOM     12  H   UNL     1       8.739   4.434  16.230  0.00  0.00    +0.000 HD
ATOM     13  H   UNL     1       8.676   5.378  14.394  0.00  0.00    +0.000 HD
ATOM     14  H   UNL     1       7.291   6.156  13.900  0.00  0.00    +0.000 HD
ATOM     15  H   UNL     1       5.338   5.443  14.614  0.00  0.00    +0.000 HD
ENDBRANCH   3  11
ENDBRANCH   1   6
BRANCH   1  16
ATOM     16  O   UNL     1       2.866   7.197  19.723  0.00  0.00    +0.000 OA
BRANCH  16  17
ATOM     17  C   UNL     1       1.928   8.196  19.419  0.00  0.00    +0.000 A 
ATOM     18  C   UNL     1       1.603   8.589  18.169  0.00  0.00    +0.000 A 
ATOM     19  C   UNL     1       0.631   9.647  17.934  0.00  0.00    +0.000 A 
ATOM     20  C   UNL     1      -0.011  10.207  18.980  0.00  0.00    +0.000 A 
ATOM     21  N   UNL     1       0.268   9.721  20.267  0.00  0.00    +0.000 N 
ATOM     22  N   UNL     1      -0.336  10.079  21.435  0.00  0.00    +0.000 NA
ATOM     23  C   UNL     1       0.352   9.368  22.333  0.00  0.00    +0.000 A 
ATOM     24  N   UNL     1       1.301   8.530  21.830  0.00  0.00    +0.000 NA
ATOM     25  C   UNL     1       1.228   8.741  20.533  0.00  0.00    +0.000 A 
BRANCH  20  26
ATOM     26  C   UNL     1      -0.952  11.372  18.851  0.00  0.00    +0.000 C 
BRANCH  26  27
ATOM     27  C   UNL     1      -0.225  12.691  18.695  0.00  0.00    +0.000 C 
ATOM     28  O   UNL     1       0.862  12.923  19.206  0.00  0.00    +0.000 OA
BRANCH  27  29
ATOM     29  O   UNL     1      -0.899  13.612  17.965  0.00  0.00    +0.000 OA
ATOM     30  H   UNL     1      -0.826  13.486  16.993  0.00  0.00    +0.000 HD
ENDBRANCH  27  29
ENDBRANCH  26  27
ENDBRANCH  20  26
ENDBRANCH  16  17
ENDBRANCH   1  16
TORSDOF 7
ENDMDL
MODEL 5
REMARK VINA RESULT:      -7.1      4.176      5.529
REMARK  Name = 
REMARK  7 active torsions:
REMARK  status: ('A' for Active; 'I' for Inactive)
REMARK    1  A    between atoms: N_4  and  C_5
REMARK    2  A    between atoms: C_8  and  C_9
REMARK    3  A    between atoms: C_9  and  O_11
REMARK    4  A    between atoms: O_11  and  C_12
REMARK    5  A    between atoms: C_15  and  C_16
REMARK    6  A    between atoms: C_16  and  C_17
REMARK    7  A    between atoms: C_17  and  O_19
REMARK                            x       y       z     vdW  Elec       q    Type
REMARK                         _______ _______ _______ _____ _____    ______ ____
ROOT
ATOM      1  C   UNL     1       2.440   5.973  19.843  0.00  0.00    +0.000 C 
ATOM      2  O   UNL     1       1.603   5.134  20.165  0.00  0.00    +0.000 OA
ENDROOT
BRANCH   1   6
ATOM      3  C   UNL     1       1.343   9.669  19.177  0.00  0.00    +0.000 A 
ATOM      4  C   UNL     1       1.961   9.224  18.026  0.00  0.00    +0.000 A 
ATOM      5  C   UNL     1       2.420   7.877  18.119  0.00  0.00    +0.000 A 
ATOM      6  C   UNL     1       2.156   7.312  19.353  0.00  0.00    +0.000 A 
ATOM      7  S   UNL     1       1.366   8.441  20.379  0.00  0.00    +0.000 S 
BRANCH   3  11
ATOM      8  N   UNL     1      -1.008  10.999  17.879  0.00  0.00    +0.000 NA
ATOM      9  C   UNL     1      -0.302  11.475  18.844  0.00  0.00    +0.000 C 
ATOM     10  N   UNL     1      -0.601  12.681  19.384  0.00  0.00    +0.000 N 
ATOM     11  N   UNL     1       0.767  10.875  19.442  0.00  0.00    +0.000 N 
ATOM     12  H   UNL     1      -1.768  11.637  17.648  0.00  0.00    +0.000 HD
ATOM     13  H   UNL     1      -1.248  13.241  18.842  0.00  0.00    +0.000 HD
ATOM     14  H   UNL     1       0.197  13.238  19.665  0.00  0.00    +0.000 HD
ATOM     15  H   UNL     1       1.081  11.324  20.291  0.00  0.00    +0.000 HD
ENDBRANCH   3  11
ENDBRANCH   1   6
BRANCH   1  16
ATOM     16  O   UNL     1       3.804   5.773  19.885  0.00  0.00    +0.000 OA
BRANCH  16  17
ATOM     17  C   UNL     1       4.374   5.221  18.728  0.00  0.00    +0.000 A 
ATOM     18  C   UNL     1       3.676   4.823  17.642  0.00  0.00    +0.000 A 
ATOM     19  C   UNL     1       4.339   4.241  16.484  0.00  0.00    +0.000 A 
ATOM     20  C   UNL     1       5.684   4.155  16.460  0.00  0.00    +0.000 A 
ATOM     21  N   UNL     1       6.403   4.661  17.555  0.00  0.00    +0.000 N 
ATOM     22  N   UNL     1       7.756   4.758  17.684  0.00  0.00    +0.000 NA
ATOM     23  C   UNL     1       7.882   5.241  18.923  0.00  0.00    +0.000 A 
ATOM     24  N   UNL     1       6.721   5.528  19.574  0.00  0.00    +0.000 NA
ATOM     25  C   UNL     1       5.797   5.182  18.703  0.00  0.00    +0.000 A 
BRANCH  20  26
ATOM     26  C   UNL     1       6.455   3.480  15.360  0.00  0.00    +0.000 C 
BRANCH  26  27
ATOM     27  C   UNL     1       6.772   4.416  14.213  0.00  0.00    +0.000 C 
ATOM     28  O   UNL     1       7.448   5.428  14.340  0.00  0.00    +0.000 OA
BRANCH  27  29
ATOM     29  O   UNL     1       6.213   4.056  13.032  0.00  0.00    +0.000 OA
ATOM     30  H   UNL     1       6.783   3.478  12.478  0.00  0.00    +0.000 HD
ENDBRANCH  27  29
ENDBRANCH  26  27
ENDBRANCH  20  26
ENDBRANCH  16  17
ENDBRANCH   1  16
TORSDOF 7
ENDMDL
MODEL 6
REMARK VINA RESULT:      -7.1      4.212      5.546
REMARK  Name = 
REMARK  7 active torsions:
REMARK  status: ('A' for Active; 'I' for Inactive)
REMARK    1  A    between atoms: N_4  and  C_5
REMARK    2  A    between atoms: C_8  and  C_9
REMARK    3  A    between atoms: C_9  and  O_11
REMARK    4  A    between atoms: O_11  and  C_12
REMARK    5  A    between atoms: C_15  and  C_16
REMARK    6  A    between atoms: C_16  and  C_17
REMARK    7  A    between atoms: C_17  and  O_19
REMARK                            x       y       z     vdW  Elec       q    Type
REMARK                         _______ _______ _______ _____ _____    ______ ____
ROOT
ATOM      1  C   UNL     1       2.472   6.029  19.878  0.00  0.00    +0.000 C 
ATOM      2  O   UNL     1       1.785   5.027  20.051  0.00  0.00    +0.000 OA
ENDROOT
BRANCH   1   6
ATOM      3  C   UNL     1       0.835   9.576  20.095  0.00  0.00    +0.000 A 
ATOM      4  C   UNL     1       1.417   9.483  18.847  0.00  0.00    +0.000 A 
ATOM      5  C   UNL     1       2.060   8.230  18.620  0.00  0.00    +0.000 A 
ATOM      6  C   UNL     1       1.971   7.384  19.709  0.00  0.00    +0.000 A 
ATOM      7  S   UNL     1       1.117   8.138  20.994  0.00  0.00    +0.000 S 
BRANCH   3  11
ATOM      8  N   UNL     1       1.746  12.287  20.991  0.00  0.00    +0.000 NA
ATOM      9  C   UNL     1       0.545  11.829  21.053  0.00  0.00    +0.000 C 
ATOM     10  N   UNL     1      -0.457  12.596  21.546  0.00  0.00    +0.000 N 
ATOM     11  N   UNL     1       0.122  10.599  20.646  0.00  0.00    +0.000 N 
ATOM     12  H   UNL     1       1.778  13.248  21.330  0.00  0.00    +0.000 HD
ATOM     13  H   UNL     1      -0.153  13.426  22.041  0.00  0.00    +0.000 HD
ATOM     14  H   UNL     1      -1.155  12.099  22.086  0.00  0.00    +0.000 HD
ATOM     15  H   UNL     1      -0.882  10.488  20.615  0.00  0.00    +0.000 HD
ENDBRANCH   3  11
ENDBRANCH   1   6
BRANCH   1  16
ATOM     16  O   UNL     1       3.849   6.030  19.803  0.00  0.00    +0.000 OA
BRANCH  16  17
ATOM     17  C   UNL     1       4.397   5.439  18.655  0.00  0.00    +0.000 A 
ATOM     18  C   UNL     1       3.696   5.118  17.547  0.00  0.00    +0.000 A 
ATOM     19  C   UNL     1       4.333   4.489  16.399  0.00  0.00    +0.000 A 
ATOM     20  C   UNL     1       5.665   4.278  16.410  0.00  0.00    +0.000 A 
ATOM     21  N   UNL     1       6.397   4.704  17.530  0.00  0.00    +0.000 N 
ATOM     22  N   UNL     1       7.749   4.673  17.696  0.00  0.00    +0.000 NA
ATOM     23  C   UNL     1       7.885   5.129  18.944  0.00  0.00    +0.000 A 
ATOM     24  N   UNL     1       6.738   5.517  19.568  0.00  0.00    +0.000 NA
ATOM     25  C   UNL     1       5.811   5.267  18.667  0.00  0.00    +0.000 A 
BRANCH  20  26
ATOM     26  C   UNL     1       6.400   3.545  15.322  0.00  0.00    +0.000 C 
BRANCH  26  27
ATOM     27  C   UNL     1       6.831   4.458  14.194  0.00  0.00    +0.000 C 
ATOM     28  O   UNL     1       6.563   4.247  13.019  0.00  0.00    +0.000 OA
BRANCH  27  29
ATOM     29  O   UNL     1       7.572   5.520  14.593  0.00  0.00    +0.000 OA
ATOM     30  H   UNL     1       7.621   5.632  15.568  0.00  0.00    +0.000 HD
ENDBRANCH  27  29
ENDBRANCH  26  27
ENDBRANCH  20  26
ENDBRANCH  16  17
ENDBRANCH   1  16
TORSDOF 7
ENDMDL
MODEL 7
REMARK VINA RESULT:      -7.0      4.141      5.548
REMARK  Name = 
REMARK  7 active torsions:
REMARK  status: ('A' for Active; 'I' for Inactive)
REMARK    1  A    between atoms: N_4  and  C_5
REMARK    2  A    between atoms: C_8  and  C_9
REMARK    3  A    between atoms: C_9  and  O_11
REMARK    4  A    between atoms: O_11  and  C_12
REMARK    5  A    between atoms: C_15  and  C_16
REMARK    6  A    between atoms: C_16  and  C_17
REMARK    7  A    between atoms: C_17  and  O_19
REMARK                            x       y       z     vdW  Elec       q    Type
REMARK                         _______ _______ _______ _____ _____    ______ ____
ROOT
ATOM      1  C   UNL     1       2.477   5.771  19.961  0.00  0.00    +0.000 C 
ATOM      2  O   UNL     1       1.892   4.693  19.911  0.00  0.00    +0.000 OA
ENDROOT
BRANCH   1   6
ATOM      3  C   UNL     1       1.096   9.429  19.833  0.00  0.00    +0.000 A 
ATOM      4  C   UNL     1       0.706   8.899  21.046  0.00  0.00    +0.000 A 
ATOM      5  C   UNL     1       1.142   7.555  21.238  0.00  0.00    +0.000 A 
ATOM      6  C   UNL     1       1.852   7.070  20.156  0.00  0.00    +0.000 A 
ATOM      7  S   UNL     1       1.961   8.258  18.921  0.00  0.00    +0.000 S 
BRANCH   3  11
ATOM      8  N   UNL     1      -0.878  10.353  17.775  0.00  0.00    +0.000 NA
ATOM      9  C   UNL     1      -0.014  11.087  18.384  0.00  0.00    +0.000 C 
ATOM     10  N   UNL     1       0.057  12.416  18.131  0.00  0.00    +0.000 N 
ATOM     11  N   UNL     1       0.885  10.675  19.322  0.00  0.00    +0.000 N 
ATOM     12  H   UNL     1      -1.449  10.921  17.150  0.00  0.00    +0.000 HD
ATOM     13  H   UNL     1      -0.444  12.719  17.305  0.00  0.00    +0.000 HD
ATOM     14  H   UNL     1       0.992  12.807  18.139  0.00  0.00    +0.000 HD
ATOM     15  H   UNL     1       1.358  11.425  19.809  0.00  0.00    +0.000 HD
ENDBRANCH   3  11
ENDBRANCH   1   6
BRANCH   1  16
ATOM     16  O   UNL     1       3.840   5.928  19.825  0.00  0.00    +0.000 OA
BRANCH  16  17
ATOM     17  C   UNL     1       4.406   5.366  18.671  0.00  0.00    +0.000 A 
ATOM     18  C   UNL     1       3.723   5.079  17.543  0.00  0.00    +0.000 A 
ATOM     19  C   UNL     1       4.378   4.478  16.389  0.00  0.00    +0.000 A 
ATOM     20  C   UNL     1       5.709   4.263  16.416  0.00  0.00    +0.000 A 
ATOM     21  N   UNL     1       6.422   4.655  17.560  0.00  0.00    +0.000 N 
ATOM     22  N   UNL     1       7.771   4.616  17.748  0.00  0.00    +0.000 NA
ATOM     23  C   UNL     1       7.888   5.037  19.010  0.00  0.00    +0.000 A 
ATOM     24  N   UNL     1       6.732   5.411  19.625  0.00  0.00    +0.000 NA
ATOM     25  C   UNL     1       5.819   5.190  18.702  0.00  0.00    +0.000 A 
BRANCH  20  26
ATOM     26  C   UNL     1       6.460   3.557  15.321  0.00  0.00    +0.000 C 
BRANCH  26  27
ATOM     27  C   UNL     1       6.898   4.497  14.219  0.00  0.00    +0.000 C 
ATOM     28  O   UNL     1       6.532   4.385  13.057  0.00  0.00    +0.000 OA
BRANCH  27  29
ATOM     29  O   UNL     1       7.764   5.458  14.621  0.00  0.00    +0.000 OA
ATOM     30  H   UNL     1       8.668   5.366  14.247  0.00  0.00    +0.000 HD
ENDBRANCH  27  29
ENDBRANCH  26  27
ENDBRANCH  20  26
ENDBRANCH  16  17
ENDBRANCH   1  16
TORSDOF 7
ENDMDL
MODEL 8
REMARK VINA RESULT:      -7.0      4.970      8.557
REMARK  Name = 
REMARK  7 active torsions:
REMARK  status: ('A' for Active; 'I' for Inactive)
REMARK    1  A    between atoms: N_4  and  C_5
REMARK    2  A    between atoms: C_8  and  C_9
REMARK    3  A    between atoms: C_9  and  O_11
REMARK    4  A    between atoms: O_11  and  C_12
REMARK    5  A    between atoms: C_15  and  C_16
REMARK    6  A    between atoms: C_16  and  C_17
REMARK    7  A    between atoms: C_17  and  O_19
REMARK                            x       y       z     vdW  Elec       q    Type
REMARK                         _______ _______ _______ _____ _____    ______ ____
ROOT
ATOM      1  C   UNL     1       1.743   5.081  20.211  0.00  0.00    +0.000 C 
ATOM      2  O   UNL     1       0.709   4.542  20.594  0.00  0.00    +0.000 OA
ENDROOT
BRANCH   1   6
ATOM      3  C   UNL     1       4.565   4.131  17.673  0.00  0.00    +0.000 A 
ATOM      4  C   UNL     1       3.369   3.748  17.099  0.00  0.00    +0.000 A 
ATOM      5  C   UNL     1       2.236   4.034  17.918  0.00  0.00    +0.000 A 
ATOM      6  C   UNL     1       2.587   4.623  19.118  0.00  0.00    +0.000 A 
ATOM      7  S   UNL     1       4.291   4.803  19.230  0.00  0.00    +0.000 S 
BRANCH   3  11
ATOM      8  N   UNL     1       6.119   6.074  16.002  0.00  0.00    +0.000 NA
ATOM      9  C   UNL     1       6.531   4.928  16.417  0.00  0.00    +0.000 C 
ATOM     10  N   UNL     1       7.782   4.499  16.121  0.00  0.00    +0.000 N 
ATOM     11  N   UNL     1       5.832   4.040  17.180  0.00  0.00    +0.000 N 
ATOM     12  H   UNL     1       6.856   6.549  15.481  0.00  0.00    +0.000 HD
ATOM     13  H   UNL     1       8.252   5.029  15.396  0.00  0.00    +0.000 HD
ATOM     14  H   UNL     1       7.866   3.506  15.942  0.00  0.00    +0.000 HD
ATOM     15  H   UNL     1       6.383   3.276  17.548  0.00  0.00    +0.000 HD
ENDBRANCH   3  11
ENDBRANCH   1   6
BRANCH   1  16
ATOM     16  O   UNL     1       2.285   6.219  20.771  0.00  0.00    +0.000 OA
BRANCH  16  17
ATOM     17  C   UNL     1       1.587   7.410  20.524  0.00  0.00    +0.000 A 
ATOM     18  C   UNL     1       0.699   7.970  21.373  0.00  0.00    +0.000 A 
ATOM     19  C   UNL     1      -0.002   9.201  21.038  0.00  0.00    +0.000 A 
ATOM     20  C   UNL     1       0.286   9.839  19.885  0.00  0.00    +0.000 A 
ATOM     21  N   UNL     1       1.281   9.296  19.056  0.00  0.00    +0.000 N 
ATOM     22  N   UNL     1       1.785   9.831  17.908  0.00  0.00    +0.000 NA
ATOM     23  C   UNL     1       2.638   8.883  17.512  0.00  0.00    +0.000 A 
ATOM     24  N   UNL     1       2.777   7.816  18.347  0.00  0.00    +0.000 NA
ATOM     25  C   UNL     1       1.939   8.092  19.324  0.00  0.00    +0.000 A 
BRANCH  20  26
ATOM     26  C   UNL     1      -0.451  11.056  19.401  0.00  0.00    +0.000 C 
BRANCH  26  27
ATOM     27  C   UNL     1      -1.540  10.718  18.405  0.00  0.00    +0.000 C 
ATOM     28  O   UNL     1      -2.732  10.872  18.636  0.00  0.00    +0.000 OA
BRANCH  27  29
ATOM     29  O   UNL     1      -1.085  10.194  17.241  0.00  0.00    +0.000 OA
ATOM     30  H   UNL     1      -0.618  10.840  16.666  0.00  0.00    +0.000 HD
ENDBRANCH  27  29
ENDBRANCH  26  27
ENDBRANCH  20  26
ENDBRANCH  16  17
ENDBRANCH   1  16
TORSDOF 7
ENDMDL
MODEL 9
REMARK VINA RESULT:      -7.0      4.353      8.981
REMARK  Name = 
REMARK  7 active torsions:
REMARK  status: ('A' for Active; 'I' for Inactive)
REMARK    1  A    between atoms: N_4  and  C_5
REMARK    2  A    between atoms: C_8  and  C_9
REMARK    3  A    between atoms: C_9  and  O_11
REMARK    4  A    between atoms: O_11  and  C_12
REMARK    5  A    between atoms: C_15  and  C_16
REMARK    6  A    between atoms: C_16  and  C_17
REMARK    7  A    between atoms: C_17  and  O_19
REMARK                            x       y       z     vdW  Elec       q    Type
REMARK                         _______ _______ _______ _____ _____    ______ ____
ROOT
ATOM      1  C   UNL     1       2.726   5.448  19.034  0.00  0.00    +0.000 C 
ATOM      2  O   UNL     1       1.820   4.703  18.674  0.00  0.00    +0.000 OA
ENDROOT
BRANCH   1   6
ATOM      3  C   UNL     1       6.067   5.573  17.003  0.00  0.00    +0.000 A 
ATOM      4  C   UNL     1       6.404   5.251  18.302  0.00  0.00    +0.000 A 
ATOM      5  C   UNL     1       5.275   5.168  19.170  0.00  0.00    +0.000 A 
ATOM      6  C   UNL     1       4.087   5.443  18.521  0.00  0.00    +0.000 A 
ATOM      7  S   UNL     1       4.370   5.811  16.868  0.00  0.00    +0.000 S 
BRANCH   3  11
ATOM      8  N   UNL     1       6.422   3.764  14.640  0.00  0.00    +0.000 NA
ATOM      9  C   UNL     1       7.025   4.883  14.838  0.00  0.00    +0.000 C 
ATOM     10  N   UNL     1       7.908   5.358  13.927  0.00  0.00    +0.000 N 
ATOM     11  N   UNL     1       6.867   5.713  15.909  0.00  0.00    +0.000 N 
ATOM     12  H   UNL     1       6.699   3.365  13.744  0.00  0.00    +0.000 HD
ATOM     13  H   UNL     1       8.203   4.685  13.230  0.00  0.00    +0.000 HD
ATOM     14  H   UNL     1       8.711   5.838  14.315  0.00  0.00    +0.000 HD
ATOM     15  H   UNL     1       7.294   6.623  15.802  0.00  0.00    +0.000 HD
ENDBRANCH   3  11
ENDBRANCH   1   6
BRANCH   1  16
ATOM     16  O   UNL     1       2.600   6.418  20.007  0.00  0.00    +0.000 OA
BRANCH  16  17
ATOM     17  C   UNL     1       2.123   7.662  19.568  0.00  0.00    +0.000 A 
ATOM     18  C   UNL     1       2.152   8.088  18.287  0.00  0.00    +0.000 A 
ATOM     19  C   UNL     1       1.654   9.403  17.912  0.00  0.00    +0.000 A 
ATOM     20  C   UNL     1       1.088  10.193  18.847  0.00  0.00    +0.000 A 
ATOM     21  N   UNL     1       0.977   9.699  20.156  0.00  0.00    +0.000 N 
ATOM     22  N   UNL     1       0.358  10.292  21.215  0.00  0.00    +0.000 NA
ATOM     23  C   UNL     1       0.611   9.429  22.203  0.00  0.00    +0.000 A 
ATOM     24  N   UNL     1       1.280   8.296  21.850  0.00  0.00    +0.000 NA
ATOM     25  C   UNL     1       1.488   8.462  20.561  0.00  0.00    +0.000 A 
BRANCH  20  26
ATOM     26  C   UNL     1       0.637  11.603  18.582  0.00  0.00    +0.000 C 
BRANCH  26  27
ATOM     27  C   UNL     1       1.783  12.592  18.600  0.00  0.00    +0.000 C 
ATOM     28  O   UNL     1       2.182  13.139  19.620  0.00  0.00    +0.000 OA
BRANCH  27  29
ATOM     29  O   UNL     1       2.313  12.850  17.380  0.00  0.00    +0.000 OA
ATOM     30  H   UNL     1       2.729  12.070  16.951  0.00  0.00    +0.000 HD
ENDBRANCH  27  29
ENDBRANCH  26  27
ENDBRANCH  20  26
ENDBRANCH  16  17
ENDBRANCH   1  16
TORSDOF 7
ENDMDL
