MODEL 1
REMARK VINA RESULT:      -7.6      0.000      0.000
REMARK  Name = 
REMARK  6 active torsions:
REMARK  status: ('A' for Active; 'I' for Inactive)
REMARK    1  A    between atoms: N_1  and  S_2
REMARK    2  A    between atoms: S_2  and  C_5
REMARK    3  A    between atoms: C_10  and  C_11
REMARK    4  A    between atoms: C_11  and  C_12
REMARK    5  A    between atoms: C_19  and  C_20
REMARK    6  A    between atoms: C_20  and  C_21
REMARK                            x       y       z     vdW  Elec       q    Type
REMARK                         _______ _______ _______ _____ _____    ______ ____
ROOT
ATOM      1  C   UNL     1      -4.039  11.694  18.455  0.00  0.00    +0.000 A 
ATOM      2  C   UNL     1      -4.215  10.767  17.424  0.00  0.00    +0.000 A 
ATOM      3  C   UNL     1      -3.127  10.030  16.951  0.00  0.00    +0.000 A 
ATOM      4  C   UNL     1      -1.881  10.235  17.563  0.00  0.00    +0.000 A 
ATOM      5  N   UNL     1      -0.674   9.623  17.326  0.00  0.00    +0.000 N 
ATOM      6  C   UNL     1       0.302  10.130  18.147  0.00  0.00    +0.000 A 
ATOM      7  C   UNL     1      -0.301  11.028  19.019  0.00  0.00    +0.000 A 
ATOM      8  C   UNL     1      -1.680  11.149  18.602  0.00  0.00    +0.000 A 
ATOM      9  C   UNL     1      -2.776  11.925  19.026  0.00  0.00    +0.000 A 
ATOM     10  H   UNL     1      -0.537   8.892  16.639  0.00  0.00    +0.000 HD
ENDROOT
BRANCH   1  11
ATOM     11  S   UNL     1      -5.452  12.533  19.104  0.00  0.00    +0.000 S 
ATOM     12  O   UNL     1      -6.022  11.720  20.163  0.00  0.00    +0.000 OA
ATOM     13  O   UNL     1      -6.248  13.055  18.015  0.00  0.00    +0.000 OA
BRANCH  11  14
ATOM     14  N   UNL     1      -4.787  13.881  19.851  0.00  0.00    +0.000 NA
ATOM     15  H   UNL     1      -5.204  13.979  20.780  0.00  0.00    +0.000 HD
ATOM     16  H   UNL     1      -4.923  14.708  19.272  0.00  0.00    +0.000 HD
ENDBRANCH  11  14
ENDBRANCH   1  11
BRANCH   6  17
ATOM     17  C   UNL     1       1.733   9.672  18.053  0.00  0.00    +0.000 C 
BRANCH  17  18
ATOM     18  C   UNL     1       1.977   8.334  18.728  0.00  0.00    +0.000 A 
ATOM     19  C   UNL     1       2.520   7.258  18.004  0.00  0.00    +0.000 A 
ATOM     20  C   UNL     1       2.682   6.005  18.600  0.00  0.00    +0.000 A 
ATOM     21  C   UNL     1       2.330   5.823  19.934  0.00  0.00    +0.000 A 
ATOM     22 CL   UNL     1       2.515   4.276  20.666  0.00  0.00    +0.000 Cl
ATOM     23  C   UNL     1       1.826   6.887  20.679  0.00  0.00    +0.000 A 
ATOM     24  C   UNL     1       1.648   8.136  20.078  0.00  0.00    +0.000 A 
ENDBRANCH  17  18
ENDBRANCH   6  17
BRANCH   7  25
ATOM     25  C   UNL     1       0.384  11.757  20.152  0.00  0.00    +0.000 C 
BRANCH  25  26
ATOM     26  C   UNL     1       1.008  13.014  19.570  0.00  0.00    +0.000 A 
ATOM     27  C   UNL     1       0.269  14.209  19.470  0.00  0.00    +0.000 A 
ATOM     28  C   UNL     1       0.834  15.358  18.903  0.00  0.00    +0.000 A 
ATOM     29  C   UNL     1       2.150  15.331  18.451  0.00  0.00    +0.000 A 
ATOM     30 CL   UNL     1       2.835  16.723  17.708  0.00  0.00    +0.000 Cl
ATOM     31  C   UNL     1       2.914  14.177  18.590  0.00  0.00    +0.000 A 
ATOM     32  C   UNL     1       2.347  13.031  19.153  0.00  0.00    +0.000 A 
ENDBRANCH  25  26
ENDBRANCH   7  25
TORSDOF 6
ENDMDL
MODEL 2
REMARK VINA RESULT:      -7.6      3.366      4.734
REMARK  Name = 
REMARK  6 active torsions:
REMARK  status: ('A' for Active; 'I' for Inactive)
REMARK    1  A    between atoms: N_1  and  S_2
REMARK    2  A    between atoms: S_2  and  C_5
REMARK    3  A    between atoms: C_10  and  C_11
REMARK    4  A    between atoms: C_11  and  C_12
REMARK    5  A    between atoms: C_19  and  C_20
REMARK    6  A    between atoms: C_20  and  C_21
REMARK                            x       y       z     vdW  Elec       q    Type
REMARK                         _______ _______ _______ _____ _____    ______ ____
ROOT
ATOM      1  C   UNL     1      -1.119  11.054  22.525  0.00  0.00    +0.000 A 
ATOM      2  C   UNL     1      -0.663  10.187  23.521  0.00  0.00    +0.000 A 
ATOM      3  C   UNL     1       0.234   9.165  23.206  0.00  0.00    +0.000 A 
ATOM      4  C   UNL     1       0.672   9.067  21.876  0.00  0.00    +0.000 A 
ATOM      5  N   UNL     1       1.571   8.195  21.310  0.00  0.00    +0.000 N 
ATOM      6  C   UNL     1       1.708   8.437  19.966  0.00  0.00    +0.000 A 
ATOM      7  C   UNL     1       0.956   9.566  19.659  0.00  0.00    +0.000 A 
ATOM      8  C   UNL     1       0.239   9.926  20.862  0.00  0.00    +0.000 A 
ATOM      9  C   UNL     1      -0.710  10.914  21.188  0.00  0.00    +0.000 A 
ATOM     10  H   UNL     1       2.065   7.478  21.826  0.00  0.00    +0.000 HD
ENDROOT
BRANCH   1  11
ATOM     11  S   UNL     1      -2.170  12.402  22.973  0.00  0.00    +0.000 S 
ATOM     12  O   UNL     1      -1.340  13.482  23.476  0.00  0.00    +0.000 OA
ATOM     13  O   UNL     1      -3.314  11.902  23.703  0.00  0.00    +0.000 OA
BRANCH  11  14
ATOM     14  N   UNL     1      -2.778  12.921  21.499  0.00  0.00    +0.000 NA
ATOM     15  H   UNL     1      -1.999  13.239  20.917  0.00  0.00    +0.000 HD
ATOM     16  H   UNL     1      -3.480  13.645  21.642  0.00  0.00    +0.000 HD
ENDBRANCH  11  14
ENDBRANCH   1  11
BRANCH   6  17
ATOM     17  C   UNL     1       2.591   7.586  19.094  0.00  0.00    +0.000 C 
BRANCH  17  18
ATOM     18  C   UNL     1       2.167   6.129  19.054  0.00  0.00    +0.000 A 
ATOM     19  C   UNL     1       2.138   5.427  17.836  0.00  0.00    +0.000 A 
ATOM     20  C   UNL     1       1.681   4.108  17.781  0.00  0.00    +0.000 A 
ATOM     21  C   UNL     1       1.276   3.468  18.948  0.00  0.00    +0.000 A 
ATOM     22 CL   UNL     1       0.698   1.848  18.881  0.00  0.00    +0.000 Cl
ATOM     23  C   UNL     1       1.332   4.134  20.171  0.00  0.00    +0.000 A 
ATOM     24  C   UNL     1       1.774   5.460  20.223  0.00  0.00    +0.000 A 
ENDBRANCH  17  18
ENDBRANCH   6  17
BRANCH   7  25
ATOM     25  C   UNL     1       0.887  10.242  18.309  0.00  0.00    +0.000 C 
BRANCH  25  26
ATOM     26  C   UNL     1      -0.579  10.503  18.008  0.00  0.00    +0.000 A 
ATOM     27  C   UNL     1      -1.142  11.779  18.203  0.00  0.00    +0.000 A 
ATOM     28  C   UNL     1      -2.501  12.011  17.957  0.00  0.00    +0.000 A 
ATOM     29  C   UNL     1      -3.306  10.975  17.493  0.00  0.00    +0.000 A 
ATOM     30 CL   UNL     1      -4.987  11.237  17.236  0.00  0.00    +0.000 Cl
ATOM     31  C   UNL     1      -2.759   9.720  17.244  0.00  0.00    +0.000 A 
ATOM     32  C   UNL     1      -1.403   9.492  17.493  0.00  0.00    +0.000 A 
ENDBRANCH  25  26
ENDBRANCH   7  25
TORSDOF 6
ENDMDL
MODEL 3
REMARK VINA RESULT:      -7.5      3.253      4.756
REMARK  Name = 
REMARK  6 active torsions:
REMARK  status: ('A' for Active; 'I' for Inactive)
REMARK    1  A    between atoms: N_1  and  S_2
REMARK    2  A    between atoms: S_2  and  C_5
REMARK    3  A    between atoms: C_10  and  C_11
REMARK    4  A    between atoms: C_11  and  C_12
REMARK    5  A    between atoms: C_19  and  C_20
REMARK    6  A    between atoms: C_20  and  C_21
REMARK                            x       y       z     vdW  Elec       q    Type
REMARK                         _______ _______ _______ _____ _____    ______ ____
ROOT
ATOM      1  C   UNL     1      -1.146  11.157  22.383  0.00  0.00    +0.000 A 
ATOM      2  C   UNL     1      -0.772  10.344  23.456  0.00  0.00    +0.000 A 
ATOM      3  C   UNL     1       0.117   9.286  23.259  0.00  0.00    +0.000 A 
ATOM      4  C   UNL     1       0.632   9.096  21.967  0.00  0.00    +0.000 A 
ATOM      5  N   UNL     1       1.542   8.172  21.510  0.00  0.00    +0.000 N 
ATOM      6  C   UNL     1       1.765   8.328  20.165  0.00  0.00    +0.000 A 
ATOM      7  C   UNL     1       1.061   9.452  19.745  0.00  0.00    +0.000 A 
ATOM      8  C   UNL     1       0.282   9.900  20.878  0.00  0.00    +0.000 A 
ATOM      9  C   UNL     1      -0.661  10.926  21.085  0.00  0.00    +0.000 A 
ATOM     10  H   UNL     1       1.986   7.479  22.098  0.00  0.00    +0.000 HD
ENDROOT
BRANCH   1  11
ATOM     11  S   UNL     1      -2.188  12.551  22.684  0.00  0.00    +0.000 S 
ATOM     12  O   UNL     1      -2.859  12.898  21.444  0.00  0.00    +0.000 OA
ATOM     13  O   UNL     1      -1.474  13.528  23.477  0.00  0.00    +0.000 OA
BRANCH  11  14
ATOM     14  N   UNL     1      -3.370  11.934  23.702  0.00  0.00    +0.000 NA
ATOM     15  H   UNL     1      -3.705  11.048  23.316  0.00  0.00    +0.000 HD
ATOM     16  H   UNL     1      -4.119  12.614  23.827  0.00  0.00    +0.000 HD
ENDBRANCH  11  14
ENDBRANCH   1  11
BRANCH   6  17
ATOM     17  C   UNL     1       2.678   7.407  19.402  0.00  0.00    +0.000 C 
BRANCH  17  18
ATOM     18  C   UNL     1       2.116   6.005  19.244  0.00  0.00    +0.000 A 
ATOM     19  C   UNL     1       1.690   5.277  20.369  0.00  0.00    +0.000 A 
ATOM     20  C   UNL     1       1.239   3.961  20.239  0.00  0.00    +0.000 A 
ATOM     21  C   UNL     1       1.181   3.371  18.981  0.00  0.00    +0.000 A 
ATOM     22 CL   UNL     1       0.640   1.745  18.821  0.00  0.00    +0.000 Cl
ATOM     23  C   UNL     1       1.563   4.089  17.849  0.00  0.00    +0.000 A 
ATOM     24  C   UNL     1       2.031   5.400  17.981  0.00  0.00    +0.000 A 
ENDBRANCH  17  18
ENDBRANCH   6  17
BRANCH   7  25
ATOM     25  C   UNL     1       1.089  10.044  18.355  0.00  0.00    +0.000 C 
BRANCH  25  26
ATOM     26  C   UNL     1      -0.337  10.429  17.998  0.00  0.00    +0.000 A 
ATOM     27  C   UNL     1      -0.786  11.756  18.142  0.00  0.00    +0.000 A 
ATOM     28  C   UNL     1      -2.109  12.104  17.844  0.00  0.00    +0.000 A 
ATOM     29  C   UNL     1      -2.991  11.133  17.378  0.00  0.00    +0.000 A 
ATOM     30 CL   UNL     1      -4.631  11.540  17.058  0.00  0.00    +0.000 Cl
ATOM     31  C   UNL     1      -2.553   9.827  17.179  0.00  0.00    +0.000 A 
ATOM     32  C   UNL     1      -1.233   9.484  17.479  0.00  0.00    +0.000 A 
ENDBRANCH  25  26
ENDBRANCH   7  25
TORSDOF 6
ENDMDL
MODEL 4
REMARK VINA RESULT:      -7.5      0.695      1.140
REMARK  Name = 
REMARK  6 active torsions:
REMARK  status: ('A' for Active; 'I' for Inactive)
REMARK    1  A    between atoms: N_1  and  S_2
REMARK    2  A    between atoms: S_2  and  C_5
REMARK    3  A    between atoms: C_10  and  C_11
REMARK    4  A    between atoms: C_11  and  C_12
REMARK    5  A    between atoms: C_19  and  C_20
REMARK    6  A    between atoms: C_20  and  C_21
REMARK                            x       y       z     vdW  Elec       q    Type
REMARK                         _______ _______ _______ _____ _____    ______ ____
ROOT
ATOM      1  C   UNL     1      -4.140  11.563  18.274  0.00  0.00    +0.000 A 
ATOM      2  C   UNL     1      -4.236  10.635  17.235  0.00  0.00    +0.000 A 
ATOM      3  C   UNL     1      -3.104   9.938  16.809  0.00  0.00    +0.000 A 
ATOM      4  C   UNL     1      -1.895  10.184  17.478  0.00  0.00    +0.000 A 
ATOM      5  N   UNL     1      -0.657   9.614  17.294  0.00  0.00    +0.000 N 
ATOM      6  C   UNL     1       0.263  10.151  18.159  0.00  0.00    +0.000 A 
ATOM      7  C   UNL     1      -0.411  11.025  19.006  0.00  0.00    +0.000 A 
ATOM      8  C   UNL     1      -1.773  11.100  18.527  0.00  0.00    +0.000 A 
ATOM      9  C   UNL     1      -2.913  11.836  18.903  0.00  0.00    +0.000 A 
ATOM     10  H   UNL     1      -0.464   8.891  16.612  0.00  0.00    +0.000 HD
ENDROOT
BRANCH   1  11
ATOM     11  S   UNL     1      -5.609  12.351  18.862  0.00  0.00    +0.000 S 
ATOM     12  O   UNL     1      -5.257  13.193  19.991  0.00  0.00    +0.000 OA
ATOM     13  O   UNL     1      -6.685  11.386  18.922  0.00  0.00    +0.000 OA
BRANCH  11  14
ATOM     14  N   UNL     1      -6.014  13.389  17.607  0.00  0.00    +0.000 NA
ATOM     15  H   UNL     1      -5.597  13.036  16.742  0.00  0.00    +0.000 HD
ATOM     16  H   UNL     1      -5.717  14.339  17.825  0.00  0.00    +0.000 HD
ENDBRANCH  11  14
ENDBRANCH   1  11
BRANCH   6  17
ATOM     17  C   UNL     1       1.711   9.743  18.129  0.00  0.00    +0.000 C 
BRANCH  17  18
ATOM     18  C   UNL     1       1.964   8.391  18.773  0.00  0.00    +0.000 A 
ATOM     19  C   UNL     1       2.516   7.337  18.024  0.00  0.00    +0.000 A 
ATOM     20  C   UNL     1       2.686   6.071  18.589  0.00  0.00    +0.000 A 
ATOM     21  C   UNL     1       2.334   5.854  19.918  0.00  0.00    +0.000 A 
ATOM     22 CL   UNL     1       2.528   4.291  20.612  0.00  0.00    +0.000 Cl
ATOM     23  C   UNL     1       1.820   6.896  20.687  0.00  0.00    +0.000 A 
ATOM     24  C   UNL     1       1.634   8.158  20.116  0.00  0.00    +0.000 A 
ENDBRANCH  17  18
ENDBRANCH   6  17
BRANCH   7  25
ATOM     25  C   UNL     1       0.198  11.772  20.170  0.00  0.00    +0.000 C 
BRANCH  25  26
ATOM     26  C   UNL     1       0.786  13.062  19.623  0.00  0.00    +0.000 A 
ATOM     27  C   UNL     1       2.159  13.164  19.329  0.00  0.00    +0.000 A 
ATOM     28  C   UNL     1       2.706  14.363  18.856  0.00  0.00    +0.000 A 
ATOM     29  C   UNL     1       1.882  15.466  18.652  0.00  0.00    +0.000 A 
ATOM     30 CL   UNL     1       2.554  16.957  18.120  0.00  0.00    +0.000 Cl
ATOM     31  C   UNL     1       0.514  15.370  18.886  0.00  0.00    +0.000 A 
ATOM     32  C   UNL     1      -0.028  14.173  19.360  0.00  0.00    +0.000 A 
ENDBRANCH  25  26
ENDBRANCH   7  25
TORSDOF 6
ENDMDL
MODEL 5
REMARK VINA RESULT:      -7.4      0.764      1.176
REMARK  Name = 
REMARK  6 active torsions:
REMARK  status: ('A' for Active; 'I' for Inactive)
REMARK    1  A    between atoms: N_1  and  S_2
REMARK    2  A    between atoms: S_2  and  C_5
REMARK    3  A    between atoms: C_10  and  C_11
REMARK    4  A    between atoms: C_11  and  C_12
REMARK    5  A    between atoms: C_19  and  C_20
REMARK    6  A    between atoms: C_20  and  C_21
REMARK                            x       y       z     vdW  Elec       q    Type
REMARK                         _______ _______ _______ _____ _____    ______ ____
ROOT
ATOM      1  C   UNL     1      -4.310  11.542  18.196  0.00  0.00    +0.000 A 
ATOM      2  C   UNL     1      -4.315  10.666  17.108  0.00  0.00    +0.000 A 
ATOM      3  C   UNL     1      -3.135  10.034  16.712  0.00  0.00    +0.000 A 
ATOM      4  C   UNL     1      -1.974  10.288  17.458  0.00  0.00    +0.000 A 
ATOM      5  N   UNL     1      -0.707   9.774  17.316  0.00  0.00    +0.000 N 
ATOM      6  C   UNL     1       0.144  10.298  18.256  0.00  0.00    +0.000 A 
ATOM      7  C   UNL     1      -0.608  11.102  19.107  0.00  0.00    +0.000 A 
ATOM      8  C   UNL     1      -1.944  11.153  18.557  0.00  0.00    +0.000 A 
ATOM      9  C   UNL     1      -3.131  11.826  18.905  0.00  0.00    +0.000 A 
ATOM     10  H   UNL     1      -0.449   9.094  16.611  0.00  0.00    +0.000 HD
ENDROOT
BRANCH   1  11
ATOM     11  S   UNL     1      -5.838  12.245  18.739  0.00  0.00    +0.000 S 
ATOM     12  O   UNL     1      -5.625  12.857  20.038  0.00  0.00    +0.000 OA
ATOM     13  O   UNL     1      -6.916  11.312  18.491  0.00  0.00    +0.000 OA
BRANCH  11  14
ATOM     14  N   UNL     1      -6.086  13.504  17.659  0.00  0.00    +0.000 NA
ATOM     15  H   UNL     1      -5.179  13.802  17.289  0.00  0.00    +0.000 HD
ATOM     16  H   UNL     1      -6.591  14.264  18.113  0.00  0.00    +0.000 HD
ENDBRANCH  11  14
ENDBRANCH   1  11
BRANCH   6  17
ATOM     17  C   UNL     1       1.606   9.945  18.287  0.00  0.00    +0.000 C 
BRANCH  17  18
ATOM     18  C   UNL     1       1.870   8.536  18.788  0.00  0.00    +0.000 A 
ATOM     19  C   UNL     1       1.564   8.182  20.113  0.00  0.00    +0.000 A 
ATOM     20  C   UNL     1       1.870   6.909  20.602  0.00  0.00    +0.000 A 
ATOM     21  C   UNL     1       2.457   5.969  19.761  0.00  0.00    +0.000 A 
ATOM     22 CL   UNL     1       2.849   4.405  20.365  0.00  0.00    +0.000 Cl
ATOM     23  C   UNL     1       2.734   6.289  18.433  0.00  0.00    +0.000 A 
ATOM     24  C   UNL     1       2.444   7.568  17.950  0.00  0.00    +0.000 A 
ENDBRANCH  17  18
ENDBRANCH   6  17
BRANCH   7  25
ATOM     25  C   UNL     1      -0.092  11.810  20.338  0.00  0.00    +0.000 C 
BRANCH  25  26
ATOM     26  C   UNL     1       0.622  13.067  19.873  0.00  0.00    +0.000 A 
ATOM     27  C   UNL     1      -0.099  14.162  19.359  0.00  0.00    +0.000 A 
ATOM     28  C   UNL     1       0.562  15.307  18.900  0.00  0.00    +0.000 A 
ATOM     29  C   UNL     1       1.951  15.379  18.970  0.00  0.00    +0.000 A 
ATOM     30 CL   UNL     1       2.774  16.761  18.361  0.00  0.00    +0.000 Cl
ATOM     31  C   UNL     1       2.679  14.330  19.523  0.00  0.00    +0.000 A 
ATOM     32  C   UNL     1       2.016  13.188  19.978  0.00  0.00    +0.000 A 
ENDBRANCH  25  26
ENDBRANCH   7  25
TORSDOF 6
ENDMDL
MODEL 6
REMARK VINA RESULT:      -7.4      0.717      1.456
REMARK  Name = 
REMARK  6 active torsions:
REMARK  status: ('A' for Active; 'I' for Inactive)
REMARK    1  A    between atoms: N_1  and  S_2
REMARK    2  A    between atoms: S_2  and  C_5
REMARK    3  A    between atoms: C_10  and  C_11
REMARK    4  A    between atoms: C_11  and  C_12
REMARK    5  A    between atoms: C_19  and  C_20
REMARK    6  A    between atoms: C_20  and  C_21
REMARK                            x       y       z     vdW  Elec       q    Type
REMARK                         _______ _______ _______ _____ _____    ______ ____
ROOT
ATOM      1  C   UNL     1      -4.428  11.538  18.478  0.00  0.00    +0.000 A 
ATOM      2  C   UNL     1      -4.464  10.591  17.451  0.00  0.00    +0.000 A 
ATOM      3  C   UNL     1      -3.284   9.986  17.013  0.00  0.00    +0.000 A 
ATOM      4  C   UNL     1      -2.089  10.341  17.657  0.00  0.00    +0.000 A 
ATOM      5  N   UNL     1      -0.811   9.875  17.457  0.00  0.00    +0.000 N 
ATOM      6  C   UNL     1       0.075  10.498  18.299  0.00  0.00    +0.000 A 
ATOM      7  C   UNL     1      -0.654  11.323  19.148  0.00  0.00    +0.000 A 
ATOM      8  C   UNL     1      -2.026  11.278  18.693  0.00  0.00    +0.000 A 
ATOM      9  C   UNL     1      -3.218  11.920  19.081  0.00  0.00    +0.000 A 
ATOM     10  H   UNL     1      -0.569   9.162  16.780  0.00  0.00    +0.000 HD
ENDROOT
BRANCH   1  11
ATOM     11  S   UNL     1      -5.947  12.207  19.083  0.00  0.00    +0.000 S 
ATOM     12  O   UNL     1      -6.054  11.897  20.497  0.00  0.00    +0.000 OA
ATOM     13  O   UNL     1      -7.011  11.919  18.145  0.00  0.00    +0.000 OA
BRANCH  11  14
ATOM     14  N   UNL     1      -5.704  13.863  18.980  0.00  0.00    +0.000 NA
ATOM     15  H   UNL     1      -6.041  14.188  18.070  0.00  0.00    +0.000 HD
ATOM     16  H   UNL     1      -4.721  14.086  19.135  0.00  0.00    +0.000 HD
ENDBRANCH  11  14
ENDBRANCH   1  11
BRANCH   6  17
ATOM     17  C   UNL     1       1.552  10.212  18.247  0.00  0.00    +0.000 C 
BRANCH  17  18
ATOM     18  C   UNL     1       1.903   8.802  18.685  0.00  0.00    +0.000 A 
ATOM     19  C   UNL     1       1.524   8.334  19.956  0.00  0.00    +0.000 A 
ATOM     20  C   UNL     1       1.905   7.063  20.392  0.00  0.00    +0.000 A 
ATOM     21  C   UNL     1       2.644   6.236  19.552  0.00  0.00    +0.000 A 
ATOM     22 CL   UNL     1       3.128   4.675  20.094  0.00  0.00    +0.000 Cl
ATOM     23  C   UNL     1       2.997   6.667  18.275  0.00  0.00    +0.000 A 
ATOM     24  C   UNL     1       2.630   7.945  17.844  0.00  0.00    +0.000 A 
ENDBRANCH  17  18
ENDBRANCH   6  17
BRANCH   7  25
ATOM     25  C   UNL     1      -0.091  12.134  20.292  0.00  0.00    +0.000 C 
BRANCH  25  26
ATOM     26  C   UNL     1       0.385  13.457  19.718  0.00  0.00    +0.000 A 
ATOM     27  C   UNL     1       1.750  13.685  19.458  0.00  0.00    +0.000 A 
ATOM     28  C   UNL     1       2.192  14.917  18.961  0.00  0.00    +0.000 A 
ATOM     29  C   UNL     1       1.271  15.927  18.697  0.00  0.00    +0.000 A 
ATOM     30 CL   UNL     1       1.810  17.460  18.134  0.00  0.00    +0.000 Cl
ATOM     31  C   UNL     1      -0.088  15.704  18.897  0.00  0.00    +0.000 A 
ATOM     32  C   UNL     1      -0.525  14.475  19.396  0.00  0.00    +0.000 A 
ENDBRANCH  25  26
ENDBRANCH   7  25
TORSDOF 6
ENDMDL
MODEL 7
REMARK VINA RESULT:      -7.3      2.769      3.588
REMARK  Name = 
REMARK  6 active torsions:
REMARK  status: ('A' for Active; 'I' for Inactive)
REMARK    1  A    between atoms: N_1  and  S_2
REMARK    2  A    between atoms: S_2  and  C_5
REMARK    3  A    between atoms: C_10  and  C_11
REMARK    4  A    between atoms: C_11  and  C_12
REMARK    5  A    between atoms: C_19  and  C_20
REMARK    6  A    between atoms: C_20  and  C_21
REMARK                            x       y       z     vdW  Elec       q    Type
REMARK                         _______ _______ _______ _____ _____    ______ ____
ROOT
ATOM      1  C   UNL     1      -1.316  11.049  22.419  0.00  0.00    +0.000 A 
ATOM      2  C   UNL     1      -0.809  10.303  23.485  0.00  0.00    +0.000 A 
ATOM      3  C   UNL     1       0.160   9.324  23.258  0.00  0.00    +0.000 A 
ATOM      4  C   UNL     1       0.615   9.147  21.943  0.00  0.00    +0.000 A 
ATOM      5  N   UNL     1       1.578   8.297  21.453  0.00  0.00    +0.000 N 
ATOM      6  C   UNL     1       1.709   8.436  20.094  0.00  0.00    +0.000 A 
ATOM      7  C   UNL     1       0.883   9.480  19.693  0.00  0.00    +0.000 A 
ATOM      8  C   UNL     1       0.132   9.887  20.859  0.00  0.00    +0.000 A 
ATOM      9  C   UNL     1      -0.887  10.828  21.100  0.00  0.00    +0.000 A 
ATOM     10  H   UNL     1       2.117   7.662  22.029  0.00  0.00    +0.000 HD
ENDROOT
BRANCH   1  11
ATOM     11  S   UNL     1      -2.463  12.352  22.751  0.00  0.00    +0.000 S 
ATOM     12  O   UNL     1      -3.396  11.894  23.764  0.00  0.00    +0.000 OA
ATOM     13  O   UNL     1      -2.902  12.941  21.504  0.00  0.00    +0.000 OA
BRANCH  11  14
ATOM     14  N   UNL     1      -1.510  13.524  23.482  0.00  0.00    +0.000 NA
ATOM     15  H   UNL     1      -1.648  13.473  24.495  0.00  0.00    +0.000 HD
ATOM     16  H   UNL     1      -1.731  14.444  23.104  0.00  0.00    +0.000 HD
ENDBRANCH  11  14
ENDBRANCH   1  11
BRANCH   6  17
ATOM     17  C   UNL     1       2.657   7.580  19.298  0.00  0.00    +0.000 C 
BRANCH  17  18
ATOM     18  C   UNL     1       2.211   6.133  19.193  0.00  0.00    +0.000 A 
ATOM     19  C   UNL     1       2.176   5.486  17.945  0.00  0.00    +0.000 A 
ATOM     20  C   UNL     1       1.700   4.178  17.831  0.00  0.00    +0.000 A 
ATOM     21  C   UNL     1       1.282   3.493  18.967  0.00  0.00    +0.000 A 
ATOM     22 CL   UNL     1       0.680   1.886  18.826  0.00  0.00    +0.000 Cl
ATOM     23  C   UNL     1       1.344   4.103  20.218  0.00  0.00    +0.000 A 
ATOM     24  C   UNL     1       1.805   5.418  20.330  0.00  0.00    +0.000 A 
ENDBRANCH  17  18
ENDBRANCH   6  17
BRANCH   7  25
ATOM     25  C   UNL     1       0.778  10.035  18.291  0.00  0.00    +0.000 C 
BRANCH  25  26
ATOM     26  C   UNL     1       1.125  11.512  18.362  0.00  0.00    +0.000 A 
ATOM     27  C   UNL     1       0.118  12.487  18.491  0.00  0.00    +0.000 A 
ATOM     28  C   UNL     1       0.437  13.851  18.523  0.00  0.00    +0.000 A 
ATOM     29  C   UNL     1       1.768  14.252  18.447  0.00  0.00    +0.000 A 
ATOM     30 CL   UNL     1       2.165  15.925  18.434  0.00  0.00    +0.000 Cl
ATOM     31  C   UNL     1       2.782  13.302  18.372  0.00  0.00    +0.000 A 
ATOM     32  C   UNL     1       2.460  11.943  18.338  0.00  0.00    +0.000 A 
ENDBRANCH  25  26
ENDBRANCH   7  25
TORSDOF 6
ENDMDL
MODEL 8
REMARK VINA RESULT:      -7.3      2.788      3.804
REMARK  Name = 
REMARK  6 active torsions:
REMARK  status: ('A' for Active; 'I' for Inactive)
REMARK    1  A    between atoms: N_1  and  S_2
REMARK    2  A    between atoms: S_2  and  C_5
REMARK    3  A    between atoms: C_10  and  C_11
REMARK    4  A    between atoms: C_11  and  C_12
REMARK    5  A    between atoms: C_19  and  C_20
REMARK    6  A    between atoms: C_20  and  C_21
REMARK                            x       y       z     vdW  Elec       q    Type
REMARK                         _______ _______ _______ _____ _____    ______ ____
ROOT
ATOM      1  C   UNL     1      -1.196  11.035  22.524  0.00  0.00    +0.000 A 
ATOM      2  C   UNL     1      -0.664  10.261  23.558  0.00  0.00    +0.000 A 
ATOM      3  C   UNL     1       0.281   9.272  23.278  0.00  0.00    +0.000 A 
ATOM      4  C   UNL     1       0.687   9.113  21.945  0.00  0.00    +0.000 A 
ATOM      5  N   UNL     1       1.618   8.257  21.405  0.00  0.00    +0.000 N 
ATOM      6  C   UNL     1       1.704   8.420  20.045  0.00  0.00    +0.000 A 
ATOM      7  C   UNL     1       0.880   9.484  19.693  0.00  0.00    +0.000 A 
ATOM      8  C   UNL     1       0.177   9.880  20.893  0.00  0.00    +0.000 A 
ATOM      9  C   UNL     1      -0.817  10.832  21.186  0.00  0.00    +0.000 A 
ATOM     10  H   UNL     1       2.167   7.603  21.949  0.00  0.00    +0.000 HD
ENDROOT
BRANCH   1  11
ATOM     11  S   UNL     1      -2.310  12.348  22.921  0.00  0.00    +0.000 S 
ATOM     12  O   UNL     1      -1.532  13.485  23.379  0.00  0.00    +0.000 OA
ATOM     13  O   UNL     1      -3.430  11.824  23.671  0.00  0.00    +0.000 OA
BRANCH  11  14
ATOM     14  N   UNL     1      -2.941  12.779  21.428  0.00  0.00    +0.000 NA
ATOM     15  H   UNL     1      -2.389  13.555  21.050  0.00  0.00    +0.000 HD
ATOM     16  H   UNL     1      -3.930  13.010  21.516  0.00  0.00    +0.000 HD
ENDBRANCH  11  14
ENDBRANCH   1  11
BRANCH   6  17
ATOM     17  C   UNL     1       2.609   7.566  19.200  0.00  0.00    +0.000 C 
BRANCH  17  18
ATOM     18  C   UNL     1       2.168   6.114  19.131  0.00  0.00    +0.000 A 
ATOM     19  C   UNL     1       2.139   5.436  17.900  0.00  0.00    +0.000 A 
ATOM     20  C   UNL     1       1.668   4.123  17.818  0.00  0.00    +0.000 A 
ATOM     21  C   UNL     1       1.248   3.466  18.971  0.00  0.00    +0.000 A 
ATOM     22 CL   UNL     1       0.652   1.855  18.870  0.00  0.00    +0.000 Cl
ATOM     23  C   UNL     1       1.304   4.109  20.206  0.00  0.00    +0.000 A 
ATOM     24  C   UNL     1       1.760   5.428  20.285  0.00  0.00    +0.000 A 
ENDBRANCH  17  18
ENDBRANCH   6  17
BRANCH   7  25
ATOM     25  C   UNL     1       0.734  10.067  18.306  0.00  0.00    +0.000 C 
BRANCH  25  26
ATOM     26  C   UNL     1       0.955  11.566  18.419  0.00  0.00    +0.000 A 
ATOM     27  C   UNL     1       2.254  12.103  18.492  0.00  0.00    +0.000 A 
ATOM     28  C   UNL     1       2.456  13.481  18.630  0.00  0.00    +0.000 A 
ATOM     29  C   UNL     1       1.361  14.340  18.674  0.00  0.00    +0.000 A 
ATOM     30 CL   UNL     1       1.598  16.029  18.893  0.00  0.00    +0.000 Cl
ATOM     31  C   UNL     1       0.071  13.835  18.550  0.00  0.00    +0.000 A 
ATOM     32  C   UNL     1      -0.127  12.459  18.415  0.00  0.00    +0.000 A 
ENDBRANCH  25  26
ENDBRANCH   7  25
TORSDOF 6
ENDMDL
MODEL 9
REMARK VINA RESULT:      -7.3      2.766      3.687
REMARK  Name = 
REMARK  6 active torsions:
REMARK  status: ('A' for Active; 'I' for Inactive)
REMARK    1  A    between atoms: N_1  and  S_2
REMARK    2  A    between atoms: S_2  and  C_5
REMARK    3  A    between atoms: C_10  and  C_11
REMARK    4  A    between atoms: C_11  and  C_12
REMARK    5  A    between atoms: C_19  and  C_20
REMARK    6  A    between atoms: C_20  and  C_21
REMARK                            x       y       z     vdW  Elec       q    Type
REMARK                         _______ _______ _______ _____ _____    ______ ____
ROOT
ATOM      1  C   UNL     1      -4.599  11.567  17.980  0.00  0.00    +0.000 A 
ATOM      2  C   UNL     1      -4.497  10.415  17.196  0.00  0.00    +0.000 A 
ATOM      3  C   UNL     1      -3.258   9.798  17.013  0.00  0.00    +0.000 A 
ATOM      4  C   UNL     1      -2.147  10.358  17.662  0.00  0.00    +0.000 A 
ATOM      5  N   UNL     1      -0.839   9.936  17.687  0.00  0.00    +0.000 N 
ATOM      6  C   UNL     1      -0.065  10.783  18.440  0.00  0.00    +0.000 A 
ATOM      7  C   UNL     1      -0.906  11.732  19.011  0.00  0.00    +0.000 A 
ATOM      8  C   UNL     1      -2.223  11.505  18.459  0.00  0.00    +0.000 A 
ATOM      9  C   UNL     1      -3.470  12.145  18.584  0.00  0.00    +0.000 A 
ATOM     10  H   UNL     1      -0.504   9.106  17.215  0.00  0.00    +0.000 HD
ENDROOT
BRANCH   1  11
ATOM     11  S   UNL     1      -6.196  12.263  18.279  0.00  0.00    +0.000 S 
ATOM     12  O   UNL     1      -6.666  12.877  17.051  0.00  0.00    +0.000 OA
ATOM     13  O   UNL     1      -6.187  12.968  19.543  0.00  0.00    +0.000 OA
BRANCH  11  14
ATOM     14  N   UNL     1      -7.160  10.914  18.532  0.00  0.00    +0.000 NA
ATOM     15  H   UNL     1      -7.563  10.628  17.636  0.00  0.00    +0.000 HD
ATOM     16  H   UNL     1      -7.871  11.115  19.234  0.00  0.00    +0.000 HD
ENDBRANCH  11  14
ENDBRANCH   1  11
BRANCH   6  17
ATOM     17  C   UNL     1       1.419  10.581  18.585  0.00  0.00    +0.000 C 
BRANCH  17  18
ATOM     18  C   UNL     1       1.802   9.138  18.860  0.00  0.00    +0.000 A 
ATOM     19  C   UNL     1       1.475   8.535  20.088  0.00  0.00    +0.000 A 
ATOM     20  C   UNL     1       1.886   7.230  20.375  0.00  0.00    +0.000 A 
ATOM     21  C   UNL     1       2.602   6.507  19.426  0.00  0.00    +0.000 A 
ATOM     22 CL   UNL     1       3.123   4.905  19.785  0.00  0.00    +0.000 Cl
ATOM     23  C   UNL     1       2.903   7.074  18.190  0.00  0.00    +0.000 A 
ATOM     24  C   UNL     1       2.507   8.385  17.909  0.00  0.00    +0.000 A 
ENDBRANCH  17  18
ENDBRANCH   6  17
BRANCH   7  25
ATOM     25  C   UNL     1      -0.490  12.810  19.985  0.00  0.00    +0.000 C 
BRANCH  25  26
ATOM     26  C   UNL     1      -1.398  12.699  21.198  0.00  0.00    +0.000 A 
ATOM     27  C   UNL     1      -1.250  11.645  22.120  0.00  0.00    +0.000 A 
ATOM     28  C   UNL     1      -2.108  11.524  23.220  0.00  0.00    +0.000 A 
ATOM     29  C   UNL     1      -3.110  12.469  23.421  0.00  0.00    +0.000 A 
ATOM     30 CL   UNL     1      -4.201  12.301  24.741  0.00  0.00    +0.000 Cl
ATOM     31  C   UNL     1      -3.240  13.548  22.552  0.00  0.00    +0.000 A 
ATOM     32  C   UNL     1      -2.384  13.663  21.455  0.00  0.00    +0.000 A 
ENDBRANCH  25  26
ENDBRANCH   7  25
TORSDOF 6
ENDMDL
