MODEL 1
REMARK VINA RESULT:      -7.1      0.000      0.000
REMARK  Name = 
REMARK  11 active torsions:
REMARK  status: ('A' for Active; 'I' for Inactive)
REMARK    1  A    between atoms: C_1  and  C_2
REMARK    2  A    between atoms: C_2  and  C_3
REMARK    3  A    between atoms: C_2  and  C_4
REMARK    4  A    between atoms: C_4  and  C_5
REMARK    5  A    between atoms: C_5  and  N_6
REMARK    6  A    between atoms: C_5  and  C_7
REMARK    7  A    between atoms: C_7  and  N_8
REMARK    8  A    between atoms: C_13  and  C_14
REMARK    9  A    between atoms: C_14  and  C_15
REMARK   10  A    between atoms: C_15  and  C_16
REMARK   11  A    between atoms: C_15  and  C_17
REMARK                            x       y       z     vdW  Elec       q    Type
REMARK                         _______ _______ _______ _____ _____    ______ ____
ROOT
ATOM      1  N   UNL     1       5.862   6.287  16.303  0.00  0.00    +0.000 NA
ATOM      2  C   UNL     1       7.211   5.937  16.814  0.00  0.00    +0.000 C 
ATOM      3  C   UNL     1       7.306   4.637  17.628  0.00  0.00    +0.000 C 
ATOM      4  O   UNL     1       8.378   4.059  17.804  0.00  0.00    +0.000 OA
ATOM      5  N   UNL     1       6.194   4.198  18.295  0.00  0.00    +0.000 N 
ATOM      6  C   UNL     1       4.846   4.576  17.919  0.00  0.00    +0.000 C 
ATOM      7  C   UNL     1       4.841   6.004  17.321  0.00  0.00    +0.000 C 
ATOM      8  H   UNL     1       6.343   3.360  18.843  0.00  0.00    +0.000 HD
ENDROOT
BRANCH   1   9
ATOM      9  C   UNL     1       5.629   5.759  14.949  0.00  0.00    +0.000 C 
BRANCH   9  10
ATOM     10  C   UNL     1       6.745   4.808  14.413  0.00  0.00    +0.000 C 
BRANCH  10  11
ATOM     11  N   UNL     1       7.624   5.526  13.477  0.00  0.00    +0.000 NA
ATOM     12  H   UNL     1       8.554   5.624  13.884  0.00  0.00    +0.000 HD
ATOM     13  H   UNL     1       7.275   6.475  13.350  0.00  0.00    +0.000 HD
ENDBRANCH  10  11
BRANCH  10  14
ATOM     14  C   UNL     1       6.120   3.556  13.757  0.00  0.00    +0.000 C 
BRANCH  14  16
ATOM     15  C   UNL     1       6.944   2.470  11.600  0.00  0.00    +0.000 C 
ATOM     16  C   UNL     1       6.058   3.553  12.215  0.00  0.00    +0.000 C 
ATOM     17  C   UNL     1       4.608   3.339  11.766  0.00  0.00    +0.000 C 
ENDBRANCH  14  16
ENDBRANCH  10  14
ENDBRANCH   9  10
ENDBRANCH   1   9
BRANCH   6  18
ATOM     18  C   UNL     1       4.218   3.515  16.989  0.00  0.00    +0.000 C 
BRANCH  18  19
ATOM     19  C   UNL     1       2.911   2.868  17.498  0.00  0.00    +0.000 C 
ATOM     20  C   UNL     1       3.140   1.893  18.652  0.00  0.00    +0.000 C 
ATOM     21  C   UNL     1       1.938   3.970  17.933  0.00  0.00    +0.000 C 
ENDBRANCH  18  19
ENDBRANCH   6  18
TORSDOF 7
ENDMDL
MODEL 2
REMARK VINA RESULT:      -6.9      1.229      1.502
REMARK  Name = 
REMARK  11 active torsions:
REMARK  status: ('A' for Active; 'I' for Inactive)
REMARK    1  A    between atoms: C_1  and  C_2
REMARK    2  A    between atoms: C_2  and  C_3
REMARK    3  A    between atoms: C_2  and  C_4
REMARK    4  A    between atoms: C_4  and  C_5
REMARK    5  A    between atoms: C_5  and  N_6
REMARK    6  A    between atoms: C_5  and  C_7
REMARK    7  A    between atoms: C_7  and  N_8
REMARK    8  A    between atoms: C_13  and  C_14
REMARK    9  A    between atoms: C_14  and  C_15
REMARK   10  A    between atoms: C_15  and  C_16
REMARK   11  A    between atoms: C_15  and  C_17
REMARK                            x       y       z     vdW  Elec       q    Type
REMARK                         _______ _______ _______ _____ _____    ______ ____
ROOT
ATOM      1  N   UNL     1       6.330   5.469  16.292  0.00  0.00    +0.000 NA
ATOM      2  C   UNL     1       7.039   5.579  17.590  0.00  0.00    +0.000 C 
ATOM      3  C   UNL     1       6.197   5.299  18.844  0.00  0.00    +0.000 C 
ATOM      4  O   UNL     1       6.716   5.015  19.924  0.00  0.00    +0.000 OA
ATOM      5  N   UNL     1       4.847   5.518  18.791  0.00  0.00    +0.000 N 
ATOM      6  C   UNL     1       4.097   5.526  17.550  0.00  0.00    +0.000 C 
ATOM      7  C   UNL     1       4.984   6.050  16.395  0.00  0.00    +0.000 C 
ATOM      8  H   UNL     1       4.365   5.353  19.665  0.00  0.00    +0.000 HD
ENDROOT
BRANCH   1   9
ATOM      9  C   UNL     1       6.438   4.120  15.714  0.00  0.00    +0.000 C 
BRANCH   9  10
ATOM     10  C   UNL     1       6.681   4.081  14.173  0.00  0.00    +0.000 C 
BRANCH  10  11
ATOM     11  N   UNL     1       7.313   5.330  13.722  0.00  0.00    +0.000 NA
ATOM     12  H   UNL     1       6.603   5.963  13.356  0.00  0.00    +0.000 HD
ATOM     13  H   UNL     1       7.934   5.128  12.939  0.00  0.00    +0.000 HD
ENDBRANCH  10  11
BRANCH  10  14
ATOM     14  C   UNL     1       5.358   3.811  13.422  0.00  0.00    +0.000 C 
BRANCH  14  16
ATOM     15  C   UNL     1       6.246   2.113  11.738  0.00  0.00    +0.000 C 
ATOM     16  C   UNL     1       5.486   3.425  11.934  0.00  0.00    +0.000 C 
ATOM     17  C   UNL     1       4.087   3.298  11.320  0.00  0.00    +0.000 C 
ENDBRANCH  14  16
ENDBRANCH  10  14
ENDBRANCH   9  10
ENDBRANCH   1   9
BRANCH   6  18
ATOM     18  C   UNL     1       3.479   4.139  17.274  0.00  0.00    +0.000 C 
BRANCH  18  19
ATOM     19  C   UNL     1       2.916   3.399  18.508  0.00  0.00    +0.000 C 
ATOM     20  C   UNL     1       1.403   3.547  18.652  0.00  0.00    +0.000 C 
ATOM     21  C   UNL     1       3.287   1.914  18.419  0.00  0.00    +0.000 C 
ENDBRANCH  18  19
ENDBRANCH   6  18
TORSDOF 7
ENDMDL
MODEL 3
REMARK VINA RESULT:      -6.8      1.871      5.702
REMARK  Name = 
REMARK  11 active torsions:
REMARK  status: ('A' for Active; 'I' for Inactive)
REMARK    1  A    between atoms: C_1  and  C_2
REMARK    2  A    between atoms: C_2  and  C_3
REMARK    3  A    between atoms: C_2  and  C_4
REMARK    4  A    between atoms: C_4  and  C_5
REMARK    5  A    between atoms: C_5  and  N_6
REMARK    6  A    between atoms: C_5  and  C_7
REMARK    7  A    between atoms: C_7  and  N_8
REMARK    8  A    between atoms: C_13  and  C_14
REMARK    9  A    between atoms: C_14  and  C_15
REMARK   10  A    between atoms: C_15  and  C_16
REMARK   11  A    between atoms: C_15  and  C_17
REMARK                            x       y       z     vdW  Elec       q    Type
REMARK                         _______ _______ _______ _____ _____    ______ ____
ROOT
ATOM      1  N   UNL     1       5.685   4.511  18.004  0.00  0.00    +0.000 NA
ATOM      2  C   UNL     1       4.944   5.752  18.339  0.00  0.00    +0.000 C 
ATOM      3  C   UNL     1       4.605   6.674  17.157  0.00  0.00    +0.000 C 
ATOM      4  O   UNL     1       3.719   7.525  17.232  0.00  0.00    +0.000 OA
ATOM      5  N   UNL     1       5.410   6.645  16.050  0.00  0.00    +0.000 N 
ATOM      6  C   UNL     1       6.242   5.507  15.708  0.00  0.00    +0.000 C 
ATOM      7  C   UNL     1       6.717   4.790  16.994  0.00  0.00    +0.000 C 
ATOM      8  H   UNL     1       5.150   7.308  15.331  0.00  0.00    +0.000 HD
ENDROOT
BRANCH   1   9
ATOM      9  C   UNL     1       4.782   3.378  17.749  0.00  0.00    +0.000 C 
BRANCH   9  10
ATOM     10  C   UNL     1       3.999   2.866  18.998  0.00  0.00    +0.000 C 
BRANCH  10  11
ATOM     11  N   UNL     1       4.860   2.011  19.829  0.00  0.00    +0.000 NA
ATOM     12  H   UNL     1       5.808   2.009  19.455  0.00  0.00    +0.000 HD
ATOM     13  H   UNL     1       4.536   1.047  19.766  0.00  0.00    +0.000 HD
ENDBRANCH  10  11
BRANCH  10  14
ATOM     14  C   UNL     1       2.712   2.127  18.566  0.00  0.00    +0.000 C 
BRANCH  14  16
ATOM     15  C   UNL     1       1.094   3.287  20.161  0.00  0.00    +0.000 C 
ATOM     16  C   UNL     1       1.393   2.914  18.709  0.00  0.00    +0.000 C 
ATOM     17  C   UNL     1       1.470   4.190  17.862  0.00  0.00    +0.000 C 
ENDBRANCH  14  16
ENDBRANCH  10  14
ENDBRANCH   9  10
ENDBRANCH   1   9
BRANCH   6  18
ATOM     18  C   UNL     1       5.515   4.576  14.713  0.00  0.00    +0.000 C 
BRANCH  18  19
ATOM     19  C   UNL     1       6.405   3.931  13.627  0.00  0.00    +0.000 C 
ATOM     20  C   UNL     1       5.606   3.414  12.433  0.00  0.00    +0.000 C 
ATOM     21  C   UNL     1       7.445   4.955  13.155  0.00  0.00    +0.000 C 
ENDBRANCH  18  19
ENDBRANCH   6  18
TORSDOF 7
ENDMDL
MODEL 4
REMARK VINA RESULT:      -6.7      0.889      1.528
REMARK  Name = 
REMARK  11 active torsions:
REMARK  status: ('A' for Active; 'I' for Inactive)
REMARK    1  A    between atoms: C_1  and  C_2
REMARK    2  A    between atoms: C_2  and  C_3
REMARK    3  A    between atoms: C_2  and  C_4
REMARK    4  A    between atoms: C_4  and  C_5
REMARK    5  A    between atoms: C_5  and  N_6
REMARK    6  A    between atoms: C_5  and  C_7
REMARK    7  A    between atoms: C_7  and  N_8
REMARK    8  A    between atoms: C_13  and  C_14
REMARK    9  A    between atoms: C_14  and  C_15
REMARK   10  A    between atoms: C_15  and  C_16
REMARK   11  A    between atoms: C_15  and  C_17
REMARK                            x       y       z     vdW  Elec       q    Type
REMARK                         _______ _______ _______ _____ _____    ______ ____
ROOT
ATOM      1  N   UNL     1       6.268   5.738  15.395  0.00  0.00    +0.000 NA
ATOM      2  C   UNL     1       7.371   5.588  16.375  0.00  0.00    +0.000 C 
ATOM      3  C   UNL     1       6.985   4.995  17.739  0.00  0.00    +0.000 C 
ATOM      4  O   UNL     1       7.823   4.501  18.493  0.00  0.00    +0.000 OA
ATOM      5  N   UNL     1       5.701   5.156  18.185  0.00  0.00    +0.000 N 
ATOM      6  C   UNL     1       4.582   5.406  17.297  0.00  0.00    +0.000 C 
ATOM      7  C   UNL     1       5.051   6.217  16.065  0.00  0.00    +0.000 C 
ATOM      8  H   UNL     1       5.532   4.777  19.107  0.00  0.00    +0.000 HD
ENDROOT
BRANCH   1   9
ATOM      9  C   UNL     1       6.138   4.559  14.524  0.00  0.00    +0.000 C 
BRANCH   9  10
ATOM     10  C   UNL     1       7.253   4.414  13.442  0.00  0.00    +0.000 C 
BRANCH  10  11
ATOM     11  N   UNL     1       8.043   5.651  13.350  0.00  0.00    +0.000 NA
ATOM     12  H   UNL     1       8.316   5.815  12.382  0.00  0.00    +0.000 HD
ATOM     13  H   UNL     1       8.913   5.533  13.867  0.00  0.00    +0.000 HD
ENDBRANCH  10  11
BRANCH  10  14
ATOM     14  C   UNL     1       6.637   4.031  12.077  0.00  0.00    +0.000 C 
BRANCH  14  16
ATOM     15  C   UNL     1       4.270   3.321  11.446  0.00  0.00    +0.000 C 
ATOM     16  C   UNL     1       5.587   2.900  12.096  0.00  0.00    +0.000 C 
ATOM     17  C   UNL     1       6.147   1.675  11.363  0.00  0.00    +0.000 C 
ENDBRANCH  14  16
ENDBRANCH  10  14
ENDBRANCH   9  10
ENDBRANCH   1   9
BRANCH   6  18
ATOM     18  C   UNL     1       3.867   4.087  16.933  0.00  0.00    +0.000 C 
BRANCH  18  19
ATOM     19  C   UNL     1       2.815   3.592  17.952  0.00  0.00    +0.000 C 
ATOM     20  C   UNL     1       1.454   4.261  17.775  0.00  0.00    +0.000 C 
ATOM     21  C   UNL     1       2.669   2.071  17.826  0.00  0.00    +0.000 C 
ENDBRANCH  18  19
ENDBRANCH   6  18
TORSDOF 7
ENDMDL
MODEL 5
REMARK VINA RESULT:      -6.6      1.373      1.755
REMARK  Name = 
REMARK  11 active torsions:
REMARK  status: ('A' for Active; 'I' for Inactive)
REMARK    1  A    between atoms: C_1  and  C_2
REMARK    2  A    between atoms: C_2  and  C_3
REMARK    3  A    between atoms: C_2  and  C_4
REMARK    4  A    between atoms: C_4  and  C_5
REMARK    5  A    between atoms: C_5  and  N_6
REMARK    6  A    between atoms: C_5  and  C_7
REMARK    7  A    between atoms: C_7  and  N_8
REMARK    8  A    between atoms: C_13  and  C_14
REMARK    9  A    between atoms: C_14  and  C_15
REMARK   10  A    between atoms: C_15  and  C_16
REMARK   11  A    between atoms: C_15  and  C_17
REMARK                            x       y       z     vdW  Elec       q    Type
REMARK                         _______ _______ _______ _____ _____    ______ ____
ROOT
ATOM      1  N   UNL     1       5.971   5.580  16.598  0.00  0.00    +0.000 NA
ATOM      2  C   UNL     1       6.848   5.675  17.791  0.00  0.00    +0.000 C 
ATOM      3  C   UNL     1       6.207   5.281  19.132  0.00  0.00    +0.000 C 
ATOM      4  O   UNL     1       6.887   4.980  20.112  0.00  0.00    +0.000 OA
ATOM      5  N   UNL     1       4.852   5.414  19.275  0.00  0.00    +0.000 N 
ATOM      6  C   UNL     1       3.937   5.431  18.151  0.00  0.00    +0.000 C 
ATOM      7  C   UNL     1       4.622   6.067  16.917  0.00  0.00    +0.000 C 
ATOM      8  H   UNL     1       4.507   5.176  20.196  0.00  0.00    +0.000 HD
ENDROOT
BRANCH   1   9
ATOM      9  C   UNL     1       6.076   4.269  15.937  0.00  0.00    +0.000 C 
BRANCH   9  10
ATOM     10  C   UNL     1       6.681   4.305  14.499  0.00  0.00    +0.000 C 
BRANCH  10  11
ATOM     11  N   UNL     1       7.532   5.492  14.329  0.00  0.00    +0.000 NA
ATOM     12  H   UNL     1       8.510   5.237  14.458  0.00  0.00    +0.000 HD
ATOM     13  H   UNL     1       7.321   6.165  15.065  0.00  0.00    +0.000 HD
ENDBRANCH  10  11
BRANCH  10  14
ATOM     14  C   UNL     1       5.558   4.254  13.437  0.00  0.00    +0.000 C 
BRANCH  14  16
ATOM     15  C   UNL     1       4.481   3.128  11.418  0.00  0.00    +0.000 C 
ATOM     16  C   UNL     1       5.647   3.111  12.406  0.00  0.00    +0.000 C 
ATOM     17  C   UNL     1       6.968   3.224  11.635  0.00  0.00    +0.000 C 
ENDBRANCH  14  16
ENDBRANCH  10  14
ENDBRANCH   9  10
ENDBRANCH   1   9
BRANCH   6  18
ATOM     18  C   UNL     1       3.369   4.021  17.885  0.00  0.00    +0.000 C 
BRANCH  18  19
ATOM     19  C   UNL     1       3.364   3.061  19.096  0.00  0.00    +0.000 C 
ATOM     20  C   UNL     1       2.055   3.102  19.882  0.00  0.00    +0.000 C 
ATOM     21  C   UNL     1       3.634   1.632  18.608  0.00  0.00    +0.000 C 
ENDBRANCH  18  19
ENDBRANCH   6  18
TORSDOF 7
ENDMDL
MODEL 6
REMARK VINA RESULT:      -6.6      2.403      5.901
REMARK  Name = 
REMARK  11 active torsions:
REMARK  status: ('A' for Active; 'I' for Inactive)
REMARK    1  A    between atoms: C_1  and  C_2
REMARK    2  A    between atoms: C_2  and  C_3
REMARK    3  A    between atoms: C_2  and  C_4
REMARK    4  A    between atoms: C_4  and  C_5
REMARK    5  A    between atoms: C_5  and  N_6
REMARK    6  A    between atoms: C_5  and  C_7
REMARK    7  A    between atoms: C_7  and  N_8
REMARK    8  A    between atoms: C_13  and  C_14
REMARK    9  A    between atoms: C_14  and  C_15
REMARK   10  A    between atoms: C_15  and  C_16
REMARK   11  A    between atoms: C_15  and  C_17
REMARK                            x       y       z     vdW  Elec       q    Type
REMARK                         _______ _______ _______ _____ _____    ______ ____
ROOT
ATOM      1  N   UNL     1       4.238   4.166  17.525  0.00  0.00    +0.000 NA
ATOM      2  C   UNL     1       4.988   3.632  16.362  0.00  0.00    +0.000 C 
ATOM      3  C   UNL     1       5.956   4.610  15.678  0.00  0.00    +0.000 C 
ATOM      4  O   UNL     1       6.871   4.218  14.955  0.00  0.00    +0.000 OA
ATOM      5  N   UNL     1       5.700   5.953  15.759  0.00  0.00    +0.000 N 
ATOM      6  C   UNL     1       4.891   6.540  16.810  0.00  0.00    +0.000 C 
ATOM      7  C   UNL     1       3.796   5.542  17.259  0.00  0.00    +0.000 C 
ATOM      8  H   UNL     1       6.355   6.531  15.251  0.00  0.00    +0.000 HD
ENDROOT
BRANCH   1   9
ATOM      9  C   UNL     1       4.936   3.916  18.796  0.00  0.00    +0.000 C 
BRANCH   9  10
ATOM     10  C   UNL     1       4.240   2.884  19.737  0.00  0.00    +0.000 C 
BRANCH  10  11
ATOM     11  N   UNL     1       5.179   1.815  20.110  0.00  0.00    +0.000 NA
ATOM     12  H   UNL     1       5.647   1.460  19.277  0.00  0.00    +0.000 HD
ATOM     13  H   UNL     1       4.656   1.027  20.491  0.00  0.00    +0.000 HD
ENDBRANCH  10  11
BRANCH  10  14
ATOM     14  C   UNL     1       2.967   2.314  19.070  0.00  0.00    +0.000 C 
BRANCH  14  16
ATOM     15  C   UNL     1       1.658   3.880  20.600  0.00  0.00    +0.000 C 
ATOM     16  C   UNL     1       1.637   2.573  19.807  0.00  0.00    +0.000 C 
ATOM     17  C   UNL     1       0.492   2.615  18.788  0.00  0.00    +0.000 C 
ENDBRANCH  14  16
ENDBRANCH  10  14
ENDBRANCH   9  10
ENDBRANCH   1   9
BRANCH   6  18
ATOM     18  C   UNL     1       5.779   7.045  17.967  0.00  0.00    +0.000 C 
BRANCH  18  19
ATOM     19  C   UNL     1       7.304   6.967  17.725  0.00  0.00    +0.000 C 
ATOM     20  C   UNL     1       7.971   8.341  17.691  0.00  0.00    +0.000 C 
ATOM     21  C   UNL     1       7.944   6.103  18.818  0.00  0.00    +0.000 C 
ENDBRANCH  18  19
ENDBRANCH   6  18
TORSDOF 7
ENDMDL
MODEL 7
REMARK VINA RESULT:      -6.6      2.282      6.137
REMARK  Name = 
REMARK  11 active torsions:
REMARK  status: ('A' for Active; 'I' for Inactive)
REMARK    1  A    between atoms: C_1  and  C_2
REMARK    2  A    between atoms: C_2  and  C_3
REMARK    3  A    between atoms: C_2  and  C_4
REMARK    4  A    between atoms: C_4  and  C_5
REMARK    5  A    between atoms: C_5  and  N_6
REMARK    6  A    between atoms: C_5  and  C_7
REMARK    7  A    between atoms: C_7  and  N_8
REMARK    8  A    between atoms: C_13  and  C_14
REMARK    9  A    between atoms: C_14  and  C_15
REMARK   10  A    between atoms: C_15  and  C_16
REMARK   11  A    between atoms: C_15  and  C_17
REMARK                            x       y       z     vdW  Elec       q    Type
REMARK                         _______ _______ _______ _____ _____    ______ ____
ROOT
ATOM      1  N   UNL     1       4.622   4.279  18.667  0.00  0.00    +0.000 NA
ATOM      2  C   UNL     1       4.048   5.647  18.679  0.00  0.00    +0.000 C 
ATOM      3  C   UNL     1       4.340   6.512  17.443  0.00  0.00    +0.000 C 
ATOM      4  O   UNL     1       3.659   7.499  17.165  0.00  0.00    +0.000 OA
ATOM      5  N   UNL     1       5.476   6.262  16.720  0.00  0.00    +0.000 N 
ATOM      6  C   UNL     1       6.154   4.981  16.734  0.00  0.00    +0.000 C 
ATOM      7  C   UNL     1       5.985   4.304  18.116  0.00  0.00    +0.000 C 
ATOM      8  H   UNL     1       5.623   6.897  15.947  0.00  0.00    +0.000 HD
ENDROOT
BRANCH   1   9
ATOM      9  C   UNL     1       3.687   3.291  18.108  0.00  0.00    +0.000 C 
BRANCH   9  10
ATOM     10  C   UNL     1       3.363   2.087  19.047  0.00  0.00    +0.000 C 
BRANCH  10  11
ATOM     11  N   UNL     1       3.880   0.835  18.474  0.00  0.00    +0.000 NA
ATOM     12  H   UNL     1       3.583   0.751  17.502  0.00  0.00    +0.000 HD
ATOM     13  H   UNL     1       3.460   0.044  18.961  0.00  0.00    +0.000 HD
ENDBRANCH  10  11
BRANCH  10  14
ATOM     14  C   UNL     1       1.843   2.003  19.316  0.00  0.00    +0.000 C 
BRANCH  14  16
ATOM     15  C   UNL     1       2.402   2.751  21.690  0.00  0.00    +0.000 C 
ATOM     16  C   UNL     1       1.337   2.703  20.594  0.00  0.00    +0.000 C 
ATOM     17  C   UNL     1       0.897   4.131  20.250  0.00  0.00    +0.000 C 
ENDBRANCH  14  16
ENDBRANCH  10  14
ENDBRANCH   9  10
ENDBRANCH   1   9
BRANCH   6  18
ATOM     18  C   UNL     1       5.689   4.101  15.554  0.00  0.00    +0.000 C 
BRANCH  18  19
ATOM     19  C   UNL     1       5.987   4.659  14.144  0.00  0.00    +0.000 C 
ATOM     20  C   UNL     1       7.444   5.080  13.967  0.00  0.00    +0.000 C 
ATOM     21  C   UNL     1       5.618   3.603  13.095  0.00  0.00    +0.000 C 
ENDBRANCH  18  19
ENDBRANCH   6  18
TORSDOF 7
ENDMDL
MODEL 8
REMARK VINA RESULT:      -6.5      1.896      5.784
REMARK  Name = 
REMARK  11 active torsions:
REMARK  status: ('A' for Active; 'I' for Inactive)
REMARK    1  A    between atoms: C_1  and  C_2
REMARK    2  A    between atoms: C_2  and  C_3
REMARK    3  A    between atoms: C_2  and  C_4
REMARK    4  A    between atoms: C_4  and  C_5
REMARK    5  A    between atoms: C_5  and  N_6
REMARK    6  A    between atoms: C_5  and  C_7
REMARK    7  A    between atoms: C_7  and  N_8
REMARK    8  A    between atoms: C_13  and  C_14
REMARK    9  A    between atoms: C_14  and  C_15
REMARK   10  A    between atoms: C_15  and  C_16
REMARK   11  A    between atoms: C_15  and  C_17
REMARK                            x       y       z     vdW  Elec       q    Type
REMARK                         _______ _______ _______ _____ _____    ______ ____
ROOT
ATOM      1  N   UNL     1       6.537   4.657  18.275  0.00  0.00    +0.000 NA
ATOM      2  C   UNL     1       6.867   6.082  18.526  0.00  0.00    +0.000 C 
ATOM      3  C   UNL     1       7.130   6.942  17.280  0.00  0.00    +0.000 C 
ATOM      4  O   UNL     1       7.066   8.171  17.316  0.00  0.00    +0.000 OA
ATOM      5  N   UNL     1       7.592   6.331  16.146  0.00  0.00    +0.000 N 
ATOM      6  C   UNL     1       7.398   4.920  15.874  0.00  0.00    +0.000 C 
ATOM      7  C   UNL     1       7.382   4.120  17.199  0.00  0.00    +0.000 C 
ATOM      8  H   UNL     1       7.782   6.966  15.381  0.00  0.00    +0.000 HD
ENDROOT
BRANCH   1   9
ATOM      9  C   UNL     1       5.087   4.435  18.166  0.00  0.00    +0.000 C 
BRANCH   9  10
ATOM     10  C   UNL     1       4.417   3.824  19.437  0.00  0.00    +0.000 C 
BRANCH  10  11
ATOM     11  N   UNL     1       4.845   2.429  19.621  0.00  0.00    +0.000 NA
ATOM     12  H   UNL     1       4.292   1.993  20.357  0.00  0.00    +0.000 HD
ATOM     13  H   UNL     1       5.809   2.415  19.954  0.00  0.00    +0.000 HD
ENDBRANCH  10  11
BRANCH  10  14
ATOM     14  C   UNL     1       2.878   3.939  19.347  0.00  0.00    +0.000 C 
BRANCH  14  16
ATOM     15  C   UNL     1       1.543   2.883  21.247  0.00  0.00    +0.000 C 
ATOM     16  C   UNL     1       2.075   2.711  19.825  0.00  0.00    +0.000 C 
ATOM     17  C   UNL     1       0.902   2.469  18.868  0.00  0.00    +0.000 C 
ENDBRANCH  14  16
ENDBRANCH  10  14
ENDBRANCH   9  10
ENDBRANCH   1   9
BRANCH   6  18
ATOM     18  C   UNL     1       6.142   4.698  15.003  0.00  0.00    +0.000 C 
BRANCH  18  19
ATOM     19  C   UNL     1       6.378   3.966  13.663  0.00  0.00    +0.000 C 
ATOM     20  C   UNL     1       5.083   3.675  12.908  0.00  0.00    +0.000 C 
ATOM     21  C   UNL     1       7.315   4.807  12.787  0.00  0.00    +0.000 C 
ENDBRANCH  18  19
ENDBRANCH   6  18
TORSDOF 7
ENDMDL
MODEL 9
REMARK VINA RESULT:      -6.5      1.831      5.247
REMARK  Name = 
REMARK  11 active torsions:
REMARK  status: ('A' for Active; 'I' for Inactive)
REMARK    1  A    between atoms: C_1  and  C_2
REMARK    2  A    between atoms: C_2  and  C_3
REMARK    3  A    between atoms: C_2  and  C_4
REMARK    4  A    between atoms: C_4  and  C_5
REMARK    5  A    between atoms: C_5  and  N_6
REMARK    6  A    between atoms: C_5  and  C_7
REMARK    7  A    between atoms: C_7  and  N_8
REMARK    8  A    between atoms: C_13  and  C_14
REMARK    9  A    between atoms: C_14  and  C_15
REMARK   10  A    between atoms: C_15  and  C_16
REMARK   11  A    between atoms: C_15  and  C_17
REMARK                            x       y       z     vdW  Elec       q    Type
REMARK                         _______ _______ _______ _____ _____    ______ ____
ROOT
ATOM      1  N   UNL     1       5.229   5.127  17.781  0.00  0.00    +0.000 NA
ATOM      2  C   UNL     1       6.154   6.252  18.063  0.00  0.00    +0.000 C 
ATOM      3  C   UNL     1       7.156   6.596  16.949  0.00  0.00    +0.000 C 
ATOM      4  O   UNL     1       7.720   7.689  16.900  0.00  0.00    +0.000 OA
ATOM      5  N   UNL     1       7.536   5.610  16.080  0.00  0.00    +0.000 N 
ATOM      6  C   UNL     1       6.734   4.429  15.826  0.00  0.00    +0.000 C 
ATOM      7  C   UNL     1       5.943   4.039  17.098  0.00  0.00    +0.000 C 
ATOM      8  H   UNL     1       8.228   5.899  15.401  0.00  0.00    +0.000 HD
ENDROOT
BRANCH   1   9
ATOM      9  C   UNL     1       3.967   5.585  17.181  0.00  0.00    +0.000 C 
BRANCH   9  10
ATOM     10  C   UNL     1       2.731   5.539  18.133  0.00  0.00    +0.000 C 
BRANCH  10  11
ATOM     11  N   UNL     1       2.749   6.687  19.052  0.00  0.00    +0.000 NA
ATOM     12  H   UNL     1       3.468   6.550  19.762  0.00  0.00    +0.000 HD
ATOM     13  H   UNL     1       1.864   6.725  19.558  0.00  0.00    +0.000 HD
ENDBRANCH  10  11
BRANCH  10  14
ATOM     14  C   UNL     1       2.686   4.198  18.900  0.00  0.00    +0.000 C 
BRANCH  14  16
ATOM     15  C   UNL     1       3.128   1.842  18.028  0.00  0.00    +0.000 C 
ATOM     16  C   UNL     1       2.122   2.989  18.125  0.00  0.00    +0.000 C 
ATOM     17  C   UNL     1       0.849   2.491  18.819  0.00  0.00    +0.000 C 
ENDBRANCH  14  16
ENDBRANCH  10  14
ENDBRANCH   9  10
ENDBRANCH   1   9
BRANCH   6  18
ATOM     18  C   UNL     1       5.842   4.629  14.582  0.00  0.00    +0.000 C 
BRANCH  18  19
ATOM     19  C   UNL     1       6.273   3.853  13.317  0.00  0.00    +0.000 C 
ATOM     20  C   UNL     1       5.103   3.526  12.392  0.00  0.00    +0.000 C 
ATOM     21  C   UNL     1       7.325   4.672  12.557  0.00  0.00    +0.000 C 
ENDBRANCH  18  19
ENDBRANCH   6  18
TORSDOF 7
ENDMDL
