MODEL 1
REMARK VINA RESULT:      -7.8      0.000      0.000
REMARK  Name = 
REMARK  8 active torsions:
REMARK  status: ('A' for Active; 'I' for Inactive)
REMARK    1  A    between atoms: C_1  and  N_2
REMARK    2  A    between atoms: C_3  and  C_5
REMARK    3  A    between atoms: C_5  and  N_6
REMARK    4  A    between atoms: N_9  and  C_10
REMARK    5  A    between atoms: N_13  and  C_14
REMARK    6  A    between atoms: C_17  and  C_18
REMARK    7  A    between atoms: C_18  and  C_19
REMARK    8  A    between atoms: C_18  and  C_20
REMARK                            x       y       z     vdW  Elec       q    Type
REMARK                         _______ _______ _______ _____ _____    ______ ____
ROOT
ATOM      1  N   UNL     1      -0.474  10.697  19.341  0.00  0.00    +0.000 N 
ATOM      2  C   UNL     1       0.507   9.894  18.759  0.00  0.00    +0.000 A 
ATOM      3  O   UNL     1       0.764   9.887  17.564  0.00  0.00    +0.000 OA
ATOM      4  N   UNL     1       1.117   9.171  19.794  0.00  0.00    +0.000 N 
ATOM      5  C   UNL     1       0.496   9.526  21.008  0.00  0.00    +0.000 A 
ATOM      6  C   UNL     1       0.717   9.073  22.294  0.00  0.00    +0.000 A 
ATOM      7  C   UNL     1      -0.082   9.613  23.306  0.00  0.00    +0.000 A 
ATOM      8  C   UNL     1      -1.058  10.585  23.017  0.00  0.00    +0.000 A 
ATOM      9  C   UNL     1      -1.265  11.035  21.708  0.00  0.00    +0.000 A 
ATOM     10  C   UNL     1      -0.481  10.482  20.722  0.00  0.00    +0.000 A 
ENDROOT
BRANCH   4  11
ATOM     11  C   UNL     1       2.229   8.248  19.652  0.00  0.00    +0.000 C 
ATOM     12  C   UNL     1       2.378   7.791  18.197  0.00  0.00    +0.000 C 
ATOM     13  C   UNL     1       1.700   6.463  17.859  0.00  0.00    +0.000 C 
ATOM     14  N   UNL     1       1.865   5.405  18.855  0.00  0.00    +0.000 NA
ATOM     15  C   UNL     1       1.476   5.852  20.192  0.00  0.00    +0.000 C 
ATOM     16  C   UNL     1       2.154   7.124  20.690  0.00  0.00    +0.000 C 
BRANCH  14  17
ATOM     17  C   UNL     1       3.092   4.605  18.699  0.00  0.00    +0.000 C 
ATOM     18  C   UNL     1       3.326   4.066  17.275  0.00  0.00    +0.000 C 
ATOM     19  C   UNL     1       4.699   3.475  17.014  0.00  0.00    +0.000 C 
ATOM     20  C   UNL     1       5.824   4.380  17.519  0.00  0.00    +0.000 C 
ATOM     21  C   UNL     1       5.613   4.533  19.038  0.00  0.00    +0.000 C 
ATOM     22  C   UNL     1       4.319   5.284  19.347  0.00  0.00    +0.000 C 
BRANCH  20  23
ATOM     23  C   UNL     1       5.922   5.749  16.775  0.00  0.00    +0.000 C 
ATOM     24  C   UNL     1       7.226   6.470  17.132  0.00  0.00    +0.000 C 
ATOM     25  C   UNL     1       5.824   5.615  15.251  0.00  0.00    +0.000 C 
ENDBRANCH  20  23
ENDBRANCH  14  17
ENDBRANCH   4  11
BRANCH   1  26
ATOM     26  C   UNL     1      -1.346  11.537  18.571  0.00  0.00    +0.000 C 
BRANCH  26  29
ATOM     27  C   UNL     1      -2.809  10.192  15.310  0.00  0.00    +0.000 C 
ATOM     28  N   UNL     1      -2.063  10.929  16.296  0.00  0.00    +0.000 N 
ATOM     29  C   UNL     1      -2.247  10.723  17.648  0.00  0.00    +0.000 C 
ATOM     30  O   UNL     1      -3.023   9.870  18.087  0.00  0.00    +0.000 OA
ATOM     31  H   UNL     1      -1.355  11.599  15.990  0.00  0.00    +0.000 HD
ENDBRANCH  26  29
ENDBRANCH   1  26
TORSDOF 5
ENDMDL
MODEL 2
REMARK VINA RESULT:      -7.4      3.050      4.612
REMARK  Name = 
REMARK  8 active torsions:
REMARK  status: ('A' for Active; 'I' for Inactive)
REMARK    1  A    between atoms: C_1  and  N_2
REMARK    2  A    between atoms: C_3  and  C_5
REMARK    3  A    between atoms: C_5  and  N_6
REMARK    4  A    between atoms: N_9  and  C_10
REMARK    5  A    between atoms: N_13  and  C_14
REMARK    6  A    between atoms: C_17  and  C_18
REMARK    7  A    between atoms: C_18  and  C_19
REMARK    8  A    between atoms: C_18  and  C_20
REMARK                            x       y       z     vdW  Elec       q    Type
REMARK                         _______ _______ _______ _____ _____    ______ ____
ROOT
ATOM      1  N   UNL     1       1.021  13.322  20.685  0.00  0.00    +0.000 N 
ATOM      2  C   UNL     1       1.101  12.142  19.946  0.00  0.00    +0.000 A 
ATOM      3  O   UNL     1       1.914  11.948  19.055  0.00  0.00    +0.000 OA
ATOM      4  N   UNL     1       0.124  11.272  20.451  0.00  0.00    +0.000 N 
ATOM      5  C   UNL     1      -0.560  11.930  21.491  0.00  0.00    +0.000 A 
ATOM      6  C   UNL     1      -1.616  11.509  22.276  0.00  0.00    +0.000 A 
ATOM      7  C   UNL     1      -2.097  12.408  23.233  0.00  0.00    +0.000 A 
ATOM      8  C   UNL     1      -1.514  13.679  23.389  0.00  0.00    +0.000 A 
ATOM      9  C   UNL     1      -0.442  14.086  22.588  0.00  0.00    +0.000 A 
ATOM     10  C   UNL     1       0.009  13.196  21.640  0.00  0.00    +0.000 A 
ENDROOT
BRANCH   4  11
ATOM     11  C   UNL     1      -0.115   9.909  20.011  0.00  0.00    +0.000 C 
ATOM     12  C   UNL     1       0.116   8.916  21.156  0.00  0.00    +0.000 C 
ATOM     13  C   UNL     1       1.505   8.279  21.194  0.00  0.00    +0.000 C 
ATOM     14  N   UNL     1       2.036   7.856  19.898  0.00  0.00    +0.000 NA
ATOM     15  C   UNL     1       1.997   8.939  18.916  0.00  0.00    +0.000 C 
ATOM     16  C   UNL     1       0.639   9.603  18.713  0.00  0.00    +0.000 C 
BRANCH  14  17
ATOM     17  C   UNL     1       1.629   6.502  19.483  0.00  0.00    +0.000 C 
ATOM     18  C   UNL     1       2.214   6.047  18.133  0.00  0.00    +0.000 C 
ATOM     19  C   UNL     1       2.041   4.575  17.806  0.00  0.00    +0.000 C 
ATOM     20  C   UNL     1       2.428   3.672  18.979  0.00  0.00    +0.000 C 
ATOM     21  C   UNL     1       1.497   4.050  20.147  0.00  0.00    +0.000 C 
ATOM     22  C   UNL     1       1.760   5.475  20.629  0.00  0.00    +0.000 C 
BRANCH  20  23
ATOM     23  C   UNL     1       3.942   3.735  19.358  0.00  0.00    +0.000 C 
ATOM     24  C   UNL     1       4.361   2.481  20.131  0.00  0.00    +0.000 C 
ATOM     25  C   UNL     1       4.860   3.907  18.142  0.00  0.00    +0.000 C 
ENDBRANCH  20  23
ENDBRANCH  14  17
ENDBRANCH   4  11
BRANCH   1  26
ATOM     26  C   UNL     1       1.839  14.469  20.407  0.00  0.00    +0.000 C 
BRANCH  26  29
ATOM     27  C   UNL     1       5.493  14.531  21.516  0.00  0.00    +0.000 C 
ATOM     28  N   UNL     1       4.276  14.423  20.756  0.00  0.00    +0.000 N 
ATOM     29  C   UNL     1       3.036  14.552  21.349  0.00  0.00    +0.000 C 
ATOM     30  O   UNL     1       2.900  14.809  22.548  0.00  0.00    +0.000 OA
ATOM     31  H   UNL     1       4.327  14.279  19.745  0.00  0.00    +0.000 HD
ENDBRANCH  26  29
ENDBRANCH   1  26
TORSDOF 5
ENDMDL
MODEL 3
REMARK VINA RESULT:      -7.3      2.674      8.825
REMARK  Name = 
REMARK  8 active torsions:
REMARK  status: ('A' for Active; 'I' for Inactive)
REMARK    1  A    between atoms: C_1  and  N_2
REMARK    2  A    between atoms: C_3  and  C_5
REMARK    3  A    between atoms: C_5  and  N_6
REMARK    4  A    between atoms: N_9  and  C_10
REMARK    5  A    between atoms: N_13  and  C_14
REMARK    6  A    between atoms: C_17  and  C_18
REMARK    7  A    between atoms: C_18  and  C_19
REMARK    8  A    between atoms: C_18  and  C_20
REMARK                            x       y       z     vdW  Elec       q    Type
REMARK                         _______ _______ _______ _____ _____    ______ ____
ROOT
ATOM      1  N   UNL     1       2.215   4.865  19.366  0.00  0.00    +0.000 N 
ATOM      2  C   UNL     1       1.724   5.974  20.055  0.00  0.00    +0.000 A 
ATOM      3  O   UNL     1       0.954   5.904  21.002  0.00  0.00    +0.000 OA
ATOM      4  N   UNL     1       2.306   7.111  19.476  0.00  0.00    +0.000 N 
ATOM      5  C   UNL     1       3.143   6.693  18.424  0.00  0.00    +0.000 A 
ATOM      6  C   UNL     1       3.907   7.429  17.539  0.00  0.00    +0.000 A 
ATOM      7  C   UNL     1       4.632   6.718  16.578  0.00  0.00    +0.000 A 
ATOM      8  C   UNL     1       4.589   5.312  16.532  0.00  0.00    +0.000 A 
ATOM      9  C   UNL     1       3.813   4.583  17.440  0.00  0.00    +0.000 A 
ATOM     10  C   UNL     1       3.092   5.298  18.368  0.00  0.00    +0.000 A 
ENDROOT
BRANCH   4  11
ATOM     11  C   UNL     1       2.117   8.483  19.912  0.00  0.00    +0.000 C 
ATOM     12  C   UNL     1       1.467   8.532  21.300  0.00  0.00    +0.000 C 
ATOM     13  C   UNL     1      -0.052   8.702  21.301  0.00  0.00    +0.000 C 
ATOM     14  N   UNL     1      -0.574   9.677  20.344  0.00  0.00    +0.000 NA
ATOM     15  C   UNL     1      -0.089   9.419  18.988  0.00  0.00    +0.000 C 
ATOM     16  C   UNL     1       1.424   9.319  18.831  0.00  0.00    +0.000 C 
BRANCH  14  17
ATOM     17  C   UNL     1      -0.604  11.064  20.839  0.00  0.00    +0.000 C 
ATOM     18  C   UNL     1      -1.544  12.000  20.056  0.00  0.00    +0.000 C 
ATOM     19  C   UNL     1      -1.807  13.351  20.695  0.00  0.00    +0.000 C 
ATOM     20  C   UNL     1      -2.157  13.231  22.180  0.00  0.00    +0.000 C 
ATOM     21  C   UNL     1      -0.945  12.568  22.862  0.00  0.00    +0.000 C 
ATOM     22  C   UNL     1      -0.747  11.134  22.375  0.00  0.00    +0.000 C 
BRANCH  20  23
ATOM     23  C   UNL     1      -3.500  12.483  22.458  0.00  0.00    +0.000 C 
ATOM     24  C   UNL     1      -3.831  12.499  23.954  0.00  0.00    +0.000 C 
ATOM     25  C   UNL     1      -4.684  13.061  21.675  0.00  0.00    +0.000 C 
ENDBRANCH  20  23
ENDBRANCH  14  17
ENDBRANCH   4  11
BRANCH   1  26
ATOM     26  C   UNL     1       1.789   3.524  19.650  0.00  0.00    +0.000 C 
BRANCH  26  29
ATOM     27  C   UNL     1       4.890   1.632  20.829  0.00  0.00    +0.000 C 
ATOM     28  N   UNL     1       3.879   2.282  20.037  0.00  0.00    +0.000 N 
ATOM     29  C   UNL     1       2.743   2.819  20.609  0.00  0.00    +0.000 C 
ATOM     30  O   UNL     1       2.551   2.814  21.827  0.00  0.00    +0.000 OA
ATOM     31  H   UNL     1       4.018   2.378  19.029  0.00  0.00    +0.000 HD
ENDBRANCH  26  29
ENDBRANCH   1  26
TORSDOF 5
ENDMDL
MODEL 4
REMARK VINA RESULT:      -7.3      2.926      4.195
REMARK  Name = 
REMARK  8 active torsions:
REMARK  status: ('A' for Active; 'I' for Inactive)
REMARK    1  A    between atoms: C_1  and  N_2
REMARK    2  A    between atoms: C_3  and  C_5
REMARK    3  A    between atoms: C_5  and  N_6
REMARK    4  A    between atoms: N_9  and  C_10
REMARK    5  A    between atoms: N_13  and  C_14
REMARK    6  A    between atoms: C_17  and  C_18
REMARK    7  A    between atoms: C_18  and  C_19
REMARK    8  A    between atoms: C_18  and  C_20
REMARK                            x       y       z     vdW  Elec       q    Type
REMARK                         _______ _______ _______ _____ _____    ______ ____
ROOT
ATOM      1  N   UNL     1       1.216  13.371  20.187  0.00  0.00    +0.000 N 
ATOM      2  C   UNL     1       1.212  12.170  19.478  0.00  0.00    +0.000 A 
ATOM      3  O   UNL     1       1.920  11.946  18.508  0.00  0.00    +0.000 OA
ATOM      4  N   UNL     1       0.296  11.318  20.114  0.00  0.00    +0.000 N 
ATOM      5  C   UNL     1      -0.267  12.008  21.205  0.00  0.00    +0.000 A 
ATOM      6  C   UNL     1      -1.229  11.615  22.115  0.00  0.00    +0.000 A 
ATOM      7  C   UNL     1      -1.600  12.543  23.093  0.00  0.00    +0.000 A 
ATOM      8  C   UNL     1      -1.001  13.816  23.146  0.00  0.00    +0.000 A 
ATOM      9  C   UNL     1      -0.025  14.195  22.218  0.00  0.00    +0.000 A 
ATOM     10  C   UNL     1       0.316  13.277  21.253  0.00  0.00    +0.000 A 
ENDROOT
BRANCH   4  11
ATOM     11  C   UNL     1       0.008   9.944  19.744  0.00  0.00    +0.000 C 
ATOM     12  C   UNL     1       0.185   9.006  20.943  0.00  0.00    +0.000 C 
ATOM     13  C   UNL     1       1.547   8.317  21.035  0.00  0.00    +0.000 C 
ATOM     14  N   UNL     1       2.077   7.805  19.772  0.00  0.00    +0.000 NA
ATOM     15  C   UNL     1       2.093   8.835  18.733  0.00  0.00    +0.000 C 
ATOM     16  C   UNL     1       0.766   9.540  18.475  0.00  0.00    +0.000 C 
BRANCH  14  17
ATOM     17  C   UNL     1       1.621   6.448  19.423  0.00  0.00    +0.000 C 
ATOM     18  C   UNL     1       2.169   5.917  18.085  0.00  0.00    +0.000 C 
ATOM     19  C   UNL     1       1.945   4.438  17.825  0.00  0.00    +0.000 C 
ATOM     20  C   UNL     1       2.324   3.575  19.030  0.00  0.00    +0.000 C 
ATOM     21  C   UNL     1       1.425   4.032  20.195  0.00  0.00    +0.000 C 
ATOM     22  C   UNL     1       1.740   5.468  20.610  0.00  0.00    +0.000 C 
BRANCH  20  23
ATOM     23  C   UNL     1       3.845   3.607  19.382  0.00  0.00    +0.000 C 
ATOM     24  C   UNL     1       4.252   2.346  20.152  0.00  0.00    +0.000 C 
ATOM     25  C   UNL     1       4.745   3.755  18.150  0.00  0.00    +0.000 C 
ENDBRANCH  20  23
ENDBRANCH  14  17
ENDBRANCH   4  11
BRANCH   1  26
ATOM     26  C   UNL     1       1.998  14.505  19.787  0.00  0.00    +0.000 C 
BRANCH  26  29
ATOM     27  C   UNL     1       0.934  18.058  18.873  0.00  0.00    +0.000 C 
ATOM     28  N   UNL     1       1.628  16.907  19.387  0.00  0.00    +0.000 N 
ATOM     29  C   UNL     1       1.124  15.630  19.239  0.00  0.00    +0.000 C 
ATOM     30  O   UNL     1       0.081  15.398  18.623  0.00  0.00    +0.000 OA
ATOM     31  H   UNL     1       2.532  17.031  19.846  0.00  0.00    +0.000 HD
ENDBRANCH  26  29
ENDBRANCH   1  26
TORSDOF 5
ENDMDL
MODEL 5
REMARK VINA RESULT:      -7.2      2.404      3.914
REMARK  Name = 
REMARK  8 active torsions:
REMARK  status: ('A' for Active; 'I' for Inactive)
REMARK    1  A    between atoms: C_1  and  N_2
REMARK    2  A    between atoms: C_3  and  C_5
REMARK    3  A    between atoms: C_5  and  N_6
REMARK    4  A    between atoms: N_9  and  C_10
REMARK    5  A    between atoms: N_13  and  C_14
REMARK    6  A    between atoms: C_17  and  C_18
REMARK    7  A    between atoms: C_18  and  C_19
REMARK    8  A    between atoms: C_18  and  C_20
REMARK                            x       y       z     vdW  Elec       q    Type
REMARK                         _______ _______ _______ _____ _____    ______ ____
ROOT
ATOM      1  N   UNL     1      -1.939  12.478  20.151  0.00  0.00    +0.000 N 
ATOM      2  C   UNL     1      -0.628  12.202  20.540  0.00  0.00    +0.000 A 
ATOM      3  O   UNL     1      -0.062  12.751  21.474  0.00  0.00    +0.000 OA
ATOM      4  N   UNL     1      -0.152  11.189  19.695  0.00  0.00    +0.000 N 
ATOM      5  C   UNL     1      -1.171  10.858  18.781  0.00  0.00    +0.000 A 
ATOM      6  C   UNL     1      -1.182   9.950  17.741  0.00  0.00    +0.000 A 
ATOM      7  C   UNL     1      -2.357   9.855  16.989  0.00  0.00    +0.000 A 
ATOM      8  C   UNL     1      -3.479  10.648  17.297  0.00  0.00    +0.000 A 
ATOM      9  C   UNL     1      -3.451  11.560  18.358  0.00  0.00    +0.000 A 
ATOM     10  C   UNL     1      -2.281  11.652  19.077  0.00  0.00    +0.000 A 
ENDROOT
BRANCH   4  11
ATOM     11  C   UNL     1       1.152  10.555  19.773  0.00  0.00    +0.000 C 
ATOM     12  C   UNL     1       1.759  10.377  18.376  0.00  0.00    +0.000 C 
ATOM     13  C   UNL     1       1.529   9.009  17.736  0.00  0.00    +0.000 C 
ATOM     14  N   UNL     1       1.700   7.863  18.629  0.00  0.00    +0.000 NA
ATOM     15  C   UNL     1       0.899   7.999  19.846  0.00  0.00    +0.000 C 
ATOM     16  C   UNL     1       1.103   9.288  20.634  0.00  0.00    +0.000 C 
BRANCH  14  17
ATOM     17  C   UNL     1       3.085   7.374  18.738  0.00  0.00    +0.000 C 
ATOM     18  C   UNL     1       3.229   6.025  19.468  0.00  0.00    +0.000 C 
ATOM     19  C   UNL     1       4.592   5.364  19.363  0.00  0.00    +0.000 C 
ATOM     20  C   UNL     1       5.115   5.342  17.925  0.00  0.00    +0.000 C 
ATOM     21  C   UNL     1       5.223   6.813  17.478  0.00  0.00    +0.000 C 
ATOM     22  C   UNL     1       3.848   7.474  17.399  0.00  0.00    +0.000 C 
BRANCH  20  23
ATOM     23  C   UNL     1       4.262   4.468  16.951  0.00  0.00    +0.000 C 
ATOM     24  C   UNL     1       4.990   4.275  15.616  0.00  0.00    +0.000 C 
ATOM     25  C   UNL     1       3.904   3.095  17.531  0.00  0.00    +0.000 C 
ENDBRANCH  20  23
ENDBRANCH  14  17
ENDBRANCH   4  11
BRANCH   1  26
ATOM     26  C   UNL     1      -2.728  13.509  20.762  0.00  0.00    +0.000 C 
BRANCH  26  29
ATOM     27  C   UNL     1      -6.278  12.638  21.869  0.00  0.00    +0.000 C 
ATOM     28  N   UNL     1      -5.130  13.166  21.181  0.00  0.00    +0.000 N 
ATOM     29  C   UNL     1      -3.844  12.931  21.626  0.00  0.00    +0.000 C 
ATOM     30  O   UNL     1      -3.604  12.221  22.605  0.00  0.00    +0.000 OA
ATOM     31  H   UNL     1      -5.265  13.704  20.322  0.00  0.00    +0.000 HD
ENDBRANCH  26  29
ENDBRANCH   1  26
TORSDOF 5
ENDMDL
MODEL 6
REMARK VINA RESULT:      -7.0      1.477      2.019
REMARK  Name = 
REMARK  8 active torsions:
REMARK  status: ('A' for Active; 'I' for Inactive)
REMARK    1  A    between atoms: C_1  and  N_2
REMARK    2  A    between atoms: C_3  and  C_5
REMARK    3  A    between atoms: C_5  and  N_6
REMARK    4  A    between atoms: N_9  and  C_10
REMARK    5  A    between atoms: N_13  and  C_14
REMARK    6  A    between atoms: C_17  and  C_18
REMARK    7  A    between atoms: C_18  and  C_19
REMARK    8  A    between atoms: C_18  and  C_20
REMARK                            x       y       z     vdW  Elec       q    Type
REMARK                         _______ _______ _______ _____ _____    ______ ____
ROOT
ATOM      1  N   UNL     1      -0.101  10.639  19.422  0.00  0.00    +0.000 N 
ATOM      2  C   UNL     1       0.829   9.766  18.859  0.00  0.00    +0.000 A 
ATOM      3  O   UNL     1       1.129   9.758  17.675  0.00  0.00    +0.000 OA
ATOM      4  N   UNL     1       1.338   8.977  19.901  0.00  0.00    +0.000 N 
ATOM      5  C   UNL     1       0.705   9.363  21.099  0.00  0.00    +0.000 A 
ATOM      6  C   UNL     1       0.840   8.871  22.383  0.00  0.00    +0.000 A 
ATOM      7  C   UNL     1       0.051   9.459  23.376  0.00  0.00    +0.000 A 
ATOM      8  C   UNL     1      -0.829  10.515  23.072  0.00  0.00    +0.000 A 
ATOM      9  C   UNL     1      -0.948  11.003  21.766  0.00  0.00    +0.000 A 
ATOM     10  C   UNL     1      -0.178  10.402  20.798  0.00  0.00    +0.000 A 
ENDROOT
BRANCH   4  11
ATOM     11  C   UNL     1       2.373   7.966  19.780  0.00  0.00    +0.000 C 
ATOM     12  C   UNL     1       2.829   7.822  18.323  0.00  0.00    +0.000 C 
ATOM     13  C   UNL     1       2.147   6.703  17.536  0.00  0.00    +0.000 C 
ATOM     14  N   UNL     1       1.982   5.441  18.256  0.00  0.00    +0.000 NA
ATOM     15  C   UNL     1       1.322   5.634  19.547  0.00  0.00    +0.000 C 
ATOM     16  C   UNL     1       1.961   6.663  20.472  0.00  0.00    +0.000 C 
BRANCH  14  17
ATOM     17  C   UNL     1       3.143   4.537  18.177  0.00  0.00    +0.000 C 
ATOM     18  C   UNL     1       3.952   4.651  16.871  0.00  0.00    +0.000 C 
ATOM     19  C   UNL     1       5.294   3.941  16.866  0.00  0.00    +0.000 C 
ATOM     20  C   UNL     1       6.112   4.240  18.124  0.00  0.00    +0.000 C 
ATOM     21  C   UNL     1       5.273   3.744  19.318  0.00  0.00    +0.000 C 
ATOM     22  C   UNL     1       3.987   4.553  19.470  0.00  0.00    +0.000 C 
BRANCH  20  23
ATOM     23  C   UNL     1       6.545   5.734  18.260  0.00  0.00    +0.000 C 
ATOM     24  C   UNL     1       7.529   5.911  19.422  0.00  0.00    +0.000 C 
ATOM     25  C   UNL     1       7.173   6.298  16.980  0.00  0.00    +0.000 C 
ENDBRANCH  20  23
ENDBRANCH  14  17
ENDBRANCH   4  11
BRANCH   1  26
ATOM     26  C   UNL     1      -0.871  11.563  18.639  0.00  0.00    +0.000 C 
BRANCH  26  29
ATOM     27  C   UNL     1      -0.541  15.310  19.298  0.00  0.00    +0.000 C 
ATOM     28  N   UNL     1      -1.021  13.958  19.189  0.00  0.00    +0.000 N 
ATOM     29  C   UNL     1      -0.250  12.956  18.635  0.00  0.00    +0.000 C 
ATOM     30  O   UNL     1       0.904  13.150  18.246  0.00  0.00    +0.000 OA
ATOM     31  H   UNL     1      -1.944  13.724  19.560  0.00  0.00    +0.000 HD
ENDBRANCH  26  29
ENDBRANCH   1  26
TORSDOF 5
ENDMDL
MODEL 7
REMARK VINA RESULT:      -6.9      2.636      8.314
REMARK  Name = 
REMARK  8 active torsions:
REMARK  status: ('A' for Active; 'I' for Inactive)
REMARK    1  A    between atoms: C_1  and  N_2
REMARK    2  A    between atoms: C_3  and  C_5
REMARK    3  A    between atoms: C_5  and  N_6
REMARK    4  A    between atoms: N_9  and  C_10
REMARK    5  A    between atoms: N_13  and  C_14
REMARK    6  A    between atoms: C_17  and  C_18
REMARK    7  A    between atoms: C_18  and  C_19
REMARK    8  A    between atoms: C_18  and  C_20
REMARK                            x       y       z     vdW  Elec       q    Type
REMARK                         _______ _______ _______ _____ _____    ______ ____
ROOT
ATOM      1  N   UNL     1       4.968   4.731  17.925  0.00  0.00    +0.000 N 
ATOM      2  C   UNL     1       4.174   5.873  18.022  0.00  0.00    +0.000 A 
ATOM      3  O   UNL     1       4.584   7.009  17.835  0.00  0.00    +0.000 OA
ATOM      4  N   UNL     1       2.873   5.446  18.327  0.00  0.00    +0.000 N 
ATOM      5  C   UNL     1       2.879   4.042  18.427  0.00  0.00    +0.000 A 
ATOM      6  C   UNL     1       1.861   3.160  18.734  0.00  0.00    +0.000 A 
ATOM      7  C   UNL     1       2.185   1.801  18.773  0.00  0.00    +0.000 A 
ATOM      8  C   UNL     1       3.493   1.360  18.497  0.00  0.00    +0.000 A 
ATOM      9  C   UNL     1       4.510   2.267  18.183  0.00  0.00    +0.000 A 
ATOM     10  C   UNL     1       4.179   3.603  18.166  0.00  0.00    +0.000 A 
ENDROOT
BRANCH   4  11
ATOM     11  C   UNL     1       1.706   6.299  18.469  0.00  0.00    +0.000 C 
ATOM     12  C   UNL     1       1.843   7.562  17.611  0.00  0.00    +0.000 C 
ATOM     13  C   UNL     1       2.383   8.790  18.343  0.00  0.00    +0.000 C 
ATOM     14  N   UNL     1       1.836   9.013  19.681  0.00  0.00    +0.000 NA
ATOM     15  C   UNL     1       1.956   7.822  20.522  0.00  0.00    +0.000 C 
ATOM     16  C   UNL     1       1.370   6.539  19.944  0.00  0.00    +0.000 C 
BRANCH  14  17
ATOM     17  C   UNL     1       0.579   9.780  19.707  0.00  0.00    +0.000 C 
ATOM     18  C   UNL     1       0.218  10.365  21.085  0.00  0.00    +0.000 C 
ATOM     19  C   UNL     1      -0.914  11.377  21.094  0.00  0.00    +0.000 C 
ATOM     20  C   UNL     1      -0.751  12.436  20.001  0.00  0.00    +0.000 C 
ATOM     21  C   UNL     1      -0.748  11.681  18.658  0.00  0.00    +0.000 C 
ATOM     22  C   UNL     1       0.476  10.775  18.531  0.00  0.00    +0.000 C 
BRANCH  20  23
ATOM     23  C   UNL     1       0.498  13.356  20.188  0.00  0.00    +0.000 C 
ATOM     24  C   UNL     1       0.537  14.445  19.111  0.00  0.00    +0.000 C 
ATOM     25  C   UNL     1       0.559  14.014  21.571  0.00  0.00    +0.000 C 
ENDBRANCH  20  23
ENDBRANCH  14  17
ENDBRANCH   4  11
BRANCH   1  26
ATOM     26  C   UNL     1       6.381   4.787  17.680  0.00  0.00    +0.000 C 
BRANCH  26  29
ATOM     27  C   UNL     1       6.298   3.983  13.948  0.00  0.00    +0.000 C 
ATOM     28  N   UNL     1       6.129   3.955  15.376  0.00  0.00    +0.000 N 
ATOM     29  C   UNL     1       6.692   4.916  16.192  0.00  0.00    +0.000 C 
ATOM     30  O   UNL     1       7.330   5.872  15.745  0.00  0.00    +0.000 OA
ATOM     31  H   UNL     1       5.551   3.226  15.798  0.00  0.00    +0.000 HD
ENDBRANCH  26  29
ENDBRANCH   1  26
TORSDOF 5
ENDMDL
MODEL 8
REMARK VINA RESULT:      -6.8      2.572      8.694
REMARK  Name = 
REMARK  8 active torsions:
REMARK  status: ('A' for Active; 'I' for Inactive)
REMARK    1  A    between atoms: C_1  and  N_2
REMARK    2  A    between atoms: C_3  and  C_5
REMARK    3  A    between atoms: C_5  and  N_6
REMARK    4  A    between atoms: N_9  and  C_10
REMARK    5  A    between atoms: N_13  and  C_14
REMARK    6  A    between atoms: C_17  and  C_18
REMARK    7  A    between atoms: C_18  and  C_19
REMARK    8  A    between atoms: C_18  and  C_20
REMARK                            x       y       z     vdW  Elec       q    Type
REMARK                         _______ _______ _______ _____ _____    ______ ____
ROOT
ATOM      1  N   UNL     1       2.708   4.549  18.665  0.00  0.00    +0.000 N 
ATOM      2  C   UNL     1       2.250   5.690  19.324  0.00  0.00    +0.000 A 
ATOM      3  O   UNL     1       1.465   5.670  20.260  0.00  0.00    +0.000 OA
ATOM      4  N   UNL     1       2.883   6.791  18.729  0.00  0.00    +0.000 N 
ATOM      5  C   UNL     1       3.719   6.319  17.698  0.00  0.00    +0.000 A 
ATOM      6  C   UNL     1       4.522   7.007  16.810  0.00  0.00    +0.000 A 
ATOM      7  C   UNL     1       5.233   6.248  15.875  0.00  0.00    +0.000 A 
ATOM      8  C   UNL     1       5.136   4.844  15.858  0.00  0.00    +0.000 A 
ATOM      9  C   UNL     1       4.320   4.165  16.769  0.00  0.00    +0.000 A 
ATOM     10  C   UNL     1       3.615   4.927  17.671  0.00  0.00    +0.000 A 
ENDROOT
BRANCH   4  11
ATOM     11  C   UNL     1       2.742   8.178  19.134  0.00  0.00    +0.000 C 
ATOM     12  C   UNL     1       1.956   8.289  20.445  0.00  0.00    +0.000 C 
ATOM     13  C   UNL     1       0.459   8.557  20.286  0.00  0.00    +0.000 C 
ATOM     14  N   UNL     1       0.105   9.551  19.273  0.00  0.00    +0.000 NA
ATOM     15  C   UNL     1       0.710   9.244  17.977  0.00  0.00    +0.000 C 
ATOM     16  C   UNL     1       2.222   9.043  17.981  0.00  0.00    +0.000 C 
BRANCH  14  17
ATOM     17  C   UNL     1       0.115  10.943  19.753  0.00  0.00    +0.000 C 
ATOM     18  C   UNL     1      -0.750  11.910  18.923  0.00  0.00    +0.000 C 
ATOM     19  C   UNL     1      -0.980  13.279  19.537  0.00  0.00    +0.000 C 
ATOM     20  C   UNL     1      -1.395  13.191  21.007  0.00  0.00    +0.000 C 
ATOM     21  C   UNL     1      -0.242  12.484  21.745  0.00  0.00    +0.000 C 
ATOM     22  C   UNL     1      -0.087  11.038  21.281  0.00  0.00    +0.000 C 
BRANCH  20  23
ATOM     23  C   UNL     1      -2.779  12.505  21.237  0.00  0.00    +0.000 C 
ATOM     24  C   UNL     1      -3.148  12.510  22.725  0.00  0.00    +0.000 C 
ATOM     25  C   UNL     1      -3.913  13.155  20.436  0.00  0.00    +0.000 C 
ENDBRANCH  20  23
ENDBRANCH  14  17
ENDBRANCH   4  11
BRANCH   1  26
ATOM     26  C   UNL     1       2.227   3.232  18.970  0.00  0.00    +0.000 C 
BRANCH  26  29
ATOM     27  C   UNL     1       5.146   1.500  20.721  0.00  0.00    +0.000 C 
ATOM     28  N   UNL     1       4.266   2.091  19.748  0.00  0.00    +0.000 N 
ATOM     29  C   UNL     1       3.025   2.586  20.099  0.00  0.00    +0.000 C 
ATOM     30  O   UNL     1       2.621   2.592  21.264  0.00  0.00    +0.000 OA
ATOM     31  H   UNL     1       4.576   2.176  18.779  0.00  0.00    +0.000 HD
ENDBRANCH  26  29
ENDBRANCH   1  26
TORSDOF 5
ENDMDL
MODEL 9
REMARK VINA RESULT:      -6.8      1.838      2.677
REMARK  Name = 
REMARK  8 active torsions:
REMARK  status: ('A' for Active; 'I' for Inactive)
REMARK    1  A    between atoms: C_1  and  N_2
REMARK    2  A    between atoms: C_3  and  C_5
REMARK    3  A    between atoms: C_5  and  N_6
REMARK    4  A    between atoms: N_9  and  C_10
REMARK    5  A    between atoms: N_13  and  C_14
REMARK    6  A    between atoms: C_17  and  C_18
REMARK    7  A    between atoms: C_18  and  C_19
REMARK    8  A    between atoms: C_18  and  C_20
REMARK                            x       y       z     vdW  Elec       q    Type
REMARK                         _______ _______ _______ _____ _____    ______ ____
ROOT
ATOM      1  N   UNL     1      -2.124  11.487  18.753  0.00  0.00    +0.000 N 
ATOM      2  C   UNL     1      -0.982  10.743  18.456  0.00  0.00    +0.000 A 
ATOM      3  O   UNL     1      -0.792  10.180  17.389  0.00  0.00    +0.000 OA
ATOM      4  N   UNL     1      -0.141  10.815  19.576  0.00  0.00    +0.000 N 
ATOM      5  C   UNL     1      -0.778  11.595  20.561  0.00  0.00    +0.000 A 
ATOM      6  C   UNL     1      -0.374  11.931  21.838  0.00  0.00    +0.000 A 
ATOM      7  C   UNL     1      -1.246  12.719  22.595  0.00  0.00    +0.000 A 
ATOM      8  C   UNL     1      -2.474  13.156  22.064  0.00  0.00    +0.000 A 
ATOM      9  C   UNL     1      -2.864  12.808  20.766  0.00  0.00    +0.000 A 
ATOM     10  C   UNL     1      -2.003  12.019  20.040  0.00  0.00    +0.000 A 
ENDROOT
BRANCH   4  11
ATOM     11  C   UNL     1       1.182  10.228  19.689  0.00  0.00    +0.000 C 
ATOM     12  C   UNL     1       1.857  10.130  18.316  0.00  0.00    +0.000 C 
ATOM     13  C   UNL     1       1.711   8.781  17.613  0.00  0.00    +0.000 C 
ATOM     14  N   UNL     1       1.887   7.607  18.467  0.00  0.00    +0.000 NA
ATOM     15  C   UNL     1       1.028   7.664  19.651  0.00  0.00    +0.000 C 
ATOM     16  C   UNL     1       1.145   8.926  20.497  0.00  0.00    +0.000 C 
BRANCH  14  17
ATOM     17  C   UNL     1       3.284   7.167  18.621  0.00  0.00    +0.000 C 
ATOM     18  C   UNL     1       3.453   5.831  19.369  0.00  0.00    +0.000 C 
ATOM     19  C   UNL     1       4.839   5.215  19.309  0.00  0.00    +0.000 C 
ATOM     20  C   UNL     1       5.405   5.199  17.887  0.00  0.00    +0.000 C 
ATOM     21  C   UNL     1       5.476   6.668  17.429  0.00  0.00    +0.000 C 
ATOM     22  C   UNL     1       4.082   7.281  17.303  0.00  0.00    +0.000 C 
BRANCH  20  23
ATOM     23  C   UNL     1       4.611   4.287  16.898  0.00  0.00    +0.000 C 
ATOM     24  C   UNL     1       5.471   3.928  15.681  0.00  0.00    +0.000 C 
ATOM     25  C   UNL     1       4.097   2.998  17.548  0.00  0.00    +0.000 C 
ENDBRANCH  20  23
ENDBRANCH  14  17
ENDBRANCH   4  11
BRANCH   1  26
ATOM     26  C   UNL     1      -3.238  11.591  17.854  0.00  0.00    +0.000 C 
BRANCH  26  29
ATOM     27  C   UNL     1      -6.639  10.151  18.827  0.00  0.00    +0.000 C 
ATOM     28  N   UNL     1      -5.528  11.026  18.562  0.00  0.00    +0.000 N 
ATOM     29  C   UNL     1      -4.303  10.540  18.150  0.00  0.00    +0.000 C 
ATOM     30  O   UNL     1      -4.105   9.340  17.943  0.00  0.00    +0.000 OA
ATOM     31  H   UNL     1      -5.654  12.037  18.648  0.00  0.00    +0.000 HD
ENDBRANCH  26  29
ENDBRANCH   1  26
TORSDOF 5
ENDMDL
