MODEL 1
REMARK VINA RESULT:      -7.4      0.000      0.000
REMARK  Name = 
REMARK  13 active torsions:
REMARK  status: ('A' for Active; 'I' for Inactive)
REMARK    1  A    between atoms: C_1  and  O_2
REMARK    2  A    between atoms: O_2  and  C_3
REMARK    3  A    between atoms: C_6  and  N_7
REMARK    4  A    between atoms: N_10  and  C_11
REMARK    5  A    between atoms: N_10  and  C_16
REMARK    6  A    between atoms: C_11  and  C_12
REMARK    7  A    between atoms: C_12  and  C_13
REMARK    8  A    between atoms: C_13  and  C_14
REMARK    9  A    between atoms: C_13  and  C_15
REMARK   10  A    between atoms: C_16  and  C_17
REMARK   11  A    between atoms: C_16  and  C_18
REMARK   12  A    between atoms: C_23  and  O_24
REMARK   13  A    between atoms: O_24  and  C_25
REMARK                            x       y       z     vdW  Elec       q    Type
REMARK                         _______ _______ _______ _____ _____    ______ ____
ROOT
ATOM      1  N   UNL     1       3.556   6.280  17.896  0.00  0.00    +0.000 N 
ATOM      2  C   UNL     1       4.476   6.426  16.886  0.00  0.00    +0.000 C 
ATOM      3  O   UNL     1       4.486   7.371  16.106  0.00  0.00    +0.000 OA
ATOM      4  N   UNL     1       5.390   5.356  16.786  0.00  0.00    +0.000 N 
ATOM      5  H   UNL     1       3.132   5.364  17.936  0.00  0.00    +0.000 HD
ENDROOT
BRANCH   1   9
ATOM      6  C   UNL     1       1.209   9.364  19.538  0.00  0.00    +0.000 A 
ATOM      7  C   UNL     1       1.683   9.479  18.226  0.00  0.00    +0.000 A 
ATOM      8  C   UNL     1       2.420   8.443  17.636  0.00  0.00    +0.000 A 
ATOM      9  C   UNL     1       2.708   7.300  18.377  0.00  0.00    +0.000 A 
ATOM     10  C   UNL     1       2.243   7.180  19.701  0.00  0.00    +0.000 A 
ATOM     11  C   UNL     1       1.477   8.203  20.267  0.00  0.00    +0.000 A 
BRANCH   6  13
ATOM     12  C   UNL     1      -0.459  11.011  19.104  0.00  0.00    +0.000 C 
ATOM     13  O   UNL     1       0.500  10.445  19.992  0.00  0.00    +0.000 OA
ENDBRANCH   6  13
BRANCH  10  14
ATOM     14  O   UNL     1       2.563   5.995  20.320  0.00  0.00    +0.000 OA
ATOM     15  C   UNL     1       1.485   5.141  20.677  0.00  0.00    +0.000 C 
ENDBRANCH  10  14
ENDBRANCH   1   9
BRANCH   4  16
ATOM     16  C   UNL     1       5.640   4.431  17.926  0.00  0.00    +0.000 C 
ATOM     17  C   UNL     1       6.008   5.087  19.263  0.00  0.00    +0.000 C 
BRANCH  16  18
ATOM     18  C   UNL     1       4.451   3.502  18.122  0.00  0.00    +0.000 A 
ATOM     19  C   UNL     1       3.482   3.095  17.223  0.00  0.00    +0.000 A 
ATOM     20  C   UNL     1       2.555   2.175  17.787  0.00  0.00    +0.000 A 
ATOM     21  C   UNL     1       2.834   1.909  19.108  0.00  0.00    +0.000 A 
ATOM     22  S   UNL     1       4.210   2.757  19.656  0.00  0.00    +0.000 S 
ENDBRANCH  16  18
ENDBRANCH   4  16
BRANCH   4  23
ATOM     23  C   UNL     1       6.171   5.257  15.540  0.00  0.00    +0.000 C 
BRANCH  23  24
ATOM     24  C   UNL     1       5.501   4.420  14.448  0.00  0.00    +0.000 C 
BRANCH  24  25
ATOM     25  C   UNL     1       6.467   3.847  13.391  0.00  0.00    +0.000 C 
ATOM     26  C   UNL     1       5.759   3.263  12.169  0.00  0.00    +0.000 C 
ATOM     27  C   UNL     1       7.436   4.948  12.948  0.00  0.00    +0.000 C 
ENDBRANCH  24  25
ENDBRANCH  23  24
ENDBRANCH   4  23
TORSDOF 8
ENDMDL
MODEL 2
REMARK VINA RESULT:      -7.3      1.949      4.351
REMARK  Name = 
REMARK  13 active torsions:
REMARK  status: ('A' for Active; 'I' for Inactive)
REMARK    1  A    between atoms: C_1  and  O_2
REMARK    2  A    between atoms: O_2  and  C_3
REMARK    3  A    between atoms: C_6  and  N_7
REMARK    4  A    between atoms: N_10  and  C_11
REMARK    5  A    between atoms: N_10  and  C_16
REMARK    6  A    between atoms: C_11  and  C_12
REMARK    7  A    between atoms: C_12  and  C_13
REMARK    8  A    between atoms: C_13  and  C_14
REMARK    9  A    between atoms: C_13  and  C_15
REMARK   10  A    between atoms: C_16  and  C_17
REMARK   11  A    between atoms: C_16  and  C_18
REMARK   12  A    between atoms: C_23  and  O_24
REMARK   13  A    between atoms: O_24  and  C_25
REMARK                            x       y       z     vdW  Elec       q    Type
REMARK                         _______ _______ _______ _____ _____    ______ ____
ROOT
ATOM      1  N   UNL     1       2.787   7.287  18.954  0.00  0.00    +0.000 N 
ATOM      2  C   UNL     1       2.533   5.988  18.583  0.00  0.00    +0.000 C 
ATOM      3  O   UNL     1       1.407   5.542  18.394  0.00  0.00    +0.000 OA
ATOM      4  N   UNL     1       3.688   5.185  18.483  0.00  0.00    +0.000 N 
ATOM      5  H   UNL     1       3.423   7.373  19.734  0.00  0.00    +0.000 HD
ENDROOT
BRANCH   1   9
ATOM      6  C   UNL     1       0.198  10.604  18.893  0.00  0.00    +0.000 A 
ATOM      7  C   UNL     1       0.737  10.125  17.694  0.00  0.00    +0.000 A 
ATOM      8  C   UNL     1       1.558   8.990  17.679  0.00  0.00    +0.000 A 
ATOM      9  C   UNL     1       1.863   8.350  18.877  0.00  0.00    +0.000 A 
ATOM     10  C   UNL     1       1.333   8.830  20.091  0.00  0.00    +0.000 A 
ATOM     11  C   UNL     1       0.485   9.942  20.090  0.00  0.00    +0.000 A 
BRANCH   6  13
ATOM     12  C   UNL     1       0.066  12.945  18.463  0.00  0.00    +0.000 C 
ATOM     13  O   UNL     1      -0.590  11.719  18.768  0.00  0.00    +0.000 OA
ENDBRANCH   6  13
BRANCH  10  14
ATOM     14  O   UNL     1       1.678   8.098  21.201  0.00  0.00    +0.000 OA
ATOM     15  C   UNL     1       1.544   8.736  22.464  0.00  0.00    +0.000 C 
ENDBRANCH  10  14
ENDBRANCH   1   9
BRANCH   4  16
ATOM     16  C   UNL     1       5.043   5.780  18.321  0.00  0.00    +0.000 C 
ATOM     17  C   UNL     1       6.067   5.443  19.413  0.00  0.00    +0.000 C 
BRANCH  16  18
ATOM     18  C   UNL     1       5.616   5.428  16.957  0.00  0.00    +0.000 A 
ATOM     19  C   UNL     1       5.114   5.671  15.691  0.00  0.00    +0.000 A 
ATOM     20  C   UNL     1       5.978   5.219  14.656  0.00  0.00    +0.000 A 
ATOM     21  C   UNL     1       7.117   4.632  15.157  0.00  0.00    +0.000 A 
ATOM     22  S   UNL     1       7.143   4.637  16.864  0.00  0.00    +0.000 S 
ENDBRANCH  16  18
ENDBRANCH   4  16
BRANCH   4  23
ATOM     23  C   UNL     1       3.487   3.726  18.437  0.00  0.00    +0.000 C 
BRANCH  23  24
ATOM     24  C   UNL     1       3.387   3.065  19.814  0.00  0.00    +0.000 C 
BRANCH  24  25
ATOM     25  C   UNL     1       2.039   2.373  20.101  0.00  0.00    +0.000 C 
ATOM     26  C   UNL     1       1.149   3.152  21.069  0.00  0.00    +0.000 C 
ATOM     27  C   UNL     1       1.296   2.156  18.779  0.00  0.00    +0.000 C 
ENDBRANCH  24  25
ENDBRANCH  23  24
ENDBRANCH   4  23
TORSDOF 8
ENDMDL
MODEL 3
REMARK VINA RESULT:      -7.3      1.990      3.865
REMARK  Name = 
REMARK  13 active torsions:
REMARK  status: ('A' for Active; 'I' for Inactive)
REMARK    1  A    between atoms: C_1  and  O_2
REMARK    2  A    between atoms: O_2  and  C_3
REMARK    3  A    between atoms: C_6  and  N_7
REMARK    4  A    between atoms: N_10  and  C_11
REMARK    5  A    between atoms: N_10  and  C_16
REMARK    6  A    between atoms: C_11  and  C_12
REMARK    7  A    between atoms: C_12  and  C_13
REMARK    8  A    between atoms: C_13  and  C_14
REMARK    9  A    between atoms: C_13  and  C_15
REMARK   10  A    between atoms: C_16  and  C_17
REMARK   11  A    between atoms: C_16  and  C_18
REMARK   12  A    between atoms: C_23  and  O_24
REMARK   13  A    between atoms: O_24  and  C_25
REMARK                            x       y       z     vdW  Elec       q    Type
REMARK                         _______ _______ _______ _____ _____    ______ ____
ROOT
ATOM      1  N   UNL     1       3.077   7.202  19.384  0.00  0.00    +0.000 N 
ATOM      2  C   UNL     1       2.938   5.836  19.430  0.00  0.00    +0.000 C 
ATOM      3  O   UNL     1       1.857   5.263  19.503  0.00  0.00    +0.000 OA
ATOM      4  N   UNL     1       4.164   5.136  19.438  0.00  0.00    +0.000 N 
ATOM      5  H   UNL     1       3.761   7.567  20.031  0.00  0.00    +0.000 HD
ENDROOT
BRANCH   1   9
ATOM      6  C   UNL     1       0.117  10.117  18.710  0.00  0.00    +0.000 A 
ATOM      7  C   UNL     1       0.773   9.532  17.620  0.00  0.00    +0.000 A 
ATOM      8  C   UNL     1       1.723   8.520  17.814  0.00  0.00    +0.000 A 
ATOM      9  C   UNL     1       2.038   8.115  19.108  0.00  0.00    +0.000 A 
ATOM     10  C   UNL     1       1.391   8.706  20.211  0.00  0.00    +0.000 A 
ATOM     11  C   UNL     1       0.417   9.687  20.005  0.00  0.00    +0.000 A 
BRANCH   6  13
ATOM     12  C   UNL     1      -1.851  10.720  17.508  0.00  0.00    +0.000 C 
ATOM     13  O   UNL     1      -0.790  11.090  18.383  0.00  0.00    +0.000 OA
ENDBRANCH   6  13
BRANCH  10  14
ATOM     14  O   UNL     1       1.762   8.202  21.435  0.00  0.00    +0.000 OA
ATOM     15  C   UNL     1       1.468   8.995  22.577  0.00  0.00    +0.000 C 
ENDBRANCH  10  14
ENDBRANCH   1   9
BRANCH   4  16
ATOM     16  C   UNL     1       5.427   5.765  18.964  0.00  0.00    +0.000 C 
ATOM     17  C   UNL     1       6.706   5.365  19.710  0.00  0.00    +0.000 C 
BRANCH  16  18
ATOM     18  C   UNL     1       5.609   5.527  17.472  0.00  0.00    +0.000 A 
ATOM     19  C   UNL     1       4.827   5.931  16.405  0.00  0.00    +0.000 A 
ATOM     20  C   UNL     1       5.365   5.542  15.146  0.00  0.00    +0.000 A 
ATOM     21  C   UNL     1       6.542   4.843  15.285  0.00  0.00    +0.000 A 
ATOM     22  S   UNL     1       6.995   4.667  16.921  0.00  0.00    +0.000 S 
ENDBRANCH  16  18
ENDBRANCH   4  16
BRANCH   4  23
ATOM     23  C   UNL     1       4.122   3.717  19.834  0.00  0.00    +0.000 C 
BRANCH  23  24
ATOM     24  C   UNL     1       4.288   2.737  18.670  0.00  0.00    +0.000 C 
BRANCH  24  25
ATOM     25  C   UNL     1       2.968   2.168  18.113  0.00  0.00    +0.000 C 
ATOM     26  C   UNL     1       1.898   1.951  19.182  0.00  0.00    +0.000 C 
ATOM     27  C   UNL     1       2.432   3.112  17.032  0.00  0.00    +0.000 C 
ENDBRANCH  24  25
ENDBRANCH  23  24
ENDBRANCH   4  23
TORSDOF 8
ENDMDL
MODEL 4
REMARK VINA RESULT:      -7.0      1.894      4.554
REMARK  Name = 
REMARK  13 active torsions:
REMARK  status: ('A' for Active; 'I' for Inactive)
REMARK    1  A    between atoms: C_1  and  O_2
REMARK    2  A    between atoms: O_2  and  C_3
REMARK    3  A    between atoms: C_6  and  N_7
REMARK    4  A    between atoms: N_10  and  C_11
REMARK    5  A    between atoms: N_10  and  C_16
REMARK    6  A    between atoms: C_11  and  C_12
REMARK    7  A    between atoms: C_12  and  C_13
REMARK    8  A    between atoms: C_13  and  C_14
REMARK    9  A    between atoms: C_13  and  C_15
REMARK   10  A    between atoms: C_16  and  C_17
REMARK   11  A    between atoms: C_16  and  C_18
REMARK   12  A    between atoms: C_23  and  O_24
REMARK   13  A    between atoms: O_24  and  C_25
REMARK                            x       y       z     vdW  Elec       q    Type
REMARK                         _______ _______ _______ _____ _____    ______ ____
ROOT
ATOM      1  N   UNL     1       2.769   6.799  19.787  0.00  0.00    +0.000 N 
ATOM      2  C   UNL     1       2.438   5.702  19.028  0.00  0.00    +0.000 C 
ATOM      3  O   UNL     1       1.288   5.316  18.854  0.00  0.00    +0.000 OA
ATOM      4  N   UNL     1       3.552   5.015  18.500  0.00  0.00    +0.000 N 
ATOM      5  H   UNL     1       3.508   6.629  20.454  0.00  0.00    +0.000 HD
ENDROOT
BRANCH   1   9
ATOM      6  C   UNL     1      -0.080   9.719  20.823  0.00  0.00    +0.000 A 
ATOM      7  C   UNL     1       0.185   8.667  21.707  0.00  0.00    +0.000 A 
ATOM      8  C   UNL     1       1.167   7.712  21.411  0.00  0.00    +0.000 A 
ATOM      9  C   UNL     1       1.865   7.797  20.210  0.00  0.00    +0.000 A 
ATOM     10  C   UNL     1       1.599   8.847  19.310  0.00  0.00    +0.000 A 
ATOM     11  C   UNL     1       0.643   9.815  19.631  0.00  0.00    +0.000 A 
BRANCH   6  13
ATOM     12  C   UNL     1      -0.725  11.499  22.272  0.00  0.00    +0.000 C 
ATOM     13  O   UNL     1      -1.060  10.585  21.233  0.00  0.00    +0.000 OA
ENDBRANCH   6  13
BRANCH  10  14
ATOM     14  O   UNL     1       2.372   8.843  18.174  0.00  0.00    +0.000 OA
ATOM     15  C   UNL     1       2.604  10.097  17.546  0.00  0.00    +0.000 C 
ENDBRANCH  10  14
ENDBRANCH   1   9
BRANCH   4  16
ATOM     16  C   UNL     1       4.883   5.668  18.369  0.00  0.00    +0.000 C 
ATOM     17  C   UNL     1       5.910   5.339  19.460  0.00  0.00    +0.000 C 
BRANCH  16  18
ATOM     18  C   UNL     1       5.481   5.381  17.000  0.00  0.00    +0.000 A 
ATOM     19  C   UNL     1       5.015   5.708  15.739  0.00  0.00    +0.000 A 
ATOM     20  C   UNL     1       5.895   5.295  14.700  0.00  0.00    +0.000 A 
ATOM     21  C   UNL     1       7.008   4.653  15.193  0.00  0.00    +0.000 A 
ATOM     22  S   UNL     1       6.992   4.561  16.898  0.00  0.00    +0.000 S 
ENDBRANCH  16  18
ENDBRANCH   4  16
BRANCH   4  23
ATOM     23  C   UNL     1       3.316   3.657  17.981  0.00  0.00    +0.000 C 
BRANCH  23  24
ATOM     24  C   UNL     1       3.563   2.545  19.003  0.00  0.00    +0.000 C 
BRANCH  24  25
ATOM     25  C   UNL     1       2.290   1.991  19.674  0.00  0.00    +0.000 C 
ATOM     26  C   UNL     1       1.968   2.656  21.012  0.00  0.00    +0.000 C 
ATOM     27  C   UNL     1       1.106   2.158  18.717  0.00  0.00    +0.000 C 
ENDBRANCH  24  25
ENDBRANCH  23  24
ENDBRANCH   4  23
TORSDOF 8
ENDMDL
MODEL 5
REMARK VINA RESULT:      -7.0      2.134      4.330
REMARK  Name = 
REMARK  13 active torsions:
REMARK  status: ('A' for Active; 'I' for Inactive)
REMARK    1  A    between atoms: C_1  and  O_2
REMARK    2  A    between atoms: O_2  and  C_3
REMARK    3  A    between atoms: C_6  and  N_7
REMARK    4  A    between atoms: N_10  and  C_11
REMARK    5  A    between atoms: N_10  and  C_16
REMARK    6  A    between atoms: C_11  and  C_12
REMARK    7  A    between atoms: C_12  and  C_13
REMARK    8  A    between atoms: C_13  and  C_14
REMARK    9  A    between atoms: C_13  and  C_15
REMARK   10  A    between atoms: C_16  and  C_17
REMARK   11  A    between atoms: C_16  and  C_18
REMARK   12  A    between atoms: C_23  and  O_24
REMARK   13  A    between atoms: O_24  and  C_25
REMARK                            x       y       z     vdW  Elec       q    Type
REMARK                         _______ _______ _______ _____ _____    ______ ____
ROOT
ATOM      1  N   UNL     1       2.986   7.264  19.290  0.00  0.00    +0.000 N 
ATOM      2  C   UNL     1       2.783   5.909  19.388  0.00  0.00    +0.000 C 
ATOM      3  O   UNL     1       1.679   5.394  19.528  0.00  0.00    +0.000 OA
ATOM      4  N   UNL     1       3.971   5.148  19.366  0.00  0.00    +0.000 N 
ATOM      5  H   UNL     1       3.716   7.614  19.894  0.00  0.00    +0.000 HD
ENDROOT
BRANCH   1   9
ATOM      6  C   UNL     1       0.134  10.296  18.671  0.00  0.00    +0.000 A 
ATOM      7  C   UNL     1       0.784   9.722  17.572  0.00  0.00    +0.000 A 
ATOM      8  C   UNL     1       1.697   8.674  17.746  0.00  0.00    +0.000 A 
ATOM      9  C   UNL     1       1.982   8.220  19.030  0.00  0.00    +0.000 A 
ATOM     10  C   UNL     1       1.341   8.798  20.143  0.00  0.00    +0.000 A 
ATOM     11  C   UNL     1       0.403   9.818  19.956  0.00  0.00    +0.000 A 
BRANCH   6  13
ATOM     12  C   UNL     1      -2.122  11.063  18.583  0.00  0.00    +0.000 C 
ATOM     13  O   UNL     1      -0.736  11.309  18.363  0.00  0.00    +0.000 OA
ENDBRANCH   6  13
BRANCH  10  14
ATOM     14  O   UNL     1       1.679   8.246  21.355  0.00  0.00    +0.000 OA
ATOM     15  C   UNL     1       1.409   9.020  22.516  0.00  0.00    +0.000 C 
ENDBRANCH  10  14
ENDBRANCH   1   9
BRANCH   4  16
ATOM     16  C   UNL     1       5.241   5.698  18.816  0.00  0.00    +0.000 C 
ATOM     17  C   UNL     1       6.523   5.332  19.574  0.00  0.00    +0.000 C 
BRANCH  16  18
ATOM     18  C   UNL     1       5.388   5.321  17.349  0.00  0.00    +0.000 A 
ATOM     19  C   UNL     1       5.728   4.111  16.771  0.00  0.00    +0.000 A 
ATOM     20  C   UNL     1       5.716   4.154  15.349  0.00  0.00    +0.000 A 
ATOM     21  C   UNL     1       5.375   5.400  14.876  0.00  0.00    +0.000 A 
ATOM     22  S   UNL     1       5.064   6.504  16.140  0.00  0.00    +0.000 S 
ENDBRANCH  16  18
ENDBRANCH   4  16
BRANCH   4  23
ATOM     23  C   UNL     1       3.878   3.746  19.811  0.00  0.00    +0.000 C 
BRANCH  23  24
ATOM     24  C   UNL     1       3.075   2.844  18.871  0.00  0.00    +0.000 C 
BRANCH  24  25
ATOM     25  C   UNL     1       1.944   2.047  19.552  0.00  0.00    +0.000 C 
ATOM     26  C   UNL     1       1.719   2.434  21.013  0.00  0.00    +0.000 C 
ATOM     27  C   UNL     1       0.647   2.243  18.762  0.00  0.00    +0.000 C 
ENDBRANCH  24  25
ENDBRANCH  23  24
ENDBRANCH   4  23
TORSDOF 8
ENDMDL
MODEL 6
REMARK VINA RESULT:      -7.0      1.882      3.434
REMARK  Name = 
REMARK  13 active torsions:
REMARK  status: ('A' for Active; 'I' for Inactive)
REMARK    1  A    between atoms: C_1  and  O_2
REMARK    2  A    between atoms: O_2  and  C_3
REMARK    3  A    between atoms: C_6  and  N_7
REMARK    4  A    between atoms: N_10  and  C_11
REMARK    5  A    between atoms: N_10  and  C_16
REMARK    6  A    between atoms: C_11  and  C_12
REMARK    7  A    between atoms: C_12  and  C_13
REMARK    8  A    between atoms: C_13  and  C_14
REMARK    9  A    between atoms: C_13  and  C_15
REMARK   10  A    between atoms: C_16  and  C_17
REMARK   11  A    between atoms: C_16  and  C_18
REMARK   12  A    between atoms: C_23  and  O_24
REMARK   13  A    between atoms: O_24  and  C_25
REMARK                            x       y       z     vdW  Elec       q    Type
REMARK                         _______ _______ _______ _____ _____    ______ ____
ROOT
ATOM      1  N   UNL     1       1.906   6.921  18.976  0.00  0.00    +0.000 N 
ATOM      2  C   UNL     1       3.176   6.604  18.556  0.00  0.00    +0.000 C 
ATOM      3  O   UNL     1       4.150   7.325  18.732  0.00  0.00    +0.000 OA
ATOM      4  N   UNL     1       3.258   5.384  17.851  0.00  0.00    +0.000 N 
ATOM      5  H   UNL     1       1.198   6.801  18.266  0.00  0.00    +0.000 HD
ENDROOT
BRANCH   1   9
ATOM      6  C   UNL     1       0.706   9.959  21.629  0.00  0.00    +0.000 A 
ATOM      7  C   UNL     1       1.050   8.698  22.131  0.00  0.00    +0.000 A 
ATOM      8  C   UNL     1       1.506   7.686  21.275  0.00  0.00    +0.000 A 
ATOM      9  C   UNL     1       1.586   7.930  19.907  0.00  0.00    +0.000 A 
ATOM     10  C   UNL     1       1.232   9.192  19.392  0.00  0.00    +0.000 A 
ATOM     11  C   UNL     1       0.815  10.207  20.259  0.00  0.00    +0.000 A 
BRANCH   6  13
ATOM     12  C   UNL     1      -1.044  10.695  23.072  0.00  0.00    +0.000 C 
ATOM     13  O   UNL     1       0.279  10.859  22.571  0.00  0.00    +0.000 OA
ENDBRANCH   6  13
BRANCH  10  14
ATOM     14  O   UNL     1       1.383   9.324  18.033  0.00  0.00    +0.000 OA
ATOM     15  C   UNL     1       2.286  10.322  17.576  0.00  0.00    +0.000 C 
ENDBRANCH  10  14
ENDBRANCH   1   9
BRANCH   4  16
ATOM     16  C   UNL     1       2.204   4.340  17.971  0.00  0.00    +0.000 C 
ATOM     17  C   UNL     1       2.296   3.167  16.985  0.00  0.00    +0.000 C 
BRANCH  16  18
ATOM     18  C   UNL     1       2.145   3.807  19.395  0.00  0.00    +0.000 A 
ATOM     19  C   UNL     1       1.153   3.932  20.351  0.00  0.00    +0.000 A 
ATOM     20  C   UNL     1       1.460   3.246  21.559  0.00  0.00    +0.000 A 
ATOM     21  C   UNL     1       2.684   2.621  21.499  0.00  0.00    +0.000 A 
ATOM     22  S   UNL     1       3.450   2.855  19.991  0.00  0.00    +0.000 S 
ENDBRANCH  16  18
ENDBRANCH   4  16
BRANCH   4  23
ATOM     23  C   UNL     1       4.486   5.141  17.075  0.00  0.00    +0.000 C 
BRANCH  23  24
ATOM     24  C   UNL     1       5.635   4.544  17.892  0.00  0.00    +0.000 C 
BRANCH  24  25
ATOM     25  C   UNL     1       7.043   4.845  17.340  0.00  0.00    +0.000 C 
ATOM     26  C   UNL     1       7.133   4.759  15.817  0.00  0.00    +0.000 C 
ATOM     27  C   UNL     1       7.475   6.240  17.803  0.00  0.00    +0.000 C 
ENDBRANCH  24  25
ENDBRANCH  23  24
ENDBRANCH   4  23
TORSDOF 8
ENDMDL
MODEL 7
REMARK VINA RESULT:      -6.9      1.876      6.629
REMARK  Name = 
REMARK  13 active torsions:
REMARK  status: ('A' for Active; 'I' for Inactive)
REMARK    1  A    between atoms: C_1  and  O_2
REMARK    2  A    between atoms: O_2  and  C_3
REMARK    3  A    between atoms: C_6  and  N_7
REMARK    4  A    between atoms: N_10  and  C_11
REMARK    5  A    between atoms: N_10  and  C_16
REMARK    6  A    between atoms: C_11  and  C_12
REMARK    7  A    between atoms: C_12  and  C_13
REMARK    8  A    between atoms: C_13  and  C_14
REMARK    9  A    between atoms: C_13  and  C_15
REMARK   10  A    between atoms: C_16  and  C_17
REMARK   11  A    between atoms: C_16  and  C_18
REMARK   12  A    between atoms: C_23  and  O_24
REMARK   13  A    between atoms: O_24  and  C_25
REMARK                            x       y       z     vdW  Elec       q    Type
REMARK                         _______ _______ _______ _____ _____    ______ ____
ROOT
ATOM      1  N   UNL     1       4.383   5.413  18.874  0.00  0.00    +0.000 N 
ATOM      2  C   UNL     1       3.173   6.043  19.040  0.00  0.00    +0.000 C 
ATOM      3  O   UNL     1       2.784   6.966  18.334  0.00  0.00    +0.000 OA
ATOM      4  N   UNL     1       2.425   5.567  20.138  0.00  0.00    +0.000 N 
ATOM      5  H   UNL     1       4.913   5.313  19.728  0.00  0.00    +0.000 HD
ENDROOT
BRANCH   1   9
ATOM      6  C   UNL     1       6.872   5.427  15.481  0.00  0.00    +0.000 A 
ATOM      7  C   UNL     1       5.530   5.804  15.356  0.00  0.00    +0.000 A 
ATOM      8  C   UNL     1       4.694   5.861  16.479  0.00  0.00    +0.000 A 
ATOM      9  C   UNL     1       5.198   5.508  17.728  0.00  0.00    +0.000 A 
ATOM     10  C   UNL     1       6.545   5.117  17.861  0.00  0.00    +0.000 A 
ATOM     11  C   UNL     1       7.381   5.100  16.740  0.00  0.00    +0.000 A 
BRANCH   6  13
ATOM     12  C   UNL     1       7.102   4.566  13.269  0.00  0.00    +0.000 C 
ATOM     13  O   UNL     1       7.580   5.416  14.307  0.00  0.00    +0.000 OA
ENDBRANCH   6  13
BRANCH  10  14
ATOM     14  O   UNL     1       6.936   4.823  19.145  0.00  0.00    +0.000 OA
ATOM     15  C   UNL     1       7.904   5.678  19.738  0.00  0.00    +0.000 C 
ENDBRANCH  10  14
ENDBRANCH   1   9
BRANCH   4  16
ATOM     16  C   UNL     1       2.686   4.231  20.741  0.00  0.00    +0.000 C 
ATOM     17  C   UNL     1       1.679   3.755  21.797  0.00  0.00    +0.000 C 
BRANCH  16  18
ATOM     18  C   UNL     1       2.822   3.177  19.652  0.00  0.00    +0.000 A 
ATOM     19  C   UNL     1       2.019   2.924  18.554  0.00  0.00    +0.000 A 
ATOM     20  C   UNL     1       2.514   1.867  17.739  0.00  0.00    +0.000 A 
ATOM     21  C   UNL     1       3.678   1.334  18.240  0.00  0.00    +0.000 A 
ATOM     22  S   UNL     1       4.173   2.110  19.679  0.00  0.00    +0.000 S 
ENDBRANCH  16  18
ENDBRANCH   4  16
BRANCH   4  23
ATOM     23  C   UNL     1       1.301   6.403  20.595  0.00  0.00    +0.000 C 
BRANCH  23  24
ATOM     24  C   UNL     1       1.705   7.815  21.022  0.00  0.00    +0.000 C 
BRANCH  24  25
ATOM     25  C   UNL     1       0.528   8.793  21.212  0.00  0.00    +0.000 C 
ATOM     26  C   UNL     1       0.430   9.361  22.628  0.00  0.00    +0.000 C 
ATOM     27  C   UNL     1       0.662   9.940  20.205  0.00  0.00    +0.000 C 
ENDBRANCH  24  25
ENDBRANCH  23  24
ENDBRANCH   4  23
TORSDOF 8
ENDMDL
MODEL 8
REMARK VINA RESULT:      -6.9      1.782      3.030
REMARK  Name = 
REMARK  13 active torsions:
REMARK  status: ('A' for Active; 'I' for Inactive)
REMARK    1  A    between atoms: C_1  and  O_2
REMARK    2  A    between atoms: O_2  and  C_3
REMARK    3  A    between atoms: C_6  and  N_7
REMARK    4  A    between atoms: N_10  and  C_11
REMARK    5  A    between atoms: N_10  and  C_16
REMARK    6  A    between atoms: C_11  and  C_12
REMARK    7  A    between atoms: C_12  and  C_13
REMARK    8  A    between atoms: C_13  and  C_14
REMARK    9  A    between atoms: C_13  and  C_15
REMARK   10  A    between atoms: C_16  and  C_17
REMARK   11  A    between atoms: C_16  and  C_18
REMARK   12  A    between atoms: C_23  and  O_24
REMARK   13  A    between atoms: O_24  and  C_25
REMARK                            x       y       z     vdW  Elec       q    Type
REMARK                         _______ _______ _______ _____ _____    ______ ____
ROOT
ATOM      1  N   UNL     1       2.114   6.682  18.963  0.00  0.00    +0.000 N 
ATOM      2  C   UNL     1       3.412   6.303  18.715  0.00  0.00    +0.000 C 
ATOM      3  O   UNL     1       4.387   6.987  18.998  0.00  0.00    +0.000 OA
ATOM      4  N   UNL     1       3.528   5.063  18.050  0.00  0.00    +0.000 N 
ATOM      5  H   UNL     1       1.497   6.575  18.172  0.00  0.00    +0.000 HD
ENDROOT
BRANCH   1   9
ATOM      6  C   UNL     1       0.719   9.824  21.391  0.00  0.00    +0.000 A 
ATOM      7  C   UNL     1       0.994   8.577  21.964  0.00  0.00    +0.000 A 
ATOM      8  C   UNL     1       1.512   7.530  21.189  0.00  0.00    +0.000 A 
ATOM      9  C   UNL     1       1.725   7.727  19.827  0.00  0.00    +0.000 A 
ATOM     10  C   UNL     1       1.441   8.975  19.240  0.00  0.00    +0.000 A 
ATOM     11  C   UNL     1       0.960  10.024  20.029  0.00  0.00    +0.000 A 
BRANCH   6  13
ATOM     12  C   UNL     1      -0.861  10.360  23.094  0.00  0.00    +0.000 C 
ATOM     13  O   UNL     1       0.220  10.761  22.259  0.00  0.00    +0.000 OA
ENDBRANCH   6  13
BRANCH  10  14
ATOM     14  O   UNL     1       1.721   9.058  17.897  0.00  0.00    +0.000 OA
ATOM     15  C   UNL     1       2.403  10.222  17.450  0.00  0.00    +0.000 C 
ENDBRANCH  10  14
ENDBRANCH   1   9
BRANCH   4  16
ATOM     16  C   UNL     1       2.422   4.067  18.054  0.00  0.00    +0.000 C 
ATOM     17  C   UNL     1       2.564   2.892  17.078  0.00  0.00    +0.000 C 
BRANCH  16  18
ATOM     18  C   UNL     1       2.193   3.538  19.462  0.00  0.00    +0.000 A 
ATOM     19  C   UNL     1       1.051   3.550  20.242  0.00  0.00    +0.000 A 
ATOM     20  C   UNL     1       1.232   2.910  21.500  0.00  0.00    +0.000 A 
ATOM     21  C   UNL     1       2.513   2.432  21.653  0.00  0.00    +0.000 A 
ATOM     22  S   UNL     1       3.483   2.747  20.284  0.00  0.00    +0.000 S 
ENDBRANCH  16  18
ENDBRANCH   4  16
BRANCH   4  23
ATOM     23  C   UNL     1       4.833   4.751  17.440  0.00  0.00    +0.000 C 
BRANCH  23  24
ATOM     24  C   UNL     1       4.973   5.219  15.990  0.00  0.00    +0.000 C 
BRANCH  24  25
ATOM     25  C   UNL     1       5.861   4.320  15.106  0.00  0.00    +0.000 C 
ATOM     26  C   UNL     1       5.301   4.102  13.700  0.00  0.00    +0.000 C 
ATOM     27  C   UNL     1       7.261   4.936  15.012  0.00  0.00    +0.000 C 
ENDBRANCH  24  25
ENDBRANCH  23  24
ENDBRANCH   4  23
TORSDOF 8
ENDMDL
MODEL 9
REMARK VINA RESULT:      -6.7      2.112      3.270
REMARK  Name = 
REMARK  13 active torsions:
REMARK  status: ('A' for Active; 'I' for Inactive)
REMARK    1  A    between atoms: C_1  and  O_2
REMARK    2  A    between atoms: O_2  and  C_3
REMARK    3  A    between atoms: C_6  and  N_7
REMARK    4  A    between atoms: N_10  and  C_11
REMARK    5  A    between atoms: N_10  and  C_16
REMARK    6  A    between atoms: C_11  and  C_12
REMARK    7  A    between atoms: C_12  and  C_13
REMARK    8  A    between atoms: C_13  and  C_14
REMARK    9  A    between atoms: C_13  and  C_15
REMARK   10  A    between atoms: C_16  and  C_17
REMARK   11  A    between atoms: C_16  and  C_18
REMARK   12  A    between atoms: C_23  and  O_24
REMARK   13  A    between atoms: O_24  and  C_25
REMARK                            x       y       z     vdW  Elec       q    Type
REMARK                         _______ _______ _______ _____ _____    ______ ____
ROOT
ATOM      1  N   UNL     1       1.896   7.756  18.159  0.00  0.00    +0.000 N 
ATOM      2  C   UNL     1       3.140   7.182  18.056  0.00  0.00    +0.000 C 
ATOM      3  O   UNL     1       4.187   7.820  18.057  0.00  0.00    +0.000 OA
ATOM      4  N   UNL     1       3.112   5.780  17.897  0.00  0.00    +0.000 N 
ATOM      5  H   UNL     1       1.235   7.429  17.469  0.00  0.00    +0.000 HD
ENDROOT
BRANCH   1   9
ATOM      6  C   UNL     1       1.318  11.660  19.623  0.00  0.00    +0.000 A 
ATOM      7  C   UNL     1       1.817  11.473  18.329  0.00  0.00    +0.000 A 
ATOM      8  C   UNL     1       1.967  10.185  17.797  0.00  0.00    +0.000 A 
ATOM      9  C   UNL     1       1.644   9.079  18.578  0.00  0.00    +0.000 A 
ATOM     10  C   UNL     1       1.151   9.257  19.886  0.00  0.00    +0.000 A 
ATOM     11  C   UNL     1       0.970  10.547  20.393  0.00  0.00    +0.000 A 
BRANCH   6  13
ATOM     12  C   UNL     1      -0.092  13.521  20.103  0.00  0.00    +0.000 C 
ATOM     13  O   UNL     1       1.217  12.968  20.020  0.00  0.00    +0.000 OA
ENDBRANCH   6  13
BRANCH  10  14
ATOM     14  O   UNL     1       0.838   8.094  20.547  0.00  0.00    +0.000 OA
ATOM     15  C   UNL     1      -0.067   8.195  21.639  0.00  0.00    +0.000 C 
ENDBRANCH  10  14
ENDBRANCH   1   9
BRANCH   4  16
ATOM     16  C   UNL     1       1.922   4.973  18.281  0.00  0.00    +0.000 C 
ATOM     17  C   UNL     1       1.429   3.955  17.244  0.00  0.00    +0.000 C 
BRANCH  16  18
ATOM     18  C   UNL     1       2.163   4.274  19.610  0.00  0.00    +0.000 A 
ATOM     19  C   UNL     1       2.091   4.767  20.901  0.00  0.00    +0.000 A 
ATOM     20  C   UNL     1       2.347   3.774  21.887  0.00  0.00    +0.000 A 
ATOM     21  C   UNL     1       2.618   2.548  21.324  0.00  0.00    +0.000 A 
ATOM     22  S   UNL     1       2.553   2.596  19.619  0.00  0.00    +0.000 S 
ENDBRANCH  16  18
ENDBRANCH   4  16
BRANCH   4  23
ATOM     23  C   UNL     1       4.353   5.134  17.434  0.00  0.00    +0.000 C 
BRANCH  23  24
ATOM     24  C   UNL     1       5.389   4.906  18.537  0.00  0.00    +0.000 C 
BRANCH  24  25
ATOM     25  C   UNL     1       6.849   4.842  18.048  0.00  0.00    +0.000 C 
ATOM     26  C   UNL     1       6.979   4.695  16.532  0.00  0.00    +0.000 C 
ATOM     27  C   UNL     1       7.589   6.102  18.508  0.00  0.00    +0.000 C 
ENDBRANCH  24  25
ENDBRANCH  23  24
ENDBRANCH   4  23
TORSDOF 8
ENDMDL
