MODEL 1
REMARK VINA RESULT:      -8.0      0.000      0.000
REMARK  Name = 
REMARK  12 active torsions:
REMARK  status: ('A' for Active; 'I' for Inactive)
REMARK    1  A    between atoms: C_1  and  C_2
REMARK    2  A    between atoms: N_5  and  C_6
REMARK    3  A    between atoms: C_6  and  C_7
REMARK    4  A    between atoms: N_11  and  C_12
REMARK    5  A    between atoms: C_12  and  C_13
REMARK    6  A    between atoms: C_13  and  C_14
REMARK    7  A    between atoms: C_14  and  C_15
REMARK    8  A    between atoms: N_17  and  C_18
REMARK    9  A    between atoms: C_18  and  C_19
REMARK   10  A    between atoms: C_19  and  C_20
REMARK   11  A    between atoms: C_19  and  C_21
REMARK   12  A    between atoms: C_19  and  N_22
REMARK                            x       y       z     vdW  Elec       q    Type
REMARK                         _______ _______ _______ _____ _____    ______ ____
ROOT
ATOM      1  C   UNL     1       7.490   7.594  17.767  0.00  0.00    +0.000 C 
ENDROOT
BRANCH   1   2
ATOM      2  C   UNL     1       7.421   6.049  17.872  0.00  0.00    +0.000 C 
BRANCH   2   7
ATOM      3  C   UNL     1       5.767   4.431  16.717  0.00  0.00    +0.000 A 
ATOM      4  N   UNL     1       5.729   3.953  15.483  0.00  0.00    +0.000 NA
ATOM      5  N   UNL     1       6.781   4.503  14.809  0.00  0.00    +0.000 NA
ATOM      6  N   UNL     1       7.469   5.319  15.589  0.00  0.00    +0.000 NA
ATOM      7  N   UNL     1       6.824   5.324  16.773  0.00  0.00    +0.000 N 
BRANCH   3   8
ATOM      8  C   UNL     1       4.885   3.942  17.837  0.00  0.00    +0.000 C 
BRANCH   8  13
ATOM      9  C   UNL     1       0.952   3.839  20.602  0.00  0.00    +0.000 C 
ATOM     10  C   UNL     1       1.555   3.181  19.361  0.00  0.00    +0.000 C 
ATOM     11  C   UNL     1       2.813   2.360  19.680  0.00  0.00    +0.000 C 
ATOM     12  C   UNL     1       3.568   1.932  18.406  0.00  0.00    +0.000 C 
ATOM     13  N   UNL     1       3.817   3.008  17.422  0.00  0.00    +0.000 NA
ATOM     14  C   UNL     1       2.550   3.670  17.105  0.00  0.00    +0.000 C 
ATOM     15  C   UNL     1       1.891   4.265  18.346  0.00  0.00    +0.000 C 
ENDBRANCH   8  13
ENDBRANCH   3   8
ENDBRANCH   2   7
ENDBRANCH   1   2
BRANCH   1  16
ATOM     16  C   UNL     1       8.590   8.370  18.507  0.00  0.00    +0.000 C 
BRANCH  16  17
ATOM     17  C   UNL     1       8.617   9.902  18.410  0.00  0.00    +0.000 C 
ATOM     18  O   UNL     1       7.988  10.524  17.557  0.00  0.00    +0.000 OA
ATOM     19  N   UNL     1       9.397  10.508  19.380  0.00  0.00    +0.000 N 
ATOM     20  H   UNL     1       9.709   9.923  20.148  0.00  0.00    +0.000 HD
BRANCH  19  21
ATOM     21  C   UNL     1       9.595  11.968  19.490  0.00  0.00    +0.000 C 
BRANCH  21  22
ATOM     22  C   UNL     1      11.011  12.521  19.031  0.00  0.00    +0.000 C 
ATOM     23  C   UNL     1      12.100  11.960  19.989  0.00  0.00    +0.000 C 
ATOM     24  C   UNL     1      11.354  11.950  17.633  0.00  0.00    +0.000 C 
BRANCH  22  25
ATOM     25  N   UNL     1      11.202  14.006  19.009  0.00  0.00    +0.000 NA
ATOM     26  C   UNL     1      11.046  14.762  20.264  0.00  0.00    +0.000 C 
ATOM     27  C   UNL     1       9.604  15.202  20.545  0.00  0.00    +0.000 C 
ATOM     28  O   UNL     1       9.098  16.008  19.474  0.00  0.00    +0.000 OA
ATOM     29  C   UNL     1       9.168  15.310  18.226  0.00  0.00    +0.000 C 
ATOM     30  C   UNL     1      10.589  14.806  17.928  0.00  0.00    +0.000 C 
ENDBRANCH  22  25
ENDBRANCH  21  22
ENDBRANCH  19  21
ENDBRANCH  16  17
ENDBRANCH   1  16
TORSDOF 9
ENDMDL
MODEL 2
REMARK VINA RESULT:      -7.7      5.902      9.353
REMARK  Name = 
REMARK  12 active torsions:
REMARK  status: ('A' for Active; 'I' for Inactive)
REMARK    1  A    between atoms: C_1  and  C_2
REMARK    2  A    between atoms: N_5  and  C_6
REMARK    3  A    between atoms: C_6  and  C_7
REMARK    4  A    between atoms: N_11  and  C_12
REMARK    5  A    between atoms: C_12  and  C_13
REMARK    6  A    between atoms: C_13  and  C_14
REMARK    7  A    between atoms: C_14  and  C_15
REMARK    8  A    between atoms: N_17  and  C_18
REMARK    9  A    between atoms: C_18  and  C_19
REMARK   10  A    between atoms: C_19  and  C_20
REMARK   11  A    between atoms: C_19  and  C_21
REMARK   12  A    between atoms: C_19  and  N_22
REMARK                            x       y       z     vdW  Elec       q    Type
REMARK                         _______ _______ _______ _____ _____    ______ ____
ROOT
ATOM      1  C   UNL     1       1.827   7.590  17.960  0.00  0.00    +0.000 C 
ENDROOT
BRANCH   1   2
ATOM      2  C   UNL     1       2.608   6.566  18.821  0.00  0.00    +0.000 C 
BRANCH   2   7
ATOM      3  C   UNL     1       3.698   4.293  18.245  0.00  0.00    +0.000 A 
ATOM      4  N   UNL     1       3.216   3.220  17.638  0.00  0.00    +0.000 NA
ATOM      5  N   UNL     1       1.910   3.484  17.338  0.00  0.00    +0.000 NA
ATOM      6  N   UNL     1       1.565   4.691  17.751  0.00  0.00    +0.000 NA
ATOM      7  N   UNL     1       2.655   5.195  18.363  0.00  0.00    +0.000 N 
BRANCH   3   8
ATOM      8  C   UNL     1       5.154   4.484  18.587  0.00  0.00    +0.000 C 
BRANCH   8  13
ATOM      9  C   UNL     1       7.793   8.446  17.907  0.00  0.00    +0.000 C 
ATOM     10  C   UNL     1       7.520   7.074  17.290  0.00  0.00    +0.000 C 
ATOM     11  C   UNL     1       6.083   6.936  16.767  0.00  0.00    +0.000 C 
ATOM     12  C   UNL     1       5.732   5.480  16.403  0.00  0.00    +0.000 C 
ATOM     13  N   UNL     1       6.070   4.469  17.429  0.00  0.00    +0.000 NA
ATOM     14  C   UNL     1       7.481   4.611  17.795  0.00  0.00    +0.000 C 
ATOM     15  C   UNL     1       7.792   6.003  18.338  0.00  0.00    +0.000 C 
ENDBRANCH   8  13
ENDBRANCH   3   8
ENDBRANCH   2   7
ENDBRANCH   1   2
BRANCH   1  16
ATOM     16  C   UNL     1       2.376   9.011  17.761  0.00  0.00    +0.000 C 
BRANCH  16  17
ATOM     17  C   UNL     1       1.619  10.197  18.376  0.00  0.00    +0.000 C 
ATOM     18  O   UNL     1       2.035  11.352  18.317  0.00  0.00    +0.000 OA
ATOM     19  N   UNL     1       0.424   9.843  18.978  0.00  0.00    +0.000 N 
ATOM     20  H   UNL     1       0.080   8.905  18.798  0.00  0.00    +0.000 HD
BRANCH  19  21
ATOM     21  C   UNL     1      -0.479  10.799  19.652  0.00  0.00    +0.000 C 
BRANCH  21  22
ATOM     22  C   UNL     1      -1.693  11.348  18.788  0.00  0.00    +0.000 C 
ATOM     23  C   UNL     1      -2.649  12.145  19.720  0.00  0.00    +0.000 C 
ATOM     24  C   UNL     1      -1.164  12.377  17.759  0.00  0.00    +0.000 C 
BRANCH  22  25
ATOM     25  N   UNL     1      -2.547  10.346  18.077  0.00  0.00    +0.000 NA
ATOM     26  C   UNL     1      -2.142   9.890  16.736  0.00  0.00    +0.000 C 
ATOM     27  C   UNL     1      -2.667  10.774  15.598  0.00  0.00    +0.000 C 
ATOM     28  O   UNL     1      -4.097  10.851  15.627  0.00  0.00    +0.000 OA
ATOM     29  C   UNL     1      -4.560  11.343  16.890  0.00  0.00    +0.000 C 
ATOM     30  C   UNL     1      -4.016  10.514  18.064  0.00  0.00    +0.000 C 
ENDBRANCH  22  25
ENDBRANCH  21  22
ENDBRANCH  19  21
ENDBRANCH  16  17
ENDBRANCH   1  16
TORSDOF 9
ENDMDL
MODEL 3
REMARK VINA RESULT:      -7.6      6.245      8.736
REMARK  Name = 
REMARK  12 active torsions:
REMARK  status: ('A' for Active; 'I' for Inactive)
REMARK    1  A    between atoms: C_1  and  C_2
REMARK    2  A    between atoms: N_5  and  C_6
REMARK    3  A    between atoms: C_6  and  C_7
REMARK    4  A    between atoms: N_11  and  C_12
REMARK    5  A    between atoms: C_12  and  C_13
REMARK    6  A    between atoms: C_13  and  C_14
REMARK    7  A    between atoms: C_14  and  C_15
REMARK    8  A    between atoms: N_17  and  C_18
REMARK    9  A    between atoms: C_18  and  C_19
REMARK   10  A    between atoms: C_19  and  C_20
REMARK   11  A    between atoms: C_19  and  C_21
REMARK   12  A    between atoms: C_19  and  N_22
REMARK                            x       y       z     vdW  Elec       q    Type
REMARK                         _______ _______ _______ _____ _____    ______ ____
ROOT
ATOM      1  C   UNL     1       2.840   7.541  18.263  0.00  0.00    +0.000 C 
ENDROOT
BRANCH   1   2
ATOM      2  C   UNL     1       2.358   6.288  19.038  0.00  0.00    +0.000 C 
BRANCH   2   7
ATOM      3  C   UNL     1       3.741   4.246  18.260  0.00  0.00    +0.000 A 
ATOM      4  N   UNL     1       3.411   3.195  17.525  0.00  0.00    +0.000 NA
ATOM      5  N   UNL     1       2.089   3.327  17.210  0.00  0.00    +0.000 NA
ATOM      6  N   UNL     1       1.584   4.428  17.738  0.00  0.00    +0.000 NA
ATOM      7  N   UNL     1       2.589   4.993  18.438  0.00  0.00    +0.000 N 
BRANCH   3   8
ATOM      8  C   UNL     1       5.153   4.577  18.670  0.00  0.00    +0.000 C 
BRANCH   8  13
ATOM      9  C   UNL     1       7.740   8.542  17.829  0.00  0.00    +0.000 C 
ATOM     10  C   UNL     1       7.545   7.114  17.318  0.00  0.00    +0.000 C 
ATOM     11  C   UNL     1       6.153   6.889  16.710  0.00  0.00    +0.000 C 
ATOM     12  C   UNL     1       5.863   5.397  16.452  0.00  0.00    +0.000 C 
ATOM     13  N   UNL     1       6.150   4.489  17.585  0.00  0.00    +0.000 NA
ATOM     14  C   UNL     1       7.527   4.705  18.035  0.00  0.00    +0.000 C 
ATOM     15  C   UNL     1       7.765   6.147  18.473  0.00  0.00    +0.000 C 
ENDBRANCH   8  13
ENDBRANCH   3   8
ENDBRANCH   2   7
ENDBRANCH   1   2
BRANCH   1  16
ATOM     16  C   UNL     1       1.885   8.722  18.032  0.00  0.00    +0.000 C 
BRANCH  16  17
ATOM     17  C   UNL     1       1.104   9.296  19.223  0.00  0.00    +0.000 C 
ATOM     18  O   UNL     1       1.428   9.087  20.390  0.00  0.00    +0.000 OA
ATOM     19  N   UNL     1       0.023  10.078  18.855  0.00  0.00    +0.000 N 
ATOM     20  H   UNL     1      -0.037  10.347  17.878  0.00  0.00    +0.000 HD
BRANCH  19  21
ATOM     21  C   UNL     1      -0.892  10.730  19.816  0.00  0.00    +0.000 C 
BRANCH  21  22
ATOM     22  C   UNL     1      -1.619  12.048  19.310  0.00  0.00    +0.000 C 
ATOM     23  C   UNL     1      -0.676  12.791  18.323  0.00  0.00    +0.000 C 
ATOM     24  C   UNL     1      -2.865  11.656  18.477  0.00  0.00    +0.000 C 
BRANCH  22  25
ATOM     25  N   UNL     1      -2.022  13.057  20.339  0.00  0.00    +0.000 NA
ATOM     26  C   UNL     1      -1.009  13.996  20.850  0.00  0.00    +0.000 C 
ATOM     27  C   UNL     1      -0.216  13.458  22.048  0.00  0.00    +0.000 C 
ATOM     28  O   UNL     1      -1.091  13.118  23.130  0.00  0.00    +0.000 OA
ATOM     29  C   UNL     1      -2.073  12.161  22.716  0.00  0.00    +0.000 C 
ATOM     30  C   UNL     1      -2.859  12.639  21.485  0.00  0.00    +0.000 C 
ENDBRANCH  22  25
ENDBRANCH  21  22
ENDBRANCH  19  21
ENDBRANCH  16  17
ENDBRANCH   1  16
TORSDOF 9
ENDMDL
MODEL 4
REMARK VINA RESULT:      -7.5      5.457      6.833
REMARK  Name = 
REMARK  12 active torsions:
REMARK  status: ('A' for Active; 'I' for Inactive)
REMARK    1  A    between atoms: C_1  and  C_2
REMARK    2  A    between atoms: N_5  and  C_6
REMARK    3  A    between atoms: C_6  and  C_7
REMARK    4  A    between atoms: N_11  and  C_12
REMARK    5  A    between atoms: C_12  and  C_13
REMARK    6  A    between atoms: C_13  and  C_14
REMARK    7  A    between atoms: C_14  and  C_15
REMARK    8  A    between atoms: N_17  and  C_18
REMARK    9  A    between atoms: C_18  and  C_19
REMARK   10  A    between atoms: C_19  and  C_20
REMARK   11  A    between atoms: C_19  and  C_21
REMARK   12  A    between atoms: C_19  and  N_22
REMARK                            x       y       z     vdW  Elec       q    Type
REMARK                         _______ _______ _______ _____ _____    ______ ____
ROOT
ATOM      1  C   UNL     1       3.269   8.071  17.482  0.00  0.00    +0.000 C 
ENDROOT
BRANCH   1   2
ATOM      2  C   UNL     1       4.286   6.949  17.812  0.00  0.00    +0.000 C 
BRANCH   2   7
ATOM      3  C   UNL     1       4.699   4.731  16.548  0.00  0.00    +0.000 A 
ATOM      4  N   UNL     1       5.371   4.469  15.438  0.00  0.00    +0.000 NA
ATOM      5  N   UNL     1       5.858   5.658  14.975  0.00  0.00    +0.000 NA
ATOM      6  N   UNL     1       5.498   6.655  15.764  0.00  0.00    +0.000 NA
ATOM      7  N   UNL     1       4.733   6.103  16.728  0.00  0.00    +0.000 N 
BRANCH   3   8
ATOM      8  C   UNL     1       4.148   3.672  17.468  0.00  0.00    +0.000 C 
BRANCH   8  13
ATOM      9  C   UNL     1       1.355   3.186  21.352  0.00  0.00    +0.000 C 
ATOM     10  C   UNL     1       1.312   3.062  19.829  0.00  0.00    +0.000 C 
ATOM     11  C   UNL     1       2.203   1.928  19.303  0.00  0.00    +0.000 C 
ATOM     12  C   UNL     1       2.373   1.982  17.772  0.00  0.00    +0.000 C 
ATOM     13  N   UNL     1       2.739   3.306  17.219  0.00  0.00    +0.000 NA
ATOM     14  C   UNL     1       1.780   4.305  17.694  0.00  0.00    +0.000 C 
ATOM     15  C   UNL     1       1.749   4.387  19.218  0.00  0.00    +0.000 C 
ENDBRANCH   8  13
ENDBRANCH   3   8
ENDBRANCH   2   7
ENDBRANCH   1   2
BRANCH   1  16
ATOM     16  C   UNL     1       1.843   8.014  18.051  0.00  0.00    +0.000 C 
BRANCH  16  17
ATOM     17  C   UNL     1       1.581   8.552  19.465  0.00  0.00    +0.000 C 
ATOM     18  O   UNL     1       1.796   7.888  20.477  0.00  0.00    +0.000 OA
ATOM     19  N   UNL     1       1.102   9.851  19.486  0.00  0.00    +0.000 N 
ATOM     20  H   UNL     1       1.150  10.371  18.617  0.00  0.00    +0.000 HD
BRANCH  19  21
ATOM     21  C   UNL     1       0.759  10.586  20.722  0.00  0.00    +0.000 C 
BRANCH  21  22
ATOM     22  C   UNL     1      -0.357  11.706  20.586  0.00  0.00    +0.000 C 
ATOM     23  C   UNL     1      -1.341  11.296  19.454  0.00  0.00    +0.000 C 
ATOM     24  C   UNL     1      -1.207  11.739  21.881  0.00  0.00    +0.000 C 
BRANCH  22  25
ATOM     25  N   UNL     1       0.091  13.097  20.264  0.00  0.00    +0.000 NA
ATOM     26  C   UNL     1       0.414  13.436  18.868  0.00  0.00    +0.000 C 
ATOM     27  C   UNL     1       1.870  13.144  18.483  0.00  0.00    +0.000 C 
ATOM     28  O   UNL     1       2.777  13.856  19.333  0.00  0.00    +0.000 OA
ATOM     29  C   UNL     1       2.554  13.531  20.710  0.00  0.00    +0.000 C 
ATOM     30  C   UNL     1       1.093  13.761  21.126  0.00  0.00    +0.000 C 
ENDBRANCH  22  25
ENDBRANCH  21  22
ENDBRANCH  19  21
ENDBRANCH  16  17
ENDBRANCH   1  16
TORSDOF 9
ENDMDL
MODEL 5
REMARK VINA RESULT:      -7.5      5.841      7.266
REMARK  Name = 
REMARK  12 active torsions:
REMARK  status: ('A' for Active; 'I' for Inactive)
REMARK    1  A    between atoms: C_1  and  C_2
REMARK    2  A    between atoms: N_5  and  C_6
REMARK    3  A    between atoms: C_6  and  C_7
REMARK    4  A    between atoms: N_11  and  C_12
REMARK    5  A    between atoms: C_12  and  C_13
REMARK    6  A    between atoms: C_13  and  C_14
REMARK    7  A    between atoms: C_14  and  C_15
REMARK    8  A    between atoms: N_17  and  C_18
REMARK    9  A    between atoms: C_18  and  C_19
REMARK   10  A    between atoms: C_19  and  C_20
REMARK   11  A    between atoms: C_19  and  C_21
REMARK   12  A    between atoms: C_19  and  N_22
REMARK                            x       y       z     vdW  Elec       q    Type
REMARK                         _______ _______ _______ _____ _____    ______ ____
ROOT
ATOM      1  C   UNL     1       4.013   7.355  17.732  0.00  0.00    +0.000 C 
ENDROOT
BRANCH   1   2
ATOM      2  C   UNL     1       4.602   7.087  16.323  0.00  0.00    +0.000 C 
BRANCH   2   7
ATOM      3  C   UNL     1       5.228   4.579  16.350  0.00  0.00    +0.000 A 
ATOM      4  N   UNL     1       6.389   3.965  16.185  0.00  0.00    +0.000 NA
ATOM      5  N   UNL     1       7.322   4.933  15.949  0.00  0.00    +0.000 NA
ATOM      6  N   UNL     1       6.770   6.134  15.952  0.00  0.00    +0.000 NA
ATOM      7  N   UNL     1       5.452   5.931  16.155  0.00  0.00    +0.000 N 
BRANCH   3   8
ATOM      8  C   UNL     1       3.968   3.887  16.804  0.00  0.00    +0.000 C 
BRANCH   8  13
ATOM      9  C   UNL     1       0.815   4.277  20.415  0.00  0.00    +0.000 C 
ATOM     10  C   UNL     1       2.052   3.485  19.992  0.00  0.00    +0.000 C 
ATOM     11  C   UNL     1       3.310   4.361  19.892  0.00  0.00    +0.000 C 
ATOM     12  C   UNL     1       4.479   3.628  19.207  0.00  0.00    +0.000 C 
ATOM     13  N   UNL     1       4.146   2.952  17.933  0.00  0.00    +0.000 NA
ATOM     14  C   UNL     1       3.001   2.065  18.147  0.00  0.00    +0.000 C 
ATOM     15  C   UNL     1       1.776   2.825  18.648  0.00  0.00    +0.000 C 
ENDBRANCH   8  13
ENDBRANCH   3   8
ENDBRANCH   2   7
ENDBRANCH   1   2
BRANCH   1  16
ATOM     16  C   UNL     1       2.495   7.307  17.958  0.00  0.00    +0.000 C 
BRANCH  16  17
ATOM     17  C   UNL     1       1.884   8.124  19.105  0.00  0.00    +0.000 C 
ATOM     18  O   UNL     1       1.955   7.772  20.280  0.00  0.00    +0.000 OA
ATOM     19  N   UNL     1       1.270   9.293  18.690  0.00  0.00    +0.000 N 
ATOM     20  H   UNL     1       1.440   9.586  17.734  0.00  0.00    +0.000 HD
BRANCH  19  21
ATOM     21  C   UNL     1       0.596  10.242  19.601  0.00  0.00    +0.000 C 
BRANCH  21  22
ATOM     22  C   UNL     1       0.885  11.783  19.350  0.00  0.00    +0.000 C 
ATOM     23  C   UNL     1       1.412  12.415  20.669  0.00  0.00    +0.000 C 
ATOM     24  C   UNL     1       2.043  11.926  18.331  0.00  0.00    +0.000 C 
BRANCH  22  25
ATOM     25  N   UNL     1      -0.259  12.640  18.906  0.00  0.00    +0.000 NA
ATOM     26  C   UNL     1      -1.004  13.412  19.916  0.00  0.00    +0.000 C 
ATOM     27  C   UNL     1      -2.159  12.635  20.560  0.00  0.00    +0.000 C 
ATOM     28  O   UNL     1      -3.091  12.189  19.567  0.00  0.00    +0.000 OA
ATOM     29  C   UNL     1      -2.442  11.382  18.578  0.00  0.00    +0.000 C 
ATOM     30  C   UNL     1      -1.244  12.105  17.942  0.00  0.00    +0.000 C 
ENDBRANCH  22  25
ENDBRANCH  21  22
ENDBRANCH  19  21
ENDBRANCH  16  17
ENDBRANCH   1  16
TORSDOF 9
ENDMDL
MODEL 6
REMARK VINA RESULT:      -7.5      5.954      7.533
REMARK  Name = 
REMARK  12 active torsions:
REMARK  status: ('A' for Active; 'I' for Inactive)
REMARK    1  A    between atoms: C_1  and  C_2
REMARK    2  A    between atoms: N_5  and  C_6
REMARK    3  A    between atoms: C_6  and  C_7
REMARK    4  A    between atoms: N_11  and  C_12
REMARK    5  A    between atoms: C_12  and  C_13
REMARK    6  A    between atoms: C_13  and  C_14
REMARK    7  A    between atoms: C_14  and  C_15
REMARK    8  A    between atoms: N_17  and  C_18
REMARK    9  A    between atoms: C_18  and  C_19
REMARK   10  A    between atoms: C_19  and  C_20
REMARK   11  A    between atoms: C_19  and  C_21
REMARK   12  A    between atoms: C_19  and  N_22
REMARK                            x       y       z     vdW  Elec       q    Type
REMARK                         _______ _______ _______ _____ _____    ______ ____
ROOT
ATOM      1  C   UNL     1       3.004   7.526  17.970  0.00  0.00    +0.000 C 
ENDROOT
BRANCH   1   2
ATOM      2  C   UNL     1       4.476   7.372  17.512  0.00  0.00    +0.000 C 
BRANCH   2   7
ATOM      3  C   UNL     1       4.628   4.951  16.615  0.00  0.00    +0.000 A 
ATOM      4  N   UNL     1       5.202   4.454  15.530  0.00  0.00    +0.000 NA
ATOM      5  N   UNL     1       5.750   5.505  14.852  0.00  0.00    +0.000 NA
ATOM      6  N   UNL     1       5.523   6.645  15.481  0.00  0.00    +0.000 NA
ATOM      7  N   UNL     1       4.783   6.326  16.562  0.00  0.00    +0.000 N 
BRANCH   3   8
ATOM      8  C   UNL     1       4.058   4.108  17.727  0.00  0.00    +0.000 C 
BRANCH   8  13
ATOM      9  C   UNL     1       1.337   2.675  21.424  0.00  0.00    +0.000 C 
ATOM     10  C   UNL     1       1.396   2.628  19.897  0.00  0.00    +0.000 C 
ATOM     11  C   UNL     1       2.584   1.806  19.376  0.00  0.00    +0.000 C 
ATOM     12  C   UNL     1       2.799   1.988  17.861  0.00  0.00    +0.000 C 
ATOM     13  N   UNL     1       2.815   3.388  17.384  0.00  0.00    +0.000 NA
ATOM     14  C   UNL     1       1.600   4.065  17.844  0.00  0.00    +0.000 C 
ATOM     15  C   UNL     1       1.482   4.052  19.366  0.00  0.00    +0.000 C 
ENDBRANCH   8  13
ENDBRANCH   3   8
ENDBRANCH   2   7
ENDBRANCH   1   2
BRANCH   1  16
ATOM     16  C   UNL     1       2.620   7.279  19.436  0.00  0.00    +0.000 C 
BRANCH  16  17
ATOM     17  C   UNL     1       1.622   8.227  20.117  0.00  0.00    +0.000 C 
ATOM     18  O   UNL     1       1.388   8.189  21.322  0.00  0.00    +0.000 OA
ATOM     19  N   UNL     1       1.034   9.132  19.249  0.00  0.00    +0.000 N 
ATOM     20  H   UNL     1       1.440   9.209  18.323  0.00  0.00    +0.000 HD
BRANCH  19  21
ATOM     21  C   UNL     1       0.031  10.137  19.658  0.00  0.00    +0.000 C 
BRANCH  21  22
ATOM     22  C   UNL     1       0.455  11.659  19.497  0.00  0.00    +0.000 C 
ATOM     23  C   UNL     1       0.969  12.181  20.868  0.00  0.00    +0.000 C 
ATOM     24  C   UNL     1       1.668  11.752  18.538  0.00  0.00    +0.000 C 
BRANCH  22  25
ATOM     25  N   UNL     1      -0.594  12.628  19.049  0.00  0.00    +0.000 NA
ATOM     26  C   UNL     1      -1.379  13.348  20.066  0.00  0.00    +0.000 C 
ATOM     27  C   UNL     1      -2.630  12.592  20.530  0.00  0.00    +0.000 C 
ATOM     28  O   UNL     1      -3.494  12.305  19.424  0.00  0.00    +0.000 OA
ATOM     29  C   UNL     1      -2.807  11.554  18.416  0.00  0.00    +0.000 C 
ATOM     30  C   UNL     1      -1.518  12.253  17.957  0.00  0.00    +0.000 C 
ENDBRANCH  22  25
ENDBRANCH  21  22
ENDBRANCH  19  21
ENDBRANCH  16  17
ENDBRANCH   1  16
TORSDOF 9
ENDMDL
MODEL 7
REMARK VINA RESULT:      -7.4      5.672      6.853
REMARK  Name = 
REMARK  12 active torsions:
REMARK  status: ('A' for Active; 'I' for Inactive)
REMARK    1  A    between atoms: C_1  and  C_2
REMARK    2  A    between atoms: N_5  and  C_6
REMARK    3  A    between atoms: C_6  and  C_7
REMARK    4  A    between atoms: N_11  and  C_12
REMARK    5  A    between atoms: C_12  and  C_13
REMARK    6  A    between atoms: C_13  and  C_14
REMARK    7  A    between atoms: C_14  and  C_15
REMARK    8  A    between atoms: N_17  and  C_18
REMARK    9  A    between atoms: C_18  and  C_19
REMARK   10  A    between atoms: C_19  and  C_20
REMARK   11  A    between atoms: C_19  and  C_21
REMARK   12  A    between atoms: C_19  and  N_22
REMARK                            x       y       z     vdW  Elec       q    Type
REMARK                         _______ _______ _______ _____ _____    ______ ____
ROOT
ATOM      1  C   UNL     1       3.190   8.092  17.255  0.00  0.00    +0.000 C 
ENDROOT
BRANCH   1   2
ATOM      2  C   UNL     1       4.172   6.978  17.699  0.00  0.00    +0.000 C 
BRANCH   2   7
ATOM      3  C   UNL     1       4.721   4.724  16.556  0.00  0.00    +0.000 A 
ATOM      4  N   UNL     1       5.464   4.438  15.499  0.00  0.00    +0.000 NA
ATOM      5  N   UNL     1       5.944   5.621  15.015  0.00  0.00    +0.000 NA
ATOM      6  N   UNL     1       5.511   6.638  15.738  0.00  0.00    +0.000 NA
ATOM      7  N   UNL     1       4.706   6.103  16.679  0.00  0.00    +0.000 N 
BRANCH   3   8
ATOM      8  C   UNL     1       4.147   3.687  17.487  0.00  0.00    +0.000 C 
BRANCH   8  13
ATOM      9  C   UNL     1       1.346   3.156  21.360  0.00  0.00    +0.000 C 
ATOM     10  C   UNL     1       1.304   3.060  19.835  0.00  0.00    +0.000 C 
ATOM     11  C   UNL     1       2.185   1.928  19.289  0.00  0.00    +0.000 C 
ATOM     12  C   UNL     1       2.357   2.008  17.760  0.00  0.00    +0.000 C 
ATOM     13  N   UNL     1       2.735   3.337  17.231  0.00  0.00    +0.000 NA
ATOM     14  C   UNL     1       1.784   4.337  17.723  0.00  0.00    +0.000 C 
ATOM     15  C   UNL     1       1.753   4.392  19.248  0.00  0.00    +0.000 C 
ENDBRANCH   8  13
ENDBRANCH   3   8
ENDBRANCH   2   7
ENDBRANCH   1   2
BRANCH   1  16
ATOM     16  C   UNL     1       1.886   8.328  18.033  0.00  0.00    +0.000 C 
BRANCH  16  17
ATOM     17  C   UNL     1       1.479   9.764  18.390  0.00  0.00    +0.000 C 
ATOM     18  O   UNL     1       2.109  10.747  18.006  0.00  0.00    +0.000 OA
ATOM     19  N   UNL     1       0.334   9.841  19.164  0.00  0.00    +0.000 N 
ATOM     20  H   UNL     1      -0.214   8.993  19.257  0.00  0.00    +0.000 HD
BRANCH  19  21
ATOM     21  C   UNL     1      -0.252  11.108  19.650  0.00  0.00    +0.000 C 
BRANCH  21  22
ATOM     22  C   UNL     1      -0.011  11.453  21.181  0.00  0.00    +0.000 C 
ATOM     23  C   UNL     1      -1.389  11.673  21.867  0.00  0.00    +0.000 C 
ATOM     24  C   UNL     1       0.612  10.224  21.889  0.00  0.00    +0.000 C 
BRANCH  22  25
ATOM     25  N   UNL     1       0.810  12.664  21.499  0.00  0.00    +0.000 NA
ATOM     26  C   UNL     1       0.122  13.918  21.848  0.00  0.00    +0.000 C 
ATOM     27  C   UNL     1      -0.235  14.785  20.634  0.00  0.00    +0.000 C 
ATOM     28  O   UNL     1       0.937  15.117  19.880  0.00  0.00    +0.000 OA
ATOM     29  C   UNL     1       1.629  13.936  19.458  0.00  0.00    +0.000 C 
ATOM     30  C   UNL     1       1.962  13.012  20.640  0.00  0.00    +0.000 C 
ENDBRANCH  22  25
ENDBRANCH  21  22
ENDBRANCH  19  21
ENDBRANCH  16  17
ENDBRANCH   1  16
TORSDOF 9
ENDMDL
MODEL 8
REMARK VINA RESULT:      -7.3      5.582      8.082
REMARK  Name = 
REMARK  12 active torsions:
REMARK  status: ('A' for Active; 'I' for Inactive)
REMARK    1  A    between atoms: C_1  and  C_2
REMARK    2  A    between atoms: N_5  and  C_6
REMARK    3  A    between atoms: C_6  and  C_7
REMARK    4  A    between atoms: N_11  and  C_12
REMARK    5  A    between atoms: C_12  and  C_13
REMARK    6  A    between atoms: C_13  and  C_14
REMARK    7  A    between atoms: C_14  and  C_15
REMARK    8  A    between atoms: N_17  and  C_18
REMARK    9  A    between atoms: C_18  and  C_19
REMARK   10  A    between atoms: C_19  and  C_20
REMARK   11  A    between atoms: C_19  and  C_21
REMARK   12  A    between atoms: C_19  and  N_22
REMARK                            x       y       z     vdW  Elec       q    Type
REMARK                         _______ _______ _______ _____ _____    ______ ____
ROOT
ATOM      1  C   UNL     1       1.920   6.268  19.987  0.00  0.00    +0.000 C 
ENDROOT
BRANCH   1   2
ATOM      2  C   UNL     1       2.503   5.023  20.700  0.00  0.00    +0.000 C 
BRANCH   2   7
ATOM      3  C   UNL     1       4.107   3.659  19.198  0.00  0.00    +0.000 A 
ATOM      4  N   UNL     1       3.916   2.559  18.486  0.00  0.00    +0.000 NA
ATOM      5  N   UNL     1       2.621   2.175  18.685  0.00  0.00    +0.000 NA
ATOM      6  N   UNL     1       2.003   3.002  19.510  0.00  0.00    +0.000 NA
ATOM      7  N   UNL     1       2.928   3.911  19.879  0.00  0.00    +0.000 N 
BRANCH   3   8
ATOM      8  C   UNL     1       5.351   4.506  19.120  0.00  0.00    +0.000 C 
BRANCH   8  13
ATOM      9  C   UNL     1       7.691   8.487  17.777  0.00  0.00    +0.000 C 
ATOM     10  C   UNL     1       7.374   7.070  17.297  0.00  0.00    +0.000 C 
ATOM     11  C   UNL     1       5.877   6.858  17.027  0.00  0.00    +0.000 C 
ATOM     12  C   UNL     1       5.527   5.373  16.815  0.00  0.00    +0.000 C 
ATOM     13  N   UNL     1       6.066   4.441  17.829  0.00  0.00    +0.000 NA
ATOM     14  C   UNL     1       7.512   4.646  17.948  0.00  0.00    +0.000 C 
ATOM     15  C   UNL     1       7.853   6.078  18.348  0.00  0.00    +0.000 C 
ENDBRANCH   8  13
ENDBRANCH   3   8
ENDBRANCH   2   7
ENDBRANCH   1   2
BRANCH   1  16
ATOM     16  C   UNL     1       2.477   6.712  18.626  0.00  0.00    +0.000 C 
BRANCH  16  17
ATOM     17  C   UNL     1       2.258   8.160  18.165  0.00  0.00    +0.000 C 
ATOM     18  O   UNL     1       2.717   8.598  17.113  0.00  0.00    +0.000 OA
ATOM     19  N   UNL     1       1.484   8.910  19.035  0.00  0.00    +0.000 N 
ATOM     20  H   UNL     1       0.995   8.403  19.765  0.00  0.00    +0.000 HD
BRANCH  19  21
ATOM     21  C   UNL     1       1.144  10.332  18.824  0.00  0.00    +0.000 C 
BRANCH  21  22
ATOM     22  C   UNL     1       0.282  11.026  19.963  0.00  0.00    +0.000 C 
ATOM     23  C   UNL     1      -0.285   9.923  20.901  0.00  0.00    +0.000 C 
ATOM     24  C   UNL     1       1.211  11.888  20.852  0.00  0.00    +0.000 C 
BRANCH  22  25
ATOM     25  N   UNL     1      -0.890  11.854  19.539  0.00  0.00    +0.000 NA
ATOM     26  C   UNL     1      -0.748  12.746  18.375  0.00  0.00    +0.000 C 
ATOM     27  C   UNL     1      -0.208  14.138  18.726  0.00  0.00    +0.000 C 
ATOM     28  O   UNL     1      -1.053  14.788  19.683  0.00  0.00    +0.000 OA
ATOM     29  C   UNL     1      -1.191  13.997  20.869  0.00  0.00    +0.000 C 
ATOM     30  C   UNL     1      -1.683  12.575  20.558  0.00  0.00    +0.000 C 
ENDBRANCH  22  25
ENDBRANCH  21  22
ENDBRANCH  19  21
ENDBRANCH  16  17
ENDBRANCH   1  16
TORSDOF 9
ENDMDL
MODEL 9
REMARK VINA RESULT:      -7.3      1.163      1.699
REMARK  Name = 
REMARK  12 active torsions:
REMARK  status: ('A' for Active; 'I' for Inactive)
REMARK    1  A    between atoms: C_1  and  C_2
REMARK    2  A    between atoms: N_5  and  C_6
REMARK    3  A    between atoms: C_6  and  C_7
REMARK    4  A    between atoms: N_11  and  C_12
REMARK    5  A    between atoms: C_12  and  C_13
REMARK    6  A    between atoms: C_13  and  C_14
REMARK    7  A    between atoms: C_14  and  C_15
REMARK    8  A    between atoms: N_17  and  C_18
REMARK    9  A    between atoms: C_18  and  C_19
REMARK   10  A    between atoms: C_19  and  C_20
REMARK   11  A    between atoms: C_19  and  C_21
REMARK   12  A    between atoms: C_19  and  N_22
REMARK                            x       y       z     vdW  Elec       q    Type
REMARK                         _______ _______ _______ _____ _____    ______ ____
ROOT
ATOM      1  C   UNL     1       6.744   6.663  18.348  0.00  0.00    +0.000 C 
ENDROOT
BRANCH   1   2
ATOM      2  C   UNL     1       5.856   6.658  17.078  0.00  0.00    +0.000 C 
BRANCH   2   7
ATOM      3  C   UNL     1       5.424   4.226  16.314  0.00  0.00    +0.000 A 
ATOM      4  N   UNL     1       5.909   3.529  15.298  0.00  0.00    +0.000 NA
ATOM      5  N   UNL     1       6.747   4.358  14.609  0.00  0.00    +0.000 NA
ATOM      6  N   UNL     1       6.789   5.556  15.164  0.00  0.00    +0.000 NA
ATOM      7  N   UNL     1       5.932   5.509  16.205  0.00  0.00    +0.000 N 
BRANCH   3   8
ATOM      8  C   UNL     1       4.595   3.631  17.423  0.00  0.00    +0.000 C 
BRANCH   8  13
ATOM      9  C   UNL     1       1.892   3.391  21.394  0.00  0.00    +0.000 C 
ATOM     10  C   UNL     1       1.772   3.520  19.875  0.00  0.00    +0.000 C 
ATOM     11  C   UNL     1       2.268   2.270  19.134  0.00  0.00    +0.000 C 
ATOM     12  C   UNL     1       2.404   2.506  17.617  0.00  0.00    +0.000 C 
ATOM     13  N   UNL     1       3.134   3.734  17.228  0.00  0.00    +0.000 NA
ATOM     14  C   UNL     1       2.531   4.884  17.904  0.00  0.00    +0.000 C 
ATOM     15  C   UNL     1       2.568   4.737  19.423  0.00  0.00    +0.000 C 
ENDBRANCH   8  13
ENDBRANCH   3   8
ENDBRANCH   2   7
ENDBRANCH   1   2
BRANCH   1  16
ATOM     16  C   UNL     1       8.105   7.374  18.337  0.00  0.00    +0.000 C 
BRANCH  16  17
ATOM     17  C   UNL     1       8.164   8.870  17.996  0.00  0.00    +0.000 C 
ATOM     18  O   UNL     1       7.443   9.385  17.145  0.00  0.00    +0.000 OA
ATOM     19  N   UNL     1       9.088   9.576  18.748  0.00  0.00    +0.000 N 
ATOM     20  H   UNL     1       9.485   9.100  19.551  0.00  0.00    +0.000 HD
BRANCH  19  21
ATOM     21  C   UNL     1       9.343  11.024  18.598  0.00  0.00    +0.000 C 
BRANCH  21  22
ATOM     22  C   UNL     1       9.758  11.805  19.917  0.00  0.00    +0.000 C 
ATOM     23  C   UNL     1       9.235  11.015  21.150  0.00  0.00    +0.000 C 
ATOM     24  C   UNL     1      11.301  11.801  20.048  0.00  0.00    +0.000 C 
BRANCH  22  25
ATOM     25  N   UNL     1       9.260  13.207  20.079  0.00  0.00    +0.000 NA
ATOM     26  C   UNL     1       8.757  13.925  18.896  0.00  0.00    +0.000 C 
ATOM     27  C   UNL     1       9.847  14.667  18.113  0.00  0.00    +0.000 C 
ATOM     28  O   UNL     1      10.524  15.612  18.950  0.00  0.00    +0.000 OA
ATOM     29  C   UNL     1      11.090  14.969  20.099  0.00  0.00    +0.000 C 
ATOM     30  C   UNL     1      10.039  14.170  20.886  0.00  0.00    +0.000 C 
ENDBRANCH  22  25
ENDBRANCH  21  22
ENDBRANCH  19  21
ENDBRANCH  16  17
ENDBRANCH   1  16
TORSDOF 9
ENDMDL
