MODEL 1
REMARK VINA RESULT:      -8.8      0.000      0.000
REMARK  Name = 
REMARK  9 active torsions:
REMARK  status: ('A' for Active; 'I' for Inactive)
REMARK    1  A    between atoms: C_1  and  C_2
REMARK    2  A    between atoms: C_6  and  C_7
REMARK    3  A    between atoms: C_7  and  N_8
REMARK    4  A    between atoms: C_9  and  C_10
REMARK    5  A    between atoms: C_10  and  N_11
REMARK    6  A    between atoms: C_14  and  C_15
REMARK    7  A    between atoms: N_17  and  C_18
REMARK    8  A    between atoms: C_18  and  C_19
REMARK    9  A    between atoms: C_19  and  C_20
REMARK                            x       y       z     vdW  Elec       q    Type
REMARK                         _______ _______ _______ _____ _____    ______ ____
ROOT
ATOM      1  C   UNL     1       2.100   8.222  19.172  0.00  0.00    +0.000 C 
ENDROOT
BRANCH   1   3
ATOM      2  N   UNL     1       2.647   5.749  18.776  0.00  0.00    +0.000 N 
ATOM      3  C   UNL     1       2.137   6.767  19.566  0.00  0.00    +0.000 A 
ATOM      4  C   UNL     1       1.819   6.191  20.788  0.00  0.00    +0.000 A 
ATOM      5  C   UNL     1       2.175   4.815  20.757  0.00  0.00    +0.000 A 
ATOM      6  C   UNL     1       2.111   3.764  21.697  0.00  0.00    +0.000 A 
ATOM      7  C   UNL     1       2.614   2.501  21.359  0.00  0.00    +0.000 A 
ATOM      8  C   UNL     1       3.190   2.281  20.112  0.00  0.00    +0.000 A 
ATOM      9  C   UNL     1       3.251   3.304  19.163  0.00  0.00    +0.000 A 
ATOM     10  C   UNL     1       2.722   4.565  19.500  0.00  0.00    +0.000 A 
BRANCH   2  11
ATOM     11  C   UNL     1       3.031   5.855  17.367  0.00  0.00    +0.000 C 
BRANCH  11  17
ATOM     12  C   UNL     1       7.681   7.697  17.662  0.00  0.00    +0.000 C 
ATOM     13  C   UNL     1       6.764   6.606  17.197  0.00  0.00    +0.000 A 
ATOM     14  C   UNL     1       7.247   5.529  16.451  0.00  0.00    +0.000 A 
ATOM     15  C   UNL     1       6.388   4.499  16.069  0.00  0.00    +0.000 A 
ATOM     16  C   UNL     1       5.034   4.552  16.402  0.00  0.00    +0.000 A 
ATOM     17  C   UNL     1       4.509   5.656  17.089  0.00  0.00    +0.000 A 
ATOM     18  C   UNL     1       5.398   6.659  17.513  0.00  0.00    +0.000 A 
ENDBRANCH  11  17
ENDBRANCH   2  11
ENDBRANCH   1   3
BRANCH   1  19
ATOM     19  N   UNL     1       0.879   8.973  19.580  0.00  0.00    +0.000 NA
ATOM     20  C   UNL     1       1.082   9.631  20.879  0.00  0.00    +0.000 C 
ATOM     21  C   UNL     1      -0.026  10.623  21.257  0.00  0.00    +0.000 C 
ATOM     22  C   UNL     1      -0.202  11.720  20.216  0.00  0.00    +0.000 C 
ATOM     23  C   UNL     1      -0.439  11.049  18.852  0.00  0.00    +0.000 C 
ATOM     24  C   UNL     1       0.574   9.946  18.507  0.00  0.00    +0.000 C 
BRANCH  22  25
ATOM     25  C   UNL     1       0.950  12.738  20.187  0.00  0.00    +0.000 C 
ATOM     26  O   UNL     1       1.790  12.779  21.084  0.00  0.00    +0.000 OA
ATOM     27  N   UNL     1       1.024  13.590  19.094  0.00  0.00    +0.000 N 
ATOM     28  H   UNL     1       0.372  13.486  18.326  0.00  0.00    +0.000 HD
BRANCH  27  29
ATOM     29  C   UNL     1       2.212  14.439  18.950  0.00  0.00    +0.000 C 
BRANCH  29  30
ATOM     30  C   UNL     1       2.096  15.891  19.441  0.00  0.00    +0.000 C 
BRANCH  30  31
ATOM     31  C   UNL     1       1.303  16.748  18.465  0.00  0.00    +0.000 A 
ATOM     32  C   UNL     1       1.948  17.450  17.433  0.00  0.00    +0.000 A 
ATOM     33  C   UNL     1       1.222  18.272  16.561  0.00  0.00    +0.000 A 
ATOM     34  C   UNL     1      -0.158  18.404  16.708  0.00  0.00    +0.000 A 
ATOM     35  C   UNL     1      -0.810  17.713  17.727  0.00  0.00    +0.000 A 
ATOM     36  C   UNL     1      -0.086  16.893  18.599  0.00  0.00    +0.000 A 
ENDBRANCH  30  31
ENDBRANCH  29  30
ENDBRANCH  27  29
ENDBRANCH  22  25
ENDBRANCH   1  19
TORSDOF 8
ENDMDL
MODEL 2
REMARK VINA RESULT:      -8.8      1.113      1.475
REMARK  Name = 
REMARK  9 active torsions:
REMARK  status: ('A' for Active; 'I' for Inactive)
REMARK    1  A    between atoms: C_1  and  C_2
REMARK    2  A    between atoms: C_6  and  C_7
REMARK    3  A    between atoms: C_7  and  N_8
REMARK    4  A    between atoms: C_9  and  C_10
REMARK    5  A    between atoms: C_10  and  N_11
REMARK    6  A    between atoms: C_14  and  C_15
REMARK    7  A    between atoms: N_17  and  C_18
REMARK    8  A    between atoms: C_18  and  C_19
REMARK    9  A    between atoms: C_19  and  C_20
REMARK                            x       y       z     vdW  Elec       q    Type
REMARK                         _______ _______ _______ _____ _____    ______ ____
ROOT
ATOM      1  C   UNL     1       2.127   7.809  20.363  0.00  0.00    +0.000 C 
ENDROOT
BRANCH   1   3
ATOM      2  N   UNL     1       2.484   5.880  18.713  0.00  0.00    +0.000 N 
ATOM      3  C   UNL     1       1.923   6.399  19.869  0.00  0.00    +0.000 A 
ATOM      4  C   UNL     1       1.287   5.342  20.503  0.00  0.00    +0.000 A 
ATOM      5  C   UNL     1       1.494   4.157  19.745  0.00  0.00    +0.000 A 
ATOM      6  C   UNL     1       1.115   2.807  19.912  0.00  0.00    +0.000 A 
ATOM      7  C   UNL     1       1.544   1.848  18.986  0.00  0.00    +0.000 A 
ATOM      8  C   UNL     1       2.353   2.213  17.915  0.00  0.00    +0.000 A 
ATOM      9  C   UNL     1       2.728   3.545  17.724  0.00  0.00    +0.000 A 
ATOM     10  C   UNL     1       2.274   4.508  18.645  0.00  0.00    +0.000 A 
BRANCH   2  11
ATOM     11  C   UNL     1       3.177   6.640  17.669  0.00  0.00    +0.000 C 
BRANCH  11  17
ATOM     12  C   UNL     1       7.823   5.686  19.282  0.00  0.00    +0.000 C 
ATOM     13  C   UNL     1       6.850   5.742  18.142  0.00  0.00    +0.000 A 
ATOM     14  C   UNL     1       7.256   5.463  16.835  0.00  0.00    +0.000 A 
ATOM     15  C   UNL     1       6.327   5.474  15.795  0.00  0.00    +0.000 A 
ATOM     16  C   UNL     1       4.991   5.793  16.048  0.00  0.00    +0.000 A 
ATOM     17  C   UNL     1       4.572   6.147  17.338  0.00  0.00    +0.000 A 
ATOM     18  C   UNL     1       5.510   6.079  18.383  0.00  0.00    +0.000 A 
ENDBRANCH  11  17
ENDBRANCH   2  11
ENDBRANCH   1   3
BRANCH   1  19
ATOM     19  N   UNL     1       0.951   8.716  20.237  0.00  0.00    +0.000 NA
ATOM     20  C   UNL     1       0.856   9.611  21.399  0.00  0.00    +0.000 C 
ATOM     21  C   UNL     1      -0.172  10.739  21.237  0.00  0.00    +0.000 C 
ATOM     22  C   UNL     1       0.106  11.607  20.017  0.00  0.00    +0.000 C 
ATOM     23  C   UNL     1       0.187  10.688  18.786  0.00  0.00    +0.000 C 
ATOM     24  C   UNL     1       1.100   9.466  18.969  0.00  0.00    +0.000 C 
BRANCH  22  25
ATOM     25  C   UNL     1       1.342  12.510  20.169  0.00  0.00    +0.000 C 
ATOM     26  O   UNL     1       1.976  12.554  21.221  0.00  0.00    +0.000 OA
ATOM     27  N   UNL     1       1.732  13.250  19.062  0.00  0.00    +0.000 N 
ATOM     28  H   UNL     1       1.247  13.138  18.180  0.00  0.00    +0.000 HD
BRANCH  27  29
ATOM     29  C   UNL     1       3.009  13.972  19.120  0.00  0.00    +0.000 C 
BRANCH  29  30
ATOM     30  C   UNL     1       2.972  15.415  19.650  0.00  0.00    +0.000 C 
BRANCH  30  31
ATOM     31  C   UNL     1       2.336  16.362  18.642  0.00  0.00    +0.000 A 
ATOM     32  C   UNL     1       1.041  16.869  18.845  0.00  0.00    +0.000 A 
ATOM     33  C   UNL     1       0.442  17.707  17.898  0.00  0.00    +0.000 A 
ATOM     34  C   UNL     1       1.126  18.051  16.733  0.00  0.00    +0.000 A 
ATOM     35  C   UNL     1       2.410  17.556  16.519  0.00  0.00    +0.000 A 
ATOM     36  C   UNL     1       3.010  16.718  17.464  0.00  0.00    +0.000 A 
ENDBRANCH  30  31
ENDBRANCH  29  30
ENDBRANCH  27  29
ENDBRANCH  22  25
ENDBRANCH   1  19
TORSDOF 8
ENDMDL
MODEL 3
REMARK VINA RESULT:      -8.8      1.227      1.758
REMARK  Name = 
REMARK  9 active torsions:
REMARK  status: ('A' for Active; 'I' for Inactive)
REMARK    1  A    between atoms: C_1  and  C_2
REMARK    2  A    between atoms: C_6  and  C_7
REMARK    3  A    between atoms: C_7  and  N_8
REMARK    4  A    between atoms: C_9  and  C_10
REMARK    5  A    between atoms: C_10  and  N_11
REMARK    6  A    between atoms: C_14  and  C_15
REMARK    7  A    between atoms: N_17  and  C_18
REMARK    8  A    between atoms: C_18  and  C_19
REMARK    9  A    between atoms: C_19  and  C_20
REMARK                            x       y       z     vdW  Elec       q    Type
REMARK                         _______ _______ _______ _____ _____    ______ ____
ROOT
ATOM      1  C   UNL     1       2.173   7.784  20.333  0.00  0.00    +0.000 C 
ENDROOT
BRANCH   1   3
ATOM      2  N   UNL     1       2.683   5.839  18.743  0.00  0.00    +0.000 N 
ATOM      3  C   UNL     1       2.013   6.370  19.834  0.00  0.00    +0.000 A 
ATOM      4  C   UNL     1       1.312   5.320  20.410  0.00  0.00    +0.000 A 
ATOM      5  C   UNL     1       1.588   4.128  19.688  0.00  0.00    +0.000 A 
ATOM      6  C   UNL     1       1.190   2.782  19.828  0.00  0.00    +0.000 A 
ATOM      7  C   UNL     1       1.704   1.812  18.957  0.00  0.00    +0.000 A 
ATOM      8  C   UNL     1       2.616   2.164  17.968  0.00  0.00    +0.000 A 
ATOM      9  C   UNL     1       3.015   3.494  17.804  0.00  0.00    +0.000 A 
ATOM     10  C   UNL     1       2.475   4.467  18.668  0.00  0.00    +0.000 A 
BRANCH   2  11
ATOM     11  C   UNL     1       3.480   6.586  17.767  0.00  0.00    +0.000 C 
BRANCH  11  17
ATOM     12  C   UNL     1       6.698   4.747  14.397  0.00  0.00    +0.000 C 
ATOM     13  C   UNL     1       6.388   5.066  15.828  0.00  0.00    +0.000 A 
ATOM     14  C   UNL     1       7.284   4.741  16.849  0.00  0.00    +0.000 A 
ATOM     15  C   UNL     1       7.000   5.090  18.169  0.00  0.00    +0.000 A 
ATOM     16  C   UNL     1       5.805   5.739  18.484  0.00  0.00    +0.000 A 
ATOM     17  C   UNL     1       4.856   6.013  17.489  0.00  0.00    +0.000 A 
ATOM     18  C   UNL     1       5.182   5.703  16.157  0.00  0.00    +0.000 A 
ENDBRANCH  11  17
ENDBRANCH   2  11
ENDBRANCH   1   3
BRANCH   1  19
ATOM     19  N   UNL     1       0.935   8.433  20.849  0.00  0.00    +0.000 NA
ATOM     20  C   UNL     1       1.243   9.318  21.981  0.00  0.00    +0.000 C 
ATOM     21  C   UNL     1       0.072  10.212  22.412  0.00  0.00    +0.000 C 
ATOM     22  C   UNL     1      -0.438  11.089  21.276  0.00  0.00    +0.000 C 
ATOM     23  C   UNL     1      -0.787  10.175  20.089  0.00  0.00    +0.000 C 
ATOM     24  C   UNL     1       0.313   9.166  19.724  0.00  0.00    +0.000 C 
BRANCH  22  25
ATOM     25  C   UNL     1       0.524  12.225  20.890  0.00  0.00    +0.000 C 
ATOM     26  O   UNL     1       1.645  12.311  21.388  0.00  0.00    +0.000 OA
ATOM     27  N   UNL     1       0.091  13.133  19.935  0.00  0.00    +0.000 N 
ATOM     28  H   UNL     1      -0.802  12.998  19.476  0.00  0.00    +0.000 HD
BRANCH  27  29
ATOM     29  C   UNL     1       1.053  14.111  19.414  0.00  0.00    +0.000 C 
BRANCH  29  30
ATOM     30  C   UNL     1       0.872  15.572  19.856  0.00  0.00    +0.000 C 
BRANCH  30  31
ATOM     31  C   UNL     1       0.962  16.527  18.674  0.00  0.00    +0.000 A 
ATOM     32  C   UNL     1      -0.177  17.201  18.203  0.00  0.00    +0.000 A 
ATOM     33  C   UNL     1      -0.102  18.047  17.090  0.00  0.00    +0.000 A 
ATOM     34  C   UNL     1       1.113  18.232  16.431  0.00  0.00    +0.000 A 
ATOM     35  C   UNL     1       2.250  17.570  16.887  0.00  0.00    +0.000 A 
ATOM     36  C   UNL     1       2.176  16.723  17.999  0.00  0.00    +0.000 A 
ENDBRANCH  30  31
ENDBRANCH  29  30
ENDBRANCH  27  29
ENDBRANCH  22  25
ENDBRANCH   1  19
TORSDOF 8
ENDMDL
MODEL 4
REMARK VINA RESULT:      -8.7      1.999      2.948
REMARK  Name = 
REMARK  9 active torsions:
REMARK  status: ('A' for Active; 'I' for Inactive)
REMARK    1  A    between atoms: C_1  and  C_2
REMARK    2  A    between atoms: C_6  and  C_7
REMARK    3  A    between atoms: C_7  and  N_8
REMARK    4  A    between atoms: C_9  and  C_10
REMARK    5  A    between atoms: C_10  and  N_11
REMARK    6  A    between atoms: C_14  and  C_15
REMARK    7  A    between atoms: N_17  and  C_18
REMARK    8  A    between atoms: C_18  and  C_19
REMARK    9  A    between atoms: C_19  and  C_20
REMARK                            x       y       z     vdW  Elec       q    Type
REMARK                         _______ _______ _______ _____ _____    ______ ____
ROOT
ATOM      1  C   UNL     1       2.208   7.659  20.271  0.00  0.00    +0.000 C 
ENDROOT
BRANCH   1   3
ATOM      2  N   UNL     1       2.771   5.710  18.703  0.00  0.00    +0.000 N 
ATOM      3  C   UNL     1       2.088   6.235  19.788  0.00  0.00    +0.000 A 
ATOM      4  C   UNL     1       1.418   5.173  20.378  0.00  0.00    +0.000 A 
ATOM      5  C   UNL     1       1.727   3.980  19.669  0.00  0.00    +0.000 A 
ATOM      6  C   UNL     1       1.367   2.625  19.826  0.00  0.00    +0.000 A 
ATOM      7  C   UNL     1       1.908   1.660  18.966  0.00  0.00    +0.000 A 
ATOM      8  C   UNL     1       2.809   2.027  17.972  0.00  0.00    +0.000 A 
ATOM      9  C   UNL     1       3.169   3.365  17.792  0.00  0.00    +0.000 A 
ATOM     10  C   UNL     1       2.603   4.332  18.644  0.00  0.00    +0.000 A 
BRANCH   2  11
ATOM     11  C   UNL     1       3.545   6.469  17.717  0.00  0.00    +0.000 C 
BRANCH  11  17
ATOM     12  C   UNL     1       6.909   4.750  14.426  0.00  0.00    +0.000 C 
ATOM     13  C   UNL     1       6.556   5.065  15.849  0.00  0.00    +0.000 A 
ATOM     14  C   UNL     1       7.444   4.785  16.890  0.00  0.00    +0.000 A 
ATOM     15  C   UNL     1       7.118   5.130  18.201  0.00  0.00    +0.000 A 
ATOM     16  C   UNL     1       5.889   5.728  18.487  0.00  0.00    +0.000 A 
ATOM     17  C   UNL     1       4.950   5.954  17.471  0.00  0.00    +0.000 A 
ATOM     18  C   UNL     1       5.317   5.650  16.148  0.00  0.00    +0.000 A 
ENDBRANCH  11  17
ENDBRANCH   2  11
ENDBRANCH   1   3
BRANCH   1  19
ATOM     19  N   UNL     1       1.012   8.521  20.048  0.00  0.00    +0.000 NA
ATOM     20  C   UNL     1       0.762   9.376  21.217  0.00  0.00    +0.000 C 
ATOM     21  C   UNL     1      -0.292  10.466  20.980  0.00  0.00    +0.000 C 
ATOM     22  C   UNL     1       0.070  11.381  19.818  0.00  0.00    +0.000 C 
ATOM     23  C   UNL     1       0.314  10.503  18.578  0.00  0.00    +0.000 C 
ATOM     24  C   UNL     1       1.256   9.314  18.822  0.00  0.00    +0.000 C 
BRANCH  22  25
ATOM     25  C   UNL     1       1.244  12.328  20.118  0.00  0.00    +0.000 C 
ATOM     26  O   UNL     1       1.826  12.302  21.200  0.00  0.00    +0.000 OA
ATOM     27  N   UNL     1       1.643  13.192  19.108  0.00  0.00    +0.000 N 
ATOM     28  H   UNL     1       1.206  13.141  18.195  0.00  0.00    +0.000 HD
BRANCH  27  29
ATOM     29  C   UNL     1       2.872  13.971  19.300  0.00  0.00    +0.000 C 
BRANCH  29  30
ATOM     30  C   UNL     1       3.203  15.027  18.234  0.00  0.00    +0.000 C 
BRANCH  30  31
ATOM     31  C   UNL     1       4.677  15.407  18.266  0.00  0.00    +0.000 A 
ATOM     32  C   UNL     1       5.663  14.508  17.825  0.00  0.00    +0.000 A 
ATOM     33  C   UNL     1       7.021  14.842  17.893  0.00  0.00    +0.000 A 
ATOM     34  C   UNL     1       7.414  16.079  18.403  0.00  0.00    +0.000 A 
ATOM     35  C   UNL     1       6.447  16.980  18.843  0.00  0.00    +0.000 A 
ATOM     36  C   UNL     1       5.090  16.646  18.777  0.00  0.00    +0.000 A 
ENDBRANCH  30  31
ENDBRANCH  29  30
ENDBRANCH  27  29
ENDBRANCH  22  25
ENDBRANCH   1  19
TORSDOF 8
ENDMDL
MODEL 5
REMARK VINA RESULT:      -8.6      1.235      1.864
REMARK  Name = 
REMARK  9 active torsions:
REMARK  status: ('A' for Active; 'I' for Inactive)
REMARK    1  A    between atoms: C_1  and  C_2
REMARK    2  A    between atoms: C_6  and  C_7
REMARK    3  A    between atoms: C_7  and  N_8
REMARK    4  A    between atoms: C_9  and  C_10
REMARK    5  A    between atoms: C_10  and  N_11
REMARK    6  A    between atoms: C_14  and  C_15
REMARK    7  A    between atoms: N_17  and  C_18
REMARK    8  A    between atoms: C_18  and  C_19
REMARK    9  A    between atoms: C_19  and  C_20
REMARK                            x       y       z     vdW  Elec       q    Type
REMARK                         _______ _______ _______ _____ _____    ______ ____
ROOT
ATOM      1  C   UNL     1       2.159   7.852  20.153  0.00  0.00    +0.000 C 
ENDROOT
BRANCH   1   3
ATOM      2  N   UNL     1       2.711   5.800  18.720  0.00  0.00    +0.000 N 
ATOM      3  C   UNL     1       2.036   6.398  19.772  0.00  0.00    +0.000 A 
ATOM      4  C   UNL     1       1.373   5.380  20.441  0.00  0.00    +0.000 A 
ATOM      5  C   UNL     1       1.677   4.141  19.814  0.00  0.00    +0.000 A 
ATOM      6  C   UNL     1       1.319   2.799  20.068  0.00  0.00    +0.000 A 
ATOM      7  C   UNL     1       1.853   1.777  19.272  0.00  0.00    +0.000 A 
ATOM      8  C   UNL     1       2.745   2.074  18.246  0.00  0.00    +0.000 A 
ATOM      9  C   UNL     1       3.102   3.396  17.970  0.00  0.00    +0.000 A 
ATOM     10  C   UNL     1       2.543   4.420  18.759  0.00  0.00    +0.000 A 
BRANCH   2  11
ATOM     11  C   UNL     1       3.474   6.488  17.677  0.00  0.00    +0.000 C 
BRANCH  11  17
ATOM     12  C   UNL     1       6.677   4.464  14.399  0.00  0.00    +0.000 C 
ATOM     13  C   UNL     1       6.384   4.886  15.807  0.00  0.00    +0.000 A 
ATOM     14  C   UNL     1       7.304   4.658  16.833  0.00  0.00    +0.000 A 
ATOM     15  C   UNL     1       7.033   5.101  18.128  0.00  0.00    +0.000 A 
ATOM     16  C   UNL     1       5.829   5.746  18.414  0.00  0.00    +0.000 A 
ATOM     17  C   UNL     1       4.858   5.924  17.418  0.00  0.00    +0.000 A 
ATOM     18  C   UNL     1       5.169   5.520  16.108  0.00  0.00    +0.000 A 
ENDBRANCH  11  17
ENDBRANCH   2  11
ENDBRANCH   1   3
BRANCH   1  19
ATOM     19  N   UNL     1       1.007   8.720  19.779  0.00  0.00    +0.000 NA
ATOM     20  C   UNL     1       0.451   9.387  20.965  0.00  0.00    +0.000 C 
ATOM     21  C   UNL     1      -0.573  10.484  20.642  0.00  0.00    +0.000 C 
ATOM     22  C   UNL     1       0.002  11.567  19.740  0.00  0.00    +0.000 C 
ATOM     23  C   UNL     1       0.569  10.888  18.482  0.00  0.00    +0.000 C 
ATOM     24  C   UNL     1       1.487   9.690  18.770  0.00  0.00    +0.000 C 
BRANCH  22  25
ATOM     25  C   UNL     1       1.026  12.476  20.439  0.00  0.00    +0.000 C 
ATOM     26  O   UNL     1       1.041  12.601  21.662  0.00  0.00    +0.000 OA
ATOM     27  N   UNL     1       1.954  13.128  19.639  0.00  0.00    +0.000 N 
ATOM     28  H   UNL     1       1.979  12.948  18.642  0.00  0.00    +0.000 HD
BRANCH  27  29
ATOM     29  C   UNL     1       3.053  13.850  20.290  0.00  0.00    +0.000 C 
BRANCH  29  30
ATOM     30  C   UNL     1       3.937  14.733  19.395  0.00  0.00    +0.000 C 
BRANCH  30  31
ATOM     31  C   UNL     1       3.127  15.833  18.724  0.00  0.00    +0.000 A 
ATOM     32  C   UNL     1       2.113  16.510  19.422  0.00  0.00    +0.000 A 
ATOM     33  C   UNL     1       1.340  17.493  18.791  0.00  0.00    +0.000 A 
ATOM     34  C   UNL     1       1.570  17.814  17.455  0.00  0.00    +0.000 A 
ATOM     35  C   UNL     1       2.573  17.151  16.751  0.00  0.00    +0.000 A 
ATOM     36  C   UNL     1       3.345  16.168  17.380  0.00  0.00    +0.000 A 
ENDBRANCH  30  31
ENDBRANCH  29  30
ENDBRANCH  27  29
ENDBRANCH  22  25
ENDBRANCH   1  19
TORSDOF 8
ENDMDL
MODEL 6
REMARK VINA RESULT:      -8.6      0.836      1.310
REMARK  Name = 
REMARK  9 active torsions:
REMARK  status: ('A' for Active; 'I' for Inactive)
REMARK    1  A    between atoms: C_1  and  C_2
REMARK    2  A    between atoms: C_6  and  C_7
REMARK    3  A    between atoms: C_7  and  N_8
REMARK    4  A    between atoms: C_9  and  C_10
REMARK    5  A    between atoms: C_10  and  N_11
REMARK    6  A    between atoms: C_14  and  C_15
REMARK    7  A    between atoms: N_17  and  C_18
REMARK    8  A    between atoms: C_18  and  C_19
REMARK    9  A    between atoms: C_19  and  C_20
REMARK                            x       y       z     vdW  Elec       q    Type
REMARK                         _______ _______ _______ _____ _____    ______ ____
ROOT
ATOM      1  C   UNL     1       2.067   8.418  19.823  0.00  0.00    +0.000 C 
ENDROOT
BRANCH   1   3
ATOM      2  N   UNL     1       2.808   6.159  18.863  0.00  0.00    +0.000 N 
ATOM      3  C   UNL     1       2.086   6.911  19.777  0.00  0.00    +0.000 A 
ATOM      4  C   UNL     1       1.532   6.008  20.673  0.00  0.00    +0.000 A 
ATOM      5  C   UNL     1       1.953   4.695  20.326  0.00  0.00    +0.000 A 
ATOM      6  C   UNL     1       1.733   3.416  20.881  0.00  0.00    +0.000 A 
ATOM      7  C   UNL     1       2.359   2.298  20.315  0.00  0.00    +0.000 A 
ATOM      8  C   UNL     1       3.208   2.442  19.223  0.00  0.00    +0.000 A 
ATOM      9  C   UNL     1       3.430   3.698  18.651  0.00  0.00    +0.000 A 
ATOM     10  C   UNL     1       2.778   4.814  19.210  0.00  0.00    +0.000 A 
BRANCH   2  11
ATOM     11  C   UNL     1       3.491   6.667  17.671  0.00  0.00    +0.000 C 
BRANCH  11  17
ATOM     12  C   UNL     1       6.513   4.074  14.630  0.00  0.00    +0.000 C 
ATOM     13  C   UNL     1       6.308   4.768  15.944  0.00  0.00    +0.000 A 
ATOM     14  C   UNL     1       7.306   4.767  16.921  0.00  0.00    +0.000 A 
ATOM     15  C   UNL     1       7.115   5.458  18.117  0.00  0.00    +0.000 A 
ATOM     16  C   UNL     1       5.915   6.129  18.359  0.00  0.00    +0.000 A 
ATOM     17  C   UNL     1       4.870   6.085  17.426  0.00  0.00    +0.000 A 
ATOM     18  C   UNL     1       5.099   5.430  16.203  0.00  0.00    +0.000 A 
ENDBRANCH  11  17
ENDBRANCH   2  11
ENDBRANCH   1   3
BRANCH   1  19
ATOM     19  N   UNL     1       0.786   9.036  20.267  0.00  0.00    +0.000 NA
ATOM     20  C   UNL     1       0.968   9.764  21.530  0.00  0.00    +0.000 C 
ATOM     21  C   UNL     1      -0.231  10.634  21.930  0.00  0.00    +0.000 C 
ATOM     22  C   UNL     1      -0.585  11.661  20.862  0.00  0.00    +0.000 C 
ATOM     23  C   UNL     1      -0.802  10.913  19.536  0.00  0.00    +0.000 C 
ATOM     24  C   UNL     1       0.318   9.923  19.178  0.00  0.00    +0.000 C 
BRANCH  22  25
ATOM     25  C   UNL     1       0.436  12.805  20.741  0.00  0.00    +0.000 C 
ATOM     26  O   UNL     1       1.262  13.020  21.625  0.00  0.00    +0.000 OA
ATOM     27  N   UNL     1       0.408  13.566  19.582  0.00  0.00    +0.000 N 
ATOM     28  H   UNL     1      -0.225  13.322  18.830  0.00  0.00    +0.000 HD
BRANCH  27  29
ATOM     29  C   UNL     1       1.484  14.539  19.359  0.00  0.00    +0.000 C 
BRANCH  29  30
ATOM     30  C   UNL     1       1.207  15.994  19.769  0.00  0.00    +0.000 C 
BRANCH  30  31
ATOM     31  C   UNL     1       0.908  16.867  18.558  0.00  0.00    +0.000 A 
ATOM     32  C   UNL     1       1.934  17.262  17.683  0.00  0.00    +0.000 A 
ATOM     33  C   UNL     1       1.665  18.099  16.594  0.00  0.00    +0.000 A 
ATOM     34  C   UNL     1       0.368  18.554  16.362  0.00  0.00    +0.000 A 
ATOM     35  C   UNL     1      -0.659  18.170  17.222  0.00  0.00    +0.000 A 
ATOM     36  C   UNL     1      -0.391  17.334  18.311  0.00  0.00    +0.000 A 
ENDBRANCH  30  31
ENDBRANCH  29  30
ENDBRANCH  27  29
ENDBRANCH  22  25
ENDBRANCH   1  19
TORSDOF 8
ENDMDL
MODEL 7
REMARK VINA RESULT:      -8.5      3.894      6.576
REMARK  Name = 
REMARK  9 active torsions:
REMARK  status: ('A' for Active; 'I' for Inactive)
REMARK    1  A    between atoms: C_1  and  C_2
REMARK    2  A    between atoms: C_6  and  C_7
REMARK    3  A    between atoms: C_7  and  N_8
REMARK    4  A    between atoms: C_9  and  C_10
REMARK    5  A    between atoms: C_10  and  N_11
REMARK    6  A    between atoms: C_14  and  C_15
REMARK    7  A    between atoms: N_17  and  C_18
REMARK    8  A    between atoms: C_18  and  C_19
REMARK    9  A    between atoms: C_19  and  C_20
REMARK                            x       y       z     vdW  Elec       q    Type
REMARK                         _______ _______ _______ _____ _____    ______ ____
ROOT
ATOM      1  C   UNL     1       4.623   3.047  17.031  0.00  0.00    +0.000 C 
ENDROOT
BRANCH   1   3
ATOM      2  N   UNL     1       5.770   5.292  16.568  0.00  0.00    +0.000 N 
ATOM      3  C   UNL     1       5.627   4.135  17.317  0.00  0.00    +0.000 A 
ATOM      4  C   UNL     1       6.474   4.270  18.408  0.00  0.00    +0.000 A 
ATOM      5  C   UNL     1       7.110   5.539  18.346  0.00  0.00    +0.000 A 
ATOM      6  C   UNL     1       8.028   6.218  19.175  0.00  0.00    +0.000 A 
ATOM      7  C   UNL     1       8.424   7.521  18.849  0.00  0.00    +0.000 A 
ATOM      8  C   UNL     1       7.906   8.156  17.725  0.00  0.00    +0.000 A 
ATOM      9  C   UNL     1       7.006   7.497  16.883  0.00  0.00    +0.000 A 
ATOM     10  C   UNL     1       6.631   6.178  17.204  0.00  0.00    +0.000 A 
BRANCH   2  11
ATOM     11  C   UNL     1       5.146   5.568  15.272  0.00  0.00    +0.000 C 
BRANCH  11  17
ATOM     12  C   UNL     1       5.211   2.252  11.517  0.00  0.00    +0.000 C 
ATOM     13  C   UNL     1       5.913   3.335  12.279  0.00  0.00    +0.000 A 
ATOM     14  C   UNL     1       7.220   3.710  11.960  0.00  0.00    +0.000 A 
ATOM     15  C   UNL     1       7.838   4.751  12.649  0.00  0.00    +0.000 A 
ATOM     16  C   UNL     1       7.169   5.407  13.684  0.00  0.00    +0.000 A 
ATOM     17  C   UNL     1       5.884   5.003  14.073  0.00  0.00    +0.000 A 
ATOM     18  C   UNL     1       5.254   3.987  13.332  0.00  0.00    +0.000 A 
ENDBRANCH  11  17
ENDBRANCH   2  11
ENDBRANCH   1   3
BRANCH   1  19
ATOM     19  N   UNL     1       3.583   2.833  18.077  0.00  0.00    +0.000 NA
ATOM     20  C   UNL     1       4.016   3.396  19.365  0.00  0.00    +0.000 C 
ATOM     21  C   UNL     1       2.911   3.442  20.429  0.00  0.00    +0.000 C 
ATOM     22  C   UNL     1       1.697   4.238  19.972  0.00  0.00    +0.000 C 
ATOM     23  C   UNL     1       1.216   3.648  18.635  0.00  0.00    +0.000 C 
ATOM     24  C   UNL     1       2.329   3.454  17.593  0.00  0.00    +0.000 C 
BRANCH  22  25
ATOM     25  C   UNL     1       1.942   5.755  19.899  0.00  0.00    +0.000 C 
ATOM     26  O   UNL     1       1.841   6.467  20.896  0.00  0.00    +0.000 OA
ATOM     27  N   UNL     1       2.311   6.285  18.671  0.00  0.00    +0.000 N 
ATOM     28  H   UNL     1       2.470   5.671  17.881  0.00  0.00    +0.000 HD
BRANCH  27  29
ATOM     29  C   UNL     1       2.730   7.690  18.615  0.00  0.00    +0.000 C 
BRANCH  29  30
ATOM     30  C   UNL     1       1.971   8.607  17.644  0.00  0.00    +0.000 C 
BRANCH  30  31
ATOM     31  C   UNL     1       0.896   9.412  18.362  0.00  0.00    +0.000 A 
ATOM     32  C   UNL     1       1.055   9.789  19.707  0.00  0.00    +0.000 A 
ATOM     33  C   UNL     1       0.048  10.493  20.378  0.00  0.00    +0.000 A 
ATOM     34  C   UNL     1      -1.132  10.831  19.717  0.00  0.00    +0.000 A 
ATOM     35  C   UNL     1      -1.302  10.464  18.384  0.00  0.00    +0.000 A 
ATOM     36  C   UNL     1      -0.297   9.760  17.712  0.00  0.00    +0.000 A 
ENDBRANCH  30  31
ENDBRANCH  29  30
ENDBRANCH  27  29
ENDBRANCH  22  25
ENDBRANCH   1  19
TORSDOF 8
ENDMDL
MODEL 8
REMARK VINA RESULT:      -8.5      1.273      1.867
REMARK  Name = 
REMARK  9 active torsions:
REMARK  status: ('A' for Active; 'I' for Inactive)
REMARK    1  A    between atoms: C_1  and  C_2
REMARK    2  A    between atoms: C_6  and  C_7
REMARK    3  A    between atoms: C_7  and  N_8
REMARK    4  A    between atoms: C_9  and  C_10
REMARK    5  A    between atoms: C_10  and  N_11
REMARK    6  A    between atoms: C_14  and  C_15
REMARK    7  A    between atoms: N_17  and  C_18
REMARK    8  A    between atoms: C_18  and  C_19
REMARK    9  A    between atoms: C_19  and  C_20
REMARK                            x       y       z     vdW  Elec       q    Type
REMARK                         _______ _______ _______ _____ _____    ______ ____
ROOT
ATOM      1  C   UNL     1       2.245   7.877  20.272  0.00  0.00    +0.000 C 
ENDROOT
BRANCH   1   3
ATOM      2  N   UNL     1       2.627   5.857  18.740  0.00  0.00    +0.000 N 
ATOM      3  C   UNL     1       2.015   6.453  19.831  0.00  0.00    +0.000 A 
ATOM      4  C   UNL     1       1.296   5.453  20.470  0.00  0.00    +0.000 A 
ATOM      5  C   UNL     1       1.502   4.225  19.783  0.00  0.00    +0.000 A 
ATOM      6  C   UNL     1       1.059   2.901  19.987  0.00  0.00    +0.000 A 
ATOM      7  C   UNL     1       1.506   1.882  19.137  0.00  0.00    +0.000 A 
ATOM      8  C   UNL     1       2.397   2.163  18.105  0.00  0.00    +0.000 A 
ATOM      9  C   UNL     1       2.838   3.469  17.879  0.00  0.00    +0.000 A 
ATOM     10  C   UNL     1       2.366   4.492  18.723  0.00  0.00    +0.000 A 
BRANCH   2  11
ATOM     11  C   UNL     1       3.416   6.538  17.711  0.00  0.00    +0.000 C 
BRANCH  11  17
ATOM     12  C   UNL     1       6.716   4.616  14.467  0.00  0.00    +0.000 C 
ATOM     13  C   UNL     1       6.373   4.976  15.882  0.00  0.00    +0.000 A 
ATOM     14  C   UNL     1       7.247   4.683  16.931  0.00  0.00    +0.000 A 
ATOM     15  C   UNL     1       6.932   5.068  18.233  0.00  0.00    +0.000 A 
ATOM     16  C   UNL     1       5.728   5.721  18.503  0.00  0.00    +0.000 A 
ATOM     17  C   UNL     1       4.801   5.962  17.480  0.00  0.00    +0.000 A 
ATOM     18  C   UNL     1       5.157   5.616  16.164  0.00  0.00    +0.000 A 
ENDBRANCH  11  17
ENDBRANCH   2  11
ENDBRANCH   1   3
BRANCH   1  19
ATOM     19  N   UNL     1       1.039   8.752  20.289  0.00  0.00    +0.000 NA
ATOM     20  C   UNL     1       1.069   9.660  21.444  0.00  0.00    +0.000 C 
ATOM     21  C   UNL     1      -0.001  10.759  21.404  0.00  0.00    +0.000 C 
ATOM     22  C   UNL     1       0.096  11.618  20.151  0.00  0.00    +0.000 C 
ATOM     23  C   UNL     1       0.042  10.685  18.929  0.00  0.00    +0.000 C 
ATOM     24  C   UNL     1       1.004   9.489  19.005  0.00  0.00    +0.000 C 
BRANCH  22  25
ATOM     25  C   UNL     1       1.316  12.553  20.133  0.00  0.00    +0.000 C 
ATOM     26  O   UNL     1       1.931  12.822  21.163  0.00  0.00    +0.000 OA
ATOM     27  N   UNL     1       1.717  13.059  18.904  0.00  0.00    +0.000 N 
ATOM     28  H   UNL     1       1.249  12.761  18.057  0.00  0.00    +0.000 HD
BRANCH  27  29
ATOM     29  C   UNL     1       2.981  13.799  18.833  0.00  0.00    +0.000 C 
BRANCH  29  30
ATOM     30  C   UNL     1       2.930  15.216  18.239  0.00  0.00    +0.000 C 
BRANCH  30  31
ATOM     31  C   UNL     1       1.977  16.112  19.018  0.00  0.00    +0.000 A 
ATOM     32  C   UNL     1       0.913  16.766  18.373  0.00  0.00    +0.000 A 
ATOM     33  C   UNL     1       0.063  17.623  19.082  0.00  0.00    +0.000 A 
ATOM     34  C   UNL     1       0.262  17.840  20.444  0.00  0.00    +0.000 A 
ATOM     35  C   UNL     1       1.312  17.197  21.096  0.00  0.00    +0.000 A 
ATOM     36  C   UNL     1       2.163  16.342  20.389  0.00  0.00    +0.000 A 
ENDBRANCH  30  31
ENDBRANCH  29  30
ENDBRANCH  27  29
ENDBRANCH  22  25
ENDBRANCH   1  19
TORSDOF 8
ENDMDL
MODEL 9
REMARK VINA RESULT:      -8.4      2.764      9.361
REMARK  Name = 
REMARK  9 active torsions:
REMARK  status: ('A' for Active; 'I' for Inactive)
REMARK    1  A    between atoms: C_1  and  C_2
REMARK    2  A    between atoms: C_6  and  C_7
REMARK    3  A    between atoms: C_7  and  N_8
REMARK    4  A    between atoms: C_9  and  C_10
REMARK    5  A    between atoms: C_10  and  N_11
REMARK    6  A    between atoms: C_14  and  C_15
REMARK    7  A    between atoms: N_17  and  C_18
REMARK    8  A    between atoms: C_18  and  C_19
REMARK    9  A    between atoms: C_19  and  C_20
REMARK                            x       y       z     vdW  Elec       q    Type
REMARK                         _______ _______ _______ _____ _____    ______ ____
ROOT
ATOM      1  C   UNL     1       2.237   7.494  19.305  0.00  0.00    +0.000 C 
ENDROOT
BRANCH   1   3
ATOM      2  N   UNL     1       0.834   9.570  19.845  0.00  0.00    +0.000 N 
ATOM      3  C   UNL     1       1.499   8.420  20.239  0.00  0.00    +0.000 A 
ATOM      4  C   UNL     1       1.224   8.252  21.588  0.00  0.00    +0.000 A 
ATOM      5  C   UNL     1       0.349   9.289  22.013  0.00  0.00    +0.000 A 
ATOM      6  C   UNL     1      -0.273   9.605  23.240  0.00  0.00    +0.000 A 
ATOM      7  C   UNL     1      -1.150  10.695  23.311  0.00  0.00    +0.000 A 
ATOM      8  C   UNL     1      -1.425  11.455  22.179  0.00  0.00    +0.000 A 
ATOM      9  C   UNL     1      -0.810  11.167  20.958  0.00  0.00    +0.000 A 
ATOM     10  C   UNL     1       0.090  10.085  20.899  0.00  0.00    +0.000 A 
BRANCH   2  11
ATOM     11  C   UNL     1       0.904  10.203  18.526  0.00  0.00    +0.000 C 
BRANCH  11  17
ATOM     12  C   UNL     1       3.512  14.383  19.429  0.00  0.00    +0.000 C 
ATOM     13  C   UNL     1       2.211  13.745  19.046  0.00  0.00    +0.000 A 
ATOM     14  C   UNL     1       1.066  14.516  18.833  0.00  0.00    +0.000 A 
ATOM     15  C   UNL     1      -0.122  13.908  18.430  0.00  0.00    +0.000 A 
ATOM     16  C   UNL     1      -0.186  12.523  18.267  0.00  0.00    +0.000 A 
ATOM     17  C   UNL     1       0.929  11.719  18.543  0.00  0.00    +0.000 A 
ATOM     18  C   UNL     1       2.134  12.352  18.896  0.00  0.00    +0.000 A 
ENDBRANCH  11  17
ENDBRANCH   2  11
ENDBRANCH   1   3
BRANCH   1  19
ATOM     19  N   UNL     1       2.335   6.073  19.744  0.00  0.00    +0.000 NA
ATOM     20  C   UNL     1       1.474   5.212  18.920  0.00  0.00    +0.000 C 
ATOM     21  C   UNL     1       1.699   3.710  19.138  0.00  0.00    +0.000 C 
ATOM     22  C   UNL     1       3.141   3.295  18.876  0.00  0.00    +0.000 C 
ATOM     23  C   UNL     1       4.055   4.171  19.748  0.00  0.00    +0.000 C 
ATOM     24  C   UNL     1       3.758   5.676  19.662  0.00  0.00    +0.000 C 
BRANCH  22  25
ATOM     25  C   UNL     1       3.532   3.322  17.389  0.00  0.00    +0.000 C 
ATOM     26  O   UNL     1       2.681   3.290  16.503  0.00  0.00    +0.000 OA
ATOM     27  N   UNL     1       4.883   3.415  17.085  0.00  0.00    +0.000 N 
ATOM     28  H   UNL     1       5.563   3.524  17.827  0.00  0.00    +0.000 HD
BRANCH  27  29
ATOM     29  C   UNL     1       5.270   3.629  15.686  0.00  0.00    +0.000 C 
BRANCH  29  30
ATOM     30  C   UNL     1       6.649   4.258  15.431  0.00  0.00    +0.000 C 
BRANCH  30  31
ATOM     31  C   UNL     1       7.078   5.150  16.588  0.00  0.00    +0.000 A 
ATOM     32  C   UNL     1       6.971   6.548  16.499  0.00  0.00    +0.000 A 
ATOM     33  C   UNL     1       7.404   7.369  17.547  0.00  0.00    +0.000 A 
ATOM     34  C   UNL     1       7.951   6.806  18.699  0.00  0.00    +0.000 A 
ATOM     35  C   UNL     1       8.063   5.421  18.800  0.00  0.00    +0.000 A 
ATOM     36  C   UNL     1       7.631   4.599  17.753  0.00  0.00    +0.000 A 
ENDBRANCH  30  31
ENDBRANCH  29  30
ENDBRANCH  27  29
ENDBRANCH  22  25
ENDBRANCH   1  19
TORSDOF 8
ENDMDL
