MODEL 1
REMARK VINA RESULT:      -8.3      0.000      0.000
REMARK  Name = 
REMARK  1 active torsions:
REMARK  status: ('A' for Active; 'I' for Inactive)
REMARK    1  A    between atoms: N_16  and  C_17
REMARK                            x       y       z     vdW  Elec       q    Type
REMARK                         _______ _______ _______ _____ _____    ______ ____
ROOT
ATOM      1  N   UNL     1       4.766   1.762  19.700  0.00  0.00    +0.000 NA
ATOM      2  C   UNL     1       4.070   2.856  19.802  0.00  0.00    +0.000 A 
ATOM      3  C   UNL     1       3.096   2.936  20.934  0.00  0.00    +0.000 A 
ATOM      4  C   UNL     1       2.392   4.057  21.097  0.00  0.00    +0.000 A 
ATOM      5  C   UNL     1       2.564   5.184  20.178  0.00  0.00    +0.000 A 
ATOM      6  C   UNL     1       3.460   5.118  19.107  0.00  0.00    +0.000 A 
ATOM      7  N   UNL     1       3.601   6.178  18.272  0.00  0.00    +0.000 NA
ATOM      8  C   UNL     1       2.878   7.296  18.447  0.00  0.00    +0.000 A 
ATOM      9  C   UNL     1       3.015   8.370  17.569  0.00  0.00    +0.000 A 
ATOM     10  C   UNL     1       2.280   9.555  17.721  0.00  0.00    +0.000 A 
ATOM     11  C   UNL     1       1.382   9.687  18.771  0.00  0.00    +0.000 A 
ATOM     12  C   UNL     1       1.223   8.631  19.659  0.00  0.00    +0.000 A 
ATOM     13  C   UNL     1       1.968   7.434  19.500  0.00  0.00    +0.000 A 
ATOM     14  N   UNL     1       1.821   6.351  20.377  0.00  0.00    +0.000 N 
ATOM     15  O   UNL     1       0.993   6.432  21.362  0.00  0.00    +0.000 OA
ATOM     16  N   UNL     1       4.207   3.913  18.910  0.00  0.00    +0.000 N 
ATOM     17  H   UNL     1       4.523   1.091  20.433  0.00  0.00    +0.000 HD
ENDROOT
BRANCH  16  18
ATOM     18  C   UNL     1       5.237   3.978  17.858  0.00  0.00    +0.000 C 
ATOM     19  C   UNL     1       6.384   4.975  18.100  0.00  0.00    +0.000 C 
ATOM     20  C   UNL     1       7.498   4.693  17.091  0.00  0.00    +0.000 C 
ATOM     21  C   UNL     1       7.000   4.710  15.638  0.00  0.00    +0.000 C 
ATOM     22  C   UNL     1       5.683   3.960  15.411  0.00  0.00    +0.000 C 
ATOM     23  C   UNL     1       4.635   4.273  16.479  0.00  0.00    +0.000 C 
ENDBRANCH  16  18
TORSDOF 1
ENDMDL
MODEL 2
REMARK VINA RESULT:      -8.3      0.862      1.400
REMARK  Name = 
REMARK  1 active torsions:
REMARK  status: ('A' for Active; 'I' for Inactive)
REMARK    1  A    between atoms: N_16  and  C_17
REMARK                            x       y       z     vdW  Elec       q    Type
REMARK                         _______ _______ _______ _____ _____    ______ ____
ROOT
ATOM      1  N   UNL     1       4.582   2.653  19.054  0.00  0.00    +0.000 NA
ATOM      2  C   UNL     1       3.869   3.706  19.321  0.00  0.00    +0.000 A 
ATOM      3  C   UNL     1       3.015   3.654  20.547  0.00  0.00    +0.000 A 
ATOM      4  C   UNL     1       2.298   4.730  20.877  0.00  0.00    +0.000 A 
ATOM      5  C   UNL     1       2.341   5.935  20.047  0.00  0.00    +0.000 A 
ATOM      6  C   UNL     1       3.124   5.994  18.891  0.00  0.00    +0.000 A 
ATOM      7  N   UNL     1       3.147   7.125  18.141  0.00  0.00    +0.000 NA
ATOM      8  C   UNL     1       2.414   8.196  18.485  0.00  0.00    +0.000 A 
ATOM      9  C   UNL     1       2.427   9.344  17.695  0.00  0.00    +0.000 A 
ATOM     10  C   UNL     1       1.677  10.483  18.022  0.00  0.00    +0.000 A 
ATOM     11  C   UNL     1       0.889  10.492  19.164  0.00  0.00    +0.000 A 
ATOM     12  C   UNL     1       0.854   9.361  19.968  0.00  0.00    +0.000 A 
ATOM     13  C   UNL     1       1.613   8.210  19.632  0.00  0.00    +0.000 A 
ATOM     14  N   UNL     1       1.589   7.052  20.421  0.00  0.00    +0.000 N 
ATOM     15  O   UNL     1       0.865   7.019  21.487  0.00  0.00    +0.000 OA
ATOM     16  N   UNL     1       3.882   4.839  18.515  0.00  0.00    +0.000 N 
ATOM     17  H   UNL     1       4.436   1.913  19.746  0.00  0.00    +0.000 HD
ENDROOT
BRANCH  16  18
ATOM     18  C   UNL     1       4.796   5.031  17.375  0.00  0.00    +0.000 C 
ATOM     19  C   UNL     1       4.734   3.958  16.275  0.00  0.00    +0.000 C 
ATOM     20  C   UNL     1       5.497   4.467  15.052  0.00  0.00    +0.000 C 
ATOM     21  C   UNL     1       6.937   4.887  15.384  0.00  0.00    +0.000 C 
ATOM     22  C   UNL     1       7.074   5.727  16.658  0.00  0.00    +0.000 C 
ATOM     23  C   UNL     1       6.256   5.169  17.823  0.00  0.00    +0.000 C 
ENDBRANCH  16  18
TORSDOF 1
ENDMDL
MODEL 3
REMARK VINA RESULT:      -8.1      3.486      6.539
REMARK  Name = 
REMARK  1 active torsions:
REMARK  status: ('A' for Active; 'I' for Inactive)
REMARK    1  A    between atoms: N_16  and  C_17
REMARK                            x       y       z     vdW  Elec       q    Type
REMARK                         _______ _______ _______ _____ _____    ______ ____
ROOT
ATOM      1  N   UNL     1       5.092   5.551  19.708  0.00  0.00    +0.000 NA
ATOM      2  C   UNL     1       5.573   5.472  18.503  0.00  0.00    +0.000 A 
ATOM      3  C   UNL     1       6.875   6.160  18.245  0.00  0.00    +0.000 A 
ATOM      4  C   UNL     1       7.420   6.068  17.031  0.00  0.00    +0.000 A 
ATOM      5  C   UNL     1       6.751   5.314  15.970  0.00  0.00    +0.000 A 
ATOM      6  C   UNL     1       5.526   4.677  16.192  0.00  0.00    +0.000 A 
ATOM      7  N   UNL     1       4.929   3.983  15.191  0.00  0.00    +0.000 NA
ATOM      8  C   UNL     1       5.490   3.907  13.973  0.00  0.00    +0.000 A 
ATOM      9  C   UNL     1       4.856   3.211  12.946  0.00  0.00    +0.000 A 
ATOM     10  C   UNL     1       5.410   3.107  11.662  0.00  0.00    +0.000 A 
ATOM     11  C   UNL     1       6.629   3.708  11.381  0.00  0.00    +0.000 A 
ATOM     12  C   UNL     1       7.283   4.411  12.385  0.00  0.00    +0.000 A 
ATOM     13  C   UNL     1       6.716   4.515  13.682  0.00  0.00    +0.000 A 
ATOM     14  N   UNL     1       7.349   5.225  14.710  0.00  0.00    +0.000 N 
ATOM     15  O   UNL     1       8.480   5.802  14.487  0.00  0.00    +0.000 OA
ATOM     16  N   UNL     1       4.921   4.785  17.485  0.00  0.00    +0.000 N 
ATOM     17  H   UNL     1       5.697   6.105  20.320  0.00  0.00    +0.000 HD
ENDROOT
BRANCH  16  18
ATOM     18  C   UNL     1       3.715   3.962  17.684  0.00  0.00    +0.000 C 
ATOM     19  C   UNL     1       2.450   4.718  18.124  0.00  0.00    +0.000 C 
ATOM     20  C   UNL     1       1.247   3.785  17.980  0.00  0.00    +0.000 C 
ATOM     21  C   UNL     1       1.432   2.459  18.733  0.00  0.00    +0.000 C 
ATOM     22  C   UNL     1       2.809   1.813  18.547  0.00  0.00    +0.000 C 
ATOM     23  C   UNL     1       3.954   2.818  18.676  0.00  0.00    +0.000 C 
ENDBRANCH  16  18
TORSDOF 1
ENDMDL
MODEL 4
REMARK VINA RESULT:      -7.8      2.830      4.994
REMARK  Name = 
REMARK  1 active torsions:
REMARK  status: ('A' for Active; 'I' for Inactive)
REMARK    1  A    between atoms: N_16  and  C_17
REMARK                            x       y       z     vdW  Elec       q    Type
REMARK                         _______ _______ _______ _____ _____    ______ ____
ROOT
ATOM      1  N   UNL     1       3.428   5.331  17.559  0.00  0.00    +0.000 NA
ATOM      2  C   UNL     1       2.936   6.421  18.069  0.00  0.00    +0.000 A 
ATOM      3  C   UNL     1       3.134   7.684  17.293  0.00  0.00    +0.000 A 
ATOM      4  C   UNL     1       2.610   8.816  17.764  0.00  0.00    +0.000 A 
ATOM      5  C   UNL     1       1.863   8.823  19.024  0.00  0.00    +0.000 A 
ATOM      6  C   UNL     1       1.683   7.653  19.768  0.00  0.00    +0.000 A 
ATOM      7  N   UNL     1       0.985   7.688  20.931  0.00  0.00    +0.000 NA
ATOM      8  C   UNL     1       0.471   8.839  21.394  0.00  0.00    +0.000 A 
ATOM      9  C   UNL     1      -0.225   8.867  22.601  0.00  0.00    +0.000 A 
ATOM     10  C   UNL     1      -0.778  10.048  23.116  0.00  0.00    +0.000 A 
ATOM     11  C   UNL     1      -0.643  11.240  22.418  0.00  0.00    +0.000 A 
ATOM     12  C   UNL     1       0.047  11.243  21.214  0.00  0.00    +0.000 A 
ATOM     13  C   UNL     1       0.607  10.045  20.698  0.00  0.00    +0.000 A 
ATOM     14  N   UNL     1       1.316  10.021  19.490  0.00  0.00    +0.000 N 
ATOM     15  O   UNL     1       1.468  11.109  18.815  0.00  0.00    +0.000 OA
ATOM     16  N   UNL     1       2.257   6.435  19.282  0.00  0.00    +0.000 N 
ATOM     17  H   UNL     1       3.904   5.513  16.671  0.00  0.00    +0.000 HD
ENDROOT
BRANCH  16  18
ATOM     18  C   UNL     1       1.893   5.225  20.040  0.00  0.00    +0.000 C 
ATOM     19  C   UNL     1       3.016   4.596  20.883  0.00  0.00    +0.000 C 
ATOM     20  C   UNL     1       2.399   3.563  21.826  0.00  0.00    +0.000 C 
ATOM     21  C   UNL     1       1.561   2.510  21.085  0.00  0.00    +0.000 C 
ATOM     22  C   UNL     1       0.626   3.085  20.015  0.00  0.00    +0.000 C 
ATOM     23  C   UNL     1       1.310   4.132  19.136  0.00  0.00    +0.000 C 
ENDBRANCH  16  18
TORSDOF 1
ENDMDL
MODEL 5
REMARK VINA RESULT:      -7.4      2.755      4.689
REMARK  Name = 
REMARK  1 active torsions:
REMARK  status: ('A' for Active; 'I' for Inactive)
REMARK    1  A    between atoms: N_16  and  C_17
REMARK                            x       y       z     vdW  Elec       q    Type
REMARK                         _______ _______ _______ _____ _____    ______ ____
ROOT
ATOM      1  N   UNL     1       7.625   5.409  15.025  0.00  0.00    +0.000 NA
ATOM      2  C   UNL     1       6.530   4.993  15.588  0.00  0.00    +0.000 A 
ATOM      3  C   UNL     1       5.804   3.872  14.915  0.00  0.00    +0.000 A 
ATOM      4  C   UNL     1       4.697   3.391  15.483  0.00  0.00    +0.000 A 
ATOM      5  C   UNL     1       4.199   3.957  16.738  0.00  0.00    +0.000 A 
ATOM      6  C   UNL     1       4.859   5.014  17.371  0.00  0.00    +0.000 A 
ATOM      7  N   UNL     1       4.376   5.518  18.535  0.00  0.00    +0.000 NA
ATOM      8  C   UNL     1       3.256   5.025  19.089  0.00  0.00    +0.000 A 
ATOM      9  C   UNL     1       2.756   5.566  20.272  0.00  0.00    +0.000 A 
ATOM     10  C   UNL     1       1.592   5.077  20.882  0.00  0.00    +0.000 A 
ATOM     11  C   UNL     1       0.897   4.022  20.308  0.00  0.00    +0.000 A 
ATOM     12  C   UNL     1       1.370   3.465  19.127  0.00  0.00    +0.000 A 
ATOM     13  C   UNL     1       2.548   3.965  18.513  0.00  0.00    +0.000 A 
ATOM     14  N   UNL     1       3.042   3.428  17.317  0.00  0.00    +0.000 N 
ATOM     15  O   UNL     1       2.422   2.449  16.750  0.00  0.00    +0.000 OA
ATOM     16  N   UNL     1       6.037   5.552  16.761  0.00  0.00    +0.000 N 
ATOM     17  H   UNL     1       7.827   4.892  14.165  0.00  0.00    +0.000 HD
ENDROOT
BRANCH  16  18
ATOM     18  C   UNL     1       6.756   6.556  17.565  0.00  0.00    +0.000 C 
ATOM     19  C   UNL     1       7.318   7.760  16.791  0.00  0.00    +0.000 C 
ATOM     20  C   UNL     1       7.747   8.831  17.795  0.00  0.00    +0.000 C 
ATOM     21  C   UNL     1       8.731   8.297  18.847  0.00  0.00    +0.000 C 
ATOM     22  C   UNL     1       8.348   6.936  19.438  0.00  0.00    +0.000 C 
ATOM     23  C   UNL     1       7.902   5.934  18.373  0.00  0.00    +0.000 C 
ENDBRANCH  16  18
TORSDOF 1
ENDMDL
MODEL 6
REMARK VINA RESULT:      -7.2      7.701     10.377
REMARK  Name = 
REMARK  1 active torsions:
REMARK  status: ('A' for Active; 'I' for Inactive)
REMARK    1  A    between atoms: N_16  and  C_17
REMARK                            x       y       z     vdW  Elec       q    Type
REMARK                         _______ _______ _______ _____ _____    ______ ____
ROOT
ATOM      1  N   UNL     1      -2.301  11.271  16.167  0.00  0.00    +0.000 NA
ATOM      2  C   UNL     1      -3.190  11.497  17.088  0.00  0.00    +0.000 A 
ATOM      3  C   UNL     1      -4.622  11.285  16.716  0.00  0.00    +0.000 A 
ATOM      4  C   UNL     1      -5.562  11.468  17.645  0.00  0.00    +0.000 A 
ATOM      5  C   UNL     1      -5.195  11.879  19.002  0.00  0.00    +0.000 A 
ATOM      6  C   UNL     1      -3.862  12.095  19.361  0.00  0.00    +0.000 A 
ATOM      7  N   UNL     1      -3.550  12.473  20.626  0.00  0.00    +0.000 NA
ATOM      8  C   UNL     1      -4.510  12.660  21.547  0.00  0.00    +0.000 A 
ATOM      9  C   UNL     1      -4.180  13.072  22.837  0.00  0.00    +0.000 A 
ATOM     10  C   UNL     1      -5.153  13.275  23.826  0.00  0.00    +0.000 A 
ATOM     11  C   UNL     1      -6.494  13.065  23.536  0.00  0.00    +0.000 A 
ATOM     12  C   UNL     1      -6.852  12.659  22.257  0.00  0.00    +0.000 A 
ATOM     13  C   UNL     1      -5.864  12.456  21.259  0.00  0.00    +0.000 A 
ATOM     14  N   UNL     1      -6.198  12.055  19.959  0.00  0.00    +0.000 N 
ATOM     15  O   UNL     1      -7.433  11.855  19.649  0.00  0.00    +0.000 OA
ATOM     16  N   UNL     1      -2.846  11.921  18.367  0.00  0.00    +0.000 N 
ATOM     17  H   UNL     1      -2.736  10.980  15.287  0.00  0.00    +0.000 HD
ENDROOT
BRANCH  16  18
ATOM     18  C   UNL     1      -1.461  12.017  18.861  0.00  0.00    +0.000 C 
ATOM     19  C   UNL     1      -0.575  13.073  18.179  0.00  0.00    +0.000 C 
ATOM     20  C   UNL     1       0.698  13.251  19.006  0.00  0.00    +0.000 C 
ATOM     21  C   UNL     1       1.440  11.927  19.246  0.00  0.00    +0.000 C 
ATOM     22  C   UNL     1       0.534  10.759  19.651  0.00  0.00    +0.000 C 
ATOM     23  C   UNL     1      -0.731  10.670  18.796  0.00  0.00    +0.000 C 
ENDBRANCH  16  18
TORSDOF 1
ENDMDL
MODEL 7
REMARK VINA RESULT:      -7.1      2.217      4.397
REMARK  Name = 
REMARK  1 active torsions:
REMARK  status: ('A' for Active; 'I' for Inactive)
REMARK    1  A    between atoms: N_16  and  C_17
REMARK                            x       y       z     vdW  Elec       q    Type
REMARK                         _______ _______ _______ _____ _____    ______ ____
ROOT
ATOM      1  N   UNL     1       4.463   4.330  17.528  0.00  0.00    +0.000 NA
ATOM      2  C   UNL     1       3.922   5.481  17.797  0.00  0.00    +0.000 A 
ATOM      3  C   UNL     1       4.189   6.596  16.838  0.00  0.00    +0.000 A 
ATOM      4  C   UNL     1       3.620   7.783  17.058  0.00  0.00    +0.000 A 
ATOM      5  C   UNL     1       2.757   7.989  18.223  0.00  0.00    +0.000 A 
ATOM      6  C   UNL     1       2.511   6.960  19.136  0.00  0.00    +0.000 A 
ATOM      7  N   UNL     1       1.705   7.178  20.206  0.00  0.00    +0.000 NA
ATOM      8  C   UNL     1       1.146   8.381  20.415  0.00  0.00    +0.000 A 
ATOM      9  C   UNL     1       0.339   8.601  21.531  0.00  0.00    +0.000 A 
ATOM     10  C   UNL     1      -0.264   9.842  21.782  0.00  0.00    +0.000 A 
ATOM     11  C   UNL     1      -0.067  10.900  20.906  0.00  0.00    +0.000 A 
ATOM     12  C   UNL     1       0.735  10.711  19.788  0.00  0.00    +0.000 A 
ATOM     13  C   UNL     1       1.345   9.454  19.540  0.00  0.00    +0.000 A 
ATOM     14  N   UNL     1       2.165   9.239  18.425  0.00  0.00    +0.000 N 
ATOM     15  O   UNL     1       2.377  10.199  17.591  0.00  0.00    +0.000 OA
ATOM     16  N   UNL     1       3.131   5.688  18.921  0.00  0.00    +0.000 N 
ATOM     17  H   UNL     1       5.021   4.366  16.671  0.00  0.00    +0.000 HD
ENDROOT
BRANCH  16  18
ATOM     18  C   UNL     1       2.701   4.617  19.838  0.00  0.00    +0.000 C 
ATOM     19  C   UNL     1       3.708   3.476  20.060  0.00  0.00    +0.000 C 
ATOM     20  C   UNL     1       3.243   2.637  21.250  0.00  0.00    +0.000 C 
ATOM     21  C   UNL     1       1.803   2.127  21.088  0.00  0.00    +0.000 C 
ATOM     22  C   UNL     1       0.812   3.180  20.580  0.00  0.00    +0.000 C 
ATOM     23  C   UNL     1       1.366   3.996  19.412  0.00  0.00    +0.000 C 
ENDBRANCH  16  18
TORSDOF 1
ENDMDL
MODEL 8
REMARK VINA RESULT:      -7.1      2.201      4.558
REMARK  Name = 
REMARK  1 active torsions:
REMARK  status: ('A' for Active; 'I' for Inactive)
REMARK    1  A    between atoms: N_16  and  C_17
REMARK                            x       y       z     vdW  Elec       q    Type
REMARK                         _______ _______ _______ _____ _____    ______ ____
ROOT
ATOM      1  N   UNL     1       4.568   4.188  17.362  0.00  0.00    +0.000 NA
ATOM      2  C   UNL     1       4.022   5.327  17.668  0.00  0.00    +0.000 A 
ATOM      3  C   UNL     1       4.346   6.493  16.790  0.00  0.00    +0.000 A 
ATOM      4  C   UNL     1       3.774   7.671  17.049  0.00  0.00    +0.000 A 
ATOM      5  C   UNL     1       2.853   7.818  18.178  0.00  0.00    +0.000 A 
ATOM      6  C   UNL     1       2.552   6.740  19.015  0.00  0.00    +0.000 A 
ATOM      7  N   UNL     1       1.693   6.905  20.053  0.00  0.00    +0.000 NA
ATOM      8  C   UNL     1       1.132   8.099  20.302  0.00  0.00    +0.000 A 
ATOM      9  C   UNL     1       0.269   8.262  21.385  0.00  0.00    +0.000 A 
ATOM     10  C   UNL     1      -0.338   9.492  21.676  0.00  0.00    +0.000 A 
ATOM     11  C   UNL     1      -0.088  10.597  20.875  0.00  0.00    +0.000 A 
ATOM     12  C   UNL     1       0.770  10.465  19.791  0.00  0.00    +0.000 A 
ATOM     13  C   UNL     1       1.383   9.219  19.502  0.00  0.00    +0.000 A 
ATOM     14  N   UNL     1       2.259   9.060  18.420  0.00  0.00    +0.000 N 
ATOM     15  O   UNL     1       2.521  10.064  17.656  0.00  0.00    +0.000 OA
ATOM     16  N   UNL     1       3.174   5.477  18.760  0.00  0.00    +0.000 N 
ATOM     17  H   UNL     1       5.171   4.269  16.538  0.00  0.00    +0.000 HD
ENDROOT
BRANCH  16  18
ATOM     18  C   UNL     1       2.689   4.360  19.589  0.00  0.00    +0.000 C 
ATOM     19  C   UNL     1       1.409   3.664  19.098  0.00  0.00    +0.000 C 
ATOM     20  C   UNL     1       1.229   2.362  19.879  0.00  0.00    +0.000 C 
ATOM     21  C   UNL     1       1.234   2.577  21.400  0.00  0.00    +0.000 C 
ATOM     22  C   UNL     1       2.338   3.515  21.902  0.00  0.00    +0.000 C 
ATOM     23  C   UNL     1       2.473   4.776  21.049  0.00  0.00    +0.000 C 
ENDBRANCH  16  18
TORSDOF 1
ENDMDL
MODEL 9
REMARK VINA RESULT:      -6.8      1.059      1.104
REMARK  Name = 
REMARK  1 active torsions:
REMARK  status: ('A' for Active; 'I' for Inactive)
REMARK    1  A    between atoms: N_16  and  C_17
REMARK                            x       y       z     vdW  Elec       q    Type
REMARK                         _______ _______ _______ _____ _____    ______ ____
ROOT
ATOM      1  N   UNL     1       4.376   1.073  17.938  0.00  0.00    +0.000 NA
ATOM      2  C   UNL     1       3.771   2.152  18.339  0.00  0.00    +0.000 A 
ATOM      3  C   UNL     1       2.792   2.004  19.459  0.00  0.00    +0.000 A 
ATOM      4  C   UNL     1       2.180   3.094  19.925  0.00  0.00    +0.000 A 
ATOM      5  C   UNL     1       2.458   4.409  19.344  0.00  0.00    +0.000 A 
ATOM      6  C   UNL     1       3.360   4.560  18.287  0.00  0.00    +0.000 A 
ATOM      7  N   UNL     1       3.600   5.791  17.769  0.00  0.00    +0.000 NA
ATOM      8  C   UNL     1       2.970   6.877  18.246  0.00  0.00    +0.000 A 
ATOM      9  C   UNL     1       3.207   8.133  17.690  0.00  0.00    +0.000 A 
ATOM     10  C   UNL     1       2.570   9.289  18.163  0.00  0.00    +0.000 A 
ATOM     11  C   UNL     1       1.672   9.206  19.218  0.00  0.00    +0.000 A 
ATOM     12  C   UNL     1       1.414   7.967  19.789  0.00  0.00    +0.000 A 
ATOM     13  C   UNL     1       2.060   6.799  19.306  0.00  0.00    +0.000 A 
ATOM     14  N   UNL     1       1.811   5.536  19.858  0.00  0.00    +0.000 N 
ATOM     15  O   UNL     1       0.979   5.417  20.835  0.00  0.00    +0.000 OA
ATOM     16  N   UNL     1       4.008   3.395  17.765  0.00  0.00    +0.000 N 
ATOM     17  H   UNL     1       4.068   0.251  18.464  0.00  0.00    +0.000 HD
ENDROOT
BRANCH  16  18
ATOM     18  C   UNL     1       5.054   3.657  16.760  0.00  0.00    +0.000 C 
ATOM     19  C   UNL     1       6.244   4.509  17.234  0.00  0.00    +0.000 C 
ATOM     20  C   UNL     1       7.357   4.418  16.189  0.00  0.00    +0.000 C 
ATOM     21  C   UNL     1       6.881   4.804  14.781  0.00  0.00    +0.000 C 
ATOM     22  C   UNL     1       5.532   4.196  14.380  0.00  0.00    +0.000 C 
ATOM     23  C   UNL     1       4.485   4.300  15.489  0.00  0.00    +0.000 C 
ENDBRANCH  16  18
TORSDOF 1
ENDMDL
