MODEL 1
REMARK VINA RESULT:      -7.4      0.000      0.000
REMARK  Name = 
REMARK  10 active torsions:
REMARK  status: ('A' for Active; 'I' for Inactive)
REMARK    1  A    between atoms: C_1  and  O_2
REMARK    2  A    between atoms: O_2  and  C_3
REMARK    3  A    between atoms: C_6  and  C_7
REMARK    4  A    between atoms: N_9  and  C_10
REMARK    5  A    between atoms: C_10  and  C_11
REMARK    6  A    between atoms: C_11  and  C_12
REMARK    7  A    between atoms: C_12  and  C_13
REMARK    8  A    between atoms: C_13  and  C_14
REMARK    9  A    between atoms: C_14  and  C_15
REMARK   10  A    between atoms: C_15  and  N_16
REMARK                            x       y       z     vdW  Elec       q    Type
REMARK                         _______ _______ _______ _____ _____    ______ ____
ROOT
ATOM      1  C   UNL     1       1.592   4.382  18.144  0.00  0.00    +0.000 C 
ENDROOT
BRANCH   1   2
ATOM      2  C   UNL     1       1.260   2.883  18.169  0.00  0.00    +0.000 C 
BRANCH   2   3
ATOM      3  C   UNL     1       2.174   2.058  19.088  0.00  0.00    +0.000 C 
BRANCH   3   4
ATOM      4  C   UNL     1       3.462   1.608  18.401  0.00  0.00    +0.000 C 
BRANCH   4   7
ATOM      5  C   UNL     1       5.085   3.437  18.782  0.00  0.00    +0.000 C 
ATOM      6  O   UNL     1       5.261   3.116  19.953  0.00  0.00    +0.000 OA
ATOM      7  N   UNL     1       4.257   2.726  17.936  0.00  0.00    +0.000 N 
ATOM      8  H   UNL     1       4.152   2.986  16.970  0.00  0.00    +0.000 HD
BRANCH   5  12
ATOM      9  C   UNL     1       7.112   6.958  17.318  0.00  0.00    +0.000 A 
ATOM     10  C   UNL     1       7.655   6.181  18.340  0.00  0.00    +0.000 A 
ATOM     11  C   UNL     1       6.991   5.032  18.786  0.00  0.00    +0.000 A 
ATOM     12  C   UNL     1       5.758   4.658  18.232  0.00  0.00    +0.000 A 
ATOM     13  C   UNL     1       5.207   5.457  17.221  0.00  0.00    +0.000 A 
ATOM     14  C   UNL     1       5.880   6.602  16.771  0.00  0.00    +0.000 A 
BRANCH   9  16
ATOM     15  C   UNL     1       8.008   9.043  17.978  0.00  0.00    +0.000 C 
ATOM     16  O   UNL     1       7.843   8.058  16.961  0.00  0.00    +0.000 OA
ENDBRANCH   9  16
ENDBRANCH   5  12
ENDBRANCH   4   7
ENDBRANCH   3   4
ENDBRANCH   2   3
ENDBRANCH   1   2
BRANCH   1  17
ATOM     17  C   UNL     1       1.609   4.996  19.551  0.00  0.00    +0.000 C 
BRANCH  17  18
ATOM     18  C   UNL     1       2.667   6.100  19.677  0.00  0.00    +0.000 C 
BRANCH  18  19
ATOM     19  N   UNL     1       2.136   7.435  19.413  0.00  0.00    +0.000 N 
ATOM     20  C   UNL     1       1.551   8.142  20.420  0.00  0.00    +0.000 C 
ATOM     21  O   UNL     1       1.481   7.682  21.560  0.00  0.00    +0.000 OA
ATOM     22  N   UNL     1       1.020   9.369  20.115  0.00  0.00    +0.000 N 
ATOM     23  C   UNL     1       0.352  10.056  21.214  0.00  0.00    +0.000 C 
ATOM     24  C   UNL     1      -0.179  11.301  20.601  0.00  0.00    +0.000 A 
ATOM     25  C   UNL     1      -0.915  12.291  21.229  0.00  0.00    +0.000 A 
ATOM     26  C   UNL     1      -1.352  13.368  20.466  0.00  0.00    +0.000 A 
ATOM     27  C   UNL     1      -1.040  13.439  19.099  0.00  0.00    +0.000 A 
ATOM     28  C   UNL     1      -0.284  12.432  18.478  0.00  0.00    +0.000 A 
ATOM     29  C   UNL     1       0.144  11.354  19.241  0.00  0.00    +0.000 A 
ATOM     30  C   UNL     1       0.946  10.134  18.863  0.00  0.00    +0.000 C 
ATOM     31  H   UNL     1       2.303   7.868  18.519  0.00  0.00    +0.000 HD
ENDBRANCH  18  19
ENDBRANCH  17  18
ENDBRANCH   1  17
TORSDOF 9
ENDMDL
MODEL 2
REMARK VINA RESULT:      -7.3      1.439      2.333
REMARK  Name = 
REMARK  10 active torsions:
REMARK  status: ('A' for Active; 'I' for Inactive)
REMARK    1  A    between atoms: C_1  and  O_2
REMARK    2  A    between atoms: O_2  and  C_3
REMARK    3  A    between atoms: C_6  and  C_7
REMARK    4  A    between atoms: N_9  and  C_10
REMARK    5  A    between atoms: C_10  and  C_11
REMARK    6  A    between atoms: C_11  and  C_12
REMARK    7  A    between atoms: C_12  and  C_13
REMARK    8  A    between atoms: C_13  and  C_14
REMARK    9  A    between atoms: C_14  and  C_15
REMARK   10  A    between atoms: C_15  and  N_16
REMARK                            x       y       z     vdW  Elec       q    Type
REMARK                         _______ _______ _______ _____ _____    ______ ____
ROOT
ATOM      1  C   UNL     1       1.912   4.112  21.037  0.00  0.00    +0.000 C 
ENDROOT
BRANCH   1   2
ATOM      2  C   UNL     1       0.893   4.094  19.889  0.00  0.00    +0.000 C 
BRANCH   2   3
ATOM      3  C   UNL     1       0.480   2.683  19.445  0.00  0.00    +0.000 C 
BRANCH   3   4
ATOM      4  C   UNL     1       1.257   2.189  18.228  0.00  0.00    +0.000 C 
BRANCH   4   7
ATOM      5  C   UNL     1       3.650   2.701  17.859  0.00  0.00    +0.000 C 
ATOM      6  O   UNL     1       3.994   1.548  18.096  0.00  0.00    +0.000 OA
ATOM      7  N   UNL     1       2.326   3.092  17.854  0.00  0.00    +0.000 N 
ATOM      8  H   UNL     1       2.062   4.035  17.623  0.00  0.00    +0.000 HD
BRANCH   5  12
ATOM      9  C   UNL     1       6.590   5.726  16.934  0.00  0.00    +0.000 A 
ATOM     10  C   UNL     1       5.519   5.471  16.079  0.00  0.00    +0.000 A 
ATOM     11  C   UNL     1       4.566   4.500  16.408  0.00  0.00    +0.000 A 
ATOM     12  C   UNL     1       4.686   3.750  17.588  0.00  0.00    +0.000 A 
ATOM     13  C   UNL     1       5.778   3.997  18.430  0.00  0.00    +0.000 A 
ATOM     14  C   UNL     1       6.725   4.976  18.101  0.00  0.00    +0.000 A 
BRANCH   9  16
ATOM     15  C   UNL     1       7.728   7.731  17.457  0.00  0.00    +0.000 C 
ATOM     16  O   UNL     1       7.461   6.694  16.515  0.00  0.00    +0.000 OA
ENDBRANCH   9  16
ENDBRANCH   5  12
ENDBRANCH   4   7
ENDBRANCH   3   4
ENDBRANCH   2   3
ENDBRANCH   1   2
BRANCH   1  17
ATOM     17  C   UNL     1       3.148   4.960  20.702  0.00  0.00    +0.000 C 
BRANCH  17  18
ATOM     18  C   UNL     1       2.785   6.181  19.846  0.00  0.00    +0.000 C 
BRANCH  18  19
ATOM     19  N   UNL     1       1.894   7.115  20.528  0.00  0.00    +0.000 N 
ATOM     20  C   UNL     1       1.529   8.275  19.913  0.00  0.00    +0.000 C 
ATOM     21  O   UNL     1       1.922   8.540  18.777  0.00  0.00    +0.000 OA
ATOM     22  N   UNL     1       0.733   9.146  20.611  0.00  0.00    +0.000 N 
ATOM     23  C   UNL     1       0.423  10.398  19.932  0.00  0.00    +0.000 C 
ATOM     24  C   UNL     1      -0.377  11.165  20.921  0.00  0.00    +0.000 A 
ATOM     25  C   UNL     1      -0.901  12.437  20.762  0.00  0.00    +0.000 A 
ATOM     26  C   UNL     1      -1.596  12.998  21.828  0.00  0.00    +0.000 A 
ATOM     27  C   UNL     1      -1.761  12.278  23.022  0.00  0.00    +0.000 A 
ATOM     28  C   UNL     1      -1.234  10.984  23.164  0.00  0.00    +0.000 A 
ATOM     29  C   UNL     1      -0.533  10.430  22.101  0.00  0.00    +0.000 A 
ATOM     30  C   UNL     1       0.149   9.093  21.959  0.00  0.00    +0.000 C 
ATOM     31  H   UNL     1       1.467   6.847  21.400  0.00  0.00    +0.000 HD
ENDBRANCH  18  19
ENDBRANCH  17  18
ENDBRANCH   1  17
TORSDOF 9
ENDMDL
MODEL 3
REMARK VINA RESULT:      -7.3      4.396      9.295
REMARK  Name = 
REMARK  10 active torsions:
REMARK  status: ('A' for Active; 'I' for Inactive)
REMARK    1  A    between atoms: C_1  and  O_2
REMARK    2  A    between atoms: O_2  and  C_3
REMARK    3  A    between atoms: C_6  and  C_7
REMARK    4  A    between atoms: N_9  and  C_10
REMARK    5  A    between atoms: C_10  and  C_11
REMARK    6  A    between atoms: C_11  and  C_12
REMARK    7  A    between atoms: C_12  and  C_13
REMARK    8  A    between atoms: C_13  and  C_14
REMARK    9  A    between atoms: C_14  and  C_15
REMARK   10  A    between atoms: C_15  and  N_16
REMARK                            x       y       z     vdW  Elec       q    Type
REMARK                         _______ _______ _______ _____ _____    ______ ____
ROOT
ATOM      1  C   UNL     1       8.869   9.201  18.816  0.00  0.00    +0.000 C 
ENDROOT
BRANCH   1   2
ATOM      2  C   UNL     1       9.211  10.691  18.966  0.00  0.00    +0.000 C 
BRANCH   2   3
ATOM      3  C   UNL     1      10.233  11.201  17.940  0.00  0.00    +0.000 C 
BRANCH   3   4
ATOM      4  C   UNL     1      10.044  12.676  17.593  0.00  0.00    +0.000 C 
BRANCH   4   7
ATOM      5  C   UNL     1       8.437  14.381  18.389  0.00  0.00    +0.000 C 
ATOM      6  O   UNL     1       9.323  15.205  18.594  0.00  0.00    +0.000 OA
ATOM      7  N   UNL     1       8.695  13.135  17.854  0.00  0.00    +0.000 N 
ATOM      8  H   UNL     1       7.951  12.486  17.662  0.00  0.00    +0.000 HD
BRANCH   5  12
ATOM      9  C   UNL     1       4.317  15.327  19.275  0.00  0.00    +0.000 A 
ATOM     10  C   UNL     1       4.718  14.967  17.989  0.00  0.00    +0.000 A 
ATOM     11  C   UNL     1       6.055  14.645  17.728  0.00  0.00    +0.000 A 
ATOM     12  C   UNL     1       7.018  14.703  18.747  0.00  0.00    +0.000 A 
ATOM     13  C   UNL     1       6.611  15.087  20.032  0.00  0.00    +0.000 A 
ATOM     14  C   UNL     1       5.270  15.400  20.291  0.00  0.00    +0.000 A 
BRANCH   9  16
ATOM     15  C   UNL     1       2.403  16.352  18.344  0.00  0.00    +0.000 C 
ATOM     16  O   UNL     1       2.990  15.622  19.418  0.00  0.00    +0.000 OA
ENDBRANCH   9  16
ENDBRANCH   5  12
ENDBRANCH   4   7
ENDBRANCH   3   4
ENDBRANCH   2   3
ENDBRANCH   1   2
BRANCH   1  17
ATOM     17  C   UNL     1       7.801   8.957  17.741  0.00  0.00    +0.000 C 
BRANCH  17  18
ATOM     18  C   UNL     1       7.693   7.471  17.374  0.00  0.00    +0.000 C 
BRANCH  18  19
ATOM     19  N   UNL     1       6.623   6.780  18.089  0.00  0.00    +0.000 N 
ATOM     20  C   UNL     1       5.779   5.953  17.412  0.00  0.00    +0.000 C 
ATOM     21  O   UNL     1       5.917   5.758  16.204  0.00  0.00    +0.000 OA
ATOM     22  N   UNL     1       4.758   5.366  18.114  0.00  0.00    +0.000 N 
ATOM     23  C   UNL     1       3.849   4.539  17.331  0.00  0.00    +0.000 C 
ATOM     24  C   UNL     1       2.821   4.095  18.307  0.00  0.00    +0.000 A 
ATOM     25  C   UNL     1       1.718   3.298  18.051  0.00  0.00    +0.000 A 
ATOM     26  C   UNL     1       0.849   3.023  19.101  0.00  0.00    +0.000 A 
ATOM     27  C   UNL     1       1.103   3.539  20.383  0.00  0.00    +0.000 A 
ATOM     28  C   UNL     1       2.233   4.337  20.629  0.00  0.00    +0.000 A 
ATOM     29  C   UNL     1       3.093   4.616  19.576  0.00  0.00    +0.000 A 
ATOM     30  C   UNL     1       4.356   5.438  19.526  0.00  0.00    +0.000 C 
ATOM     31  H   UNL     1       6.584   6.834  19.094  0.00  0.00    +0.000 HD
ENDBRANCH  18  19
ENDBRANCH  17  18
ENDBRANCH   1  17
TORSDOF 9
ENDMDL
MODEL 4
REMARK VINA RESULT:      -7.3      1.548      2.265
REMARK  Name = 
REMARK  10 active torsions:
REMARK  status: ('A' for Active; 'I' for Inactive)
REMARK    1  A    between atoms: C_1  and  O_2
REMARK    2  A    between atoms: O_2  and  C_3
REMARK    3  A    between atoms: C_6  and  C_7
REMARK    4  A    between atoms: N_9  and  C_10
REMARK    5  A    between atoms: C_10  and  C_11
REMARK    6  A    between atoms: C_11  and  C_12
REMARK    7  A    between atoms: C_12  and  C_13
REMARK    8  A    between atoms: C_13  and  C_14
REMARK    9  A    between atoms: C_14  and  C_15
REMARK   10  A    between atoms: C_15  and  N_16
REMARK                            x       y       z     vdW  Elec       q    Type
REMARK                         _______ _______ _______ _____ _____    ______ ____
ROOT
ATOM      1  C   UNL     1       1.746   4.920  20.920  0.00  0.00    +0.000 C 
ENDROOT
BRANCH   1   2
ATOM      2  C   UNL     1       1.278   3.461  20.821  0.00  0.00    +0.000 C 
BRANCH   2   3
ATOM      3  C   UNL     1       0.455   3.155  19.561  0.00  0.00    +0.000 C 
BRANCH   3   4
ATOM      4  C   UNL     1       1.265   2.453  18.474  0.00  0.00    +0.000 C 
BRANCH   4   7
ATOM      5  C   UNL     1       3.593   2.805  17.711  0.00  0.00    +0.000 C 
ATOM      6  O   UNL     1       3.879   1.620  17.849  0.00  0.00    +0.000 OA
ATOM      7  N   UNL     1       2.323   3.292  17.949  0.00  0.00    +0.000 N 
ATOM      8  H   UNL     1       2.100   4.261  17.798  0.00  0.00    +0.000 HD
BRANCH   5  12
ATOM      9  C   UNL     1       6.668   5.651  16.664  0.00  0.00    +0.000 A 
ATOM     10  C   UNL     1       6.644   5.037  17.916  0.00  0.00    +0.000 A 
ATOM     11  C   UNL     1       5.650   4.103  18.228  0.00  0.00    +0.000 A 
ATOM     12  C   UNL     1       4.647   3.786  17.298  0.00  0.00    +0.000 A 
ATOM     13  C   UNL     1       4.666   4.424  16.050  0.00  0.00    +0.000 A 
ATOM     14  C   UNL     1       5.669   5.353  15.739  0.00  0.00    +0.000 A 
BRANCH   9  16
ATOM     15  C   UNL     1       7.671   7.686  17.323  0.00  0.00    +0.000 C 
ATOM     16  O   UNL     1       7.682   6.547  16.467  0.00  0.00    +0.000 OA
ENDBRANCH   9  16
ENDBRANCH   5  12
ENDBRANCH   4   7
ENDBRANCH   3   4
ENDBRANCH   2   3
ENDBRANCH   1   2
BRANCH   1  17
ATOM     17  C   UNL     1       2.907   5.223  19.962  0.00  0.00    +0.000 C 
BRANCH  17  18
ATOM     18  C   UNL     1       3.063   6.730  19.715  0.00  0.00    +0.000 C 
BRANCH  18  19
ATOM     19  N   UNL     1       2.081   7.534  20.440  0.00  0.00    +0.000 N 
ATOM     20  C   UNL     1       1.505   8.609  19.833  0.00  0.00    +0.000 C 
ATOM     21  O   UNL     1       1.782   8.903  18.671  0.00  0.00    +0.000 OA
ATOM     22  N   UNL     1       0.629   9.364  20.568  0.00  0.00    +0.000 N 
ATOM     23  C   UNL     1       0.088  10.537  19.892  0.00  0.00    +0.000 C 
ATOM     24  C   UNL     1      -0.759  11.196  20.919  0.00  0.00    +0.000 A 
ATOM     25  C   UNL     1      -1.481  12.370  20.776  0.00  0.00    +0.000 A 
ATOM     26  C   UNL     1      -2.187  12.844  21.876  0.00  0.00    +0.000 A 
ATOM     27  C   UNL     1      -2.166  12.136  23.089  0.00  0.00    +0.000 A 
ATOM     28  C   UNL     1      -1.437  10.942  23.215  0.00  0.00    +0.000 A 
ATOM     29  C   UNL     1      -0.727  10.476  22.118  0.00  0.00    +0.000 A 
ATOM     30  C   UNL     1       0.143   9.256  21.951  0.00  0.00    +0.000 C 
ATOM     31  H   UNL     1       1.756   7.224  21.342  0.00  0.00    +0.000 HD
ENDBRANCH  18  19
ENDBRANCH  17  18
ENDBRANCH   1  17
TORSDOF 9
ENDMDL
MODEL 5
REMARK VINA RESULT:      -7.2      1.404      1.926
REMARK  Name = 
REMARK  10 active torsions:
REMARK  status: ('A' for Active; 'I' for Inactive)
REMARK    1  A    between atoms: C_1  and  O_2
REMARK    2  A    between atoms: O_2  and  C_3
REMARK    3  A    between atoms: C_6  and  C_7
REMARK    4  A    between atoms: N_9  and  C_10
REMARK    5  A    between atoms: C_10  and  C_11
REMARK    6  A    between atoms: C_11  and  C_12
REMARK    7  A    between atoms: C_12  and  C_13
REMARK    8  A    between atoms: C_13  and  C_14
REMARK    9  A    between atoms: C_14  and  C_15
REMARK   10  A    between atoms: C_15  and  N_16
REMARK                            x       y       z     vdW  Elec       q    Type
REMARK                         _______ _______ _______ _____ _____    ______ ____
ROOT
ATOM      1  C   UNL     1       1.342   3.623  18.760  0.00  0.00    +0.000 C 
ENDROOT
BRANCH   1   2
ATOM      2  C   UNL     1       1.761   2.147  18.708  0.00  0.00    +0.000 C 
BRANCH   2   3
ATOM      3  C   UNL     1       3.186   1.923  18.182  0.00  0.00    +0.000 C 
BRANCH   3   4
ATOM      4  C   UNL     1       4.249   2.026  19.274  0.00  0.00    +0.000 C 
BRANCH   4   7
ATOM      5  C   UNL     1       5.092   3.991  18.029  0.00  0.00    +0.000 C 
ATOM      6  O   UNL     1       4.480   3.683  17.012  0.00  0.00    +0.000 OA
ATOM      7  N   UNL     1       4.999   3.263  19.198  0.00  0.00    +0.000 N 
ATOM      8  H   UNL     1       5.482   3.551  20.031  0.00  0.00    +0.000 HD
BRANCH   5  12
ATOM      9  C   UNL     1       7.775   7.374  18.141  0.00  0.00    +0.000 A 
ATOM     10  C   UNL     1       7.987   6.253  18.942  0.00  0.00    +0.000 A 
ATOM     11  C   UNL     1       7.116   5.159  18.876  0.00  0.00    +0.000 A 
ATOM     12  C   UNL     1       6.003   5.181  18.022  0.00  0.00    +0.000 A 
ATOM     13  C   UNL     1       5.783   6.320  17.237  0.00  0.00    +0.000 A 
ATOM     14  C   UNL     1       6.663   7.410  17.300  0.00  0.00    +0.000 A 
BRANCH   9  16
ATOM     15  C   UNL     1       8.196   9.696  18.016  0.00  0.00    +0.000 C 
ATOM     16  O   UNL     1       8.685   8.384  18.286  0.00  0.00    +0.000 OA
ENDBRANCH   9  16
ENDBRANCH   5  12
ENDBRANCH   4   7
ENDBRANCH   3   4
ENDBRANCH   2   3
ENDBRANCH   1   2
BRANCH   1  17
ATOM     17  C   UNL     1       1.127   4.115  20.199  0.00  0.00    +0.000 C 
BRANCH  17  18
ATOM     18  C   UNL     1       2.057   5.286  20.544  0.00  0.00    +0.000 C 
BRANCH  18  19
ATOM     19  N   UNL     1       1.342   6.456  21.050  0.00  0.00    +0.000 N 
ATOM     20  C   UNL     1       1.465   7.653  20.411  0.00  0.00    +0.000 C 
ATOM     21  O   UNL     1       2.154   7.762  19.397  0.00  0.00    +0.000 OA
ATOM     22  N   UNL     1       0.818   8.735  20.950  0.00  0.00    +0.000 N 
ATOM     23  C   UNL     1       1.032  10.003  20.264  0.00  0.00    +0.000 C 
ATOM     24  C   UNL     1       0.288  10.994  21.082  0.00  0.00    +0.000 A 
ATOM     25  C   UNL     1       0.195  12.358  20.858  0.00  0.00    +0.000 A 
ATOM     26  C   UNL     1      -0.526  13.125  21.767  0.00  0.00    +0.000 A 
ATOM     27  C   UNL     1      -1.144  12.516  22.872  0.00  0.00    +0.000 A 
ATOM     28  C   UNL     1      -1.050  11.130  23.080  0.00  0.00    +0.000 A 
ATOM     29  C   UNL     1      -0.323  10.370  22.175  0.00  0.00    +0.000 A 
ATOM     30  C   UNL     1      -0.036   8.890  22.137  0.00  0.00    +0.000 C 
ATOM     31  H   UNL     1       0.678   6.346  21.799  0.00  0.00    +0.000 HD
ENDBRANCH  18  19
ENDBRANCH  17  18
ENDBRANCH   1  17
TORSDOF 9
ENDMDL
MODEL 6
REMARK VINA RESULT:      -7.1      2.004      2.660
REMARK  Name = 
REMARK  10 active torsions:
REMARK  status: ('A' for Active; 'I' for Inactive)
REMARK    1  A    between atoms: C_1  and  O_2
REMARK    2  A    between atoms: O_2  and  C_3
REMARK    3  A    between atoms: C_6  and  C_7
REMARK    4  A    between atoms: N_9  and  C_10
REMARK    5  A    between atoms: C_10  and  C_11
REMARK    6  A    between atoms: C_11  and  C_12
REMARK    7  A    between atoms: C_12  and  C_13
REMARK    8  A    between atoms: C_13  and  C_14
REMARK    9  A    between atoms: C_14  and  C_15
REMARK   10  A    between atoms: C_15  and  N_16
REMARK                            x       y       z     vdW  Elec       q    Type
REMARK                         _______ _______ _______ _____ _____    ______ ____
ROOT
ATOM      1  C   UNL     1       1.090   4.614  20.568  0.00  0.00    +0.000 C 
ENDROOT
BRANCH   1   2
ATOM      2  C   UNL     1       1.179   3.091  20.393  0.00  0.00    +0.000 C 
BRANCH   2   3
ATOM      3  C   UNL     1       2.616   2.560  20.278  0.00  0.00    +0.000 C 
BRANCH   3   4
ATOM      4  C   UNL     1       2.902   1.897  18.933  0.00  0.00    +0.000 C 
BRANCH   4   7
ATOM      5  C   UNL     1       3.749   3.662  17.419  0.00  0.00    +0.000 C 
ATOM      6  O   UNL     1       2.652   4.206  17.344  0.00  0.00    +0.000 OA
ATOM      7  N   UNL     1       3.973   2.554  18.212  0.00  0.00    +0.000 N 
ATOM      8  H   UNL     1       4.888   2.143  18.287  0.00  0.00    +0.000 HD
BRANCH   5  12
ATOM      9  C   UNL     1       7.070   5.026  15.019  0.00  0.00    +0.000 A 
ATOM     10  C   UNL     1       6.334   3.897  14.664  0.00  0.00    +0.000 A 
ATOM     11  C   UNL     1       5.250   3.483  15.445  0.00  0.00    +0.000 A 
ATOM     12  C   UNL     1       4.899   4.181  16.611  0.00  0.00    +0.000 A 
ATOM     13  C   UNL     1       5.657   5.302  16.974  0.00  0.00    +0.000 A 
ATOM     14  C   UNL     1       6.738   5.718  16.183  0.00  0.00    +0.000 A 
BRANCH   9  16
ATOM     15  C   UNL     1       7.798   5.360  12.796  0.00  0.00    +0.000 C 
ATOM     16  O   UNL     1       8.109   5.340  14.187  0.00  0.00    +0.000 OA
ENDBRANCH   9  16
ENDBRANCH   5  12
ENDBRANCH   4   7
ENDBRANCH   3   4
ENDBRANCH   2   3
ENDBRANCH   1   2
BRANCH   1  17
ATOM     17  C   UNL     1       2.476   5.274  20.614  0.00  0.00    +0.000 C 
BRANCH  17  18
ATOM     18  C   UNL     1       2.530   6.543  19.752  0.00  0.00    +0.000 C 
BRANCH  18  19
ATOM     19  N   UNL     1       1.765   7.652  20.317  0.00  0.00    +0.000 N 
ATOM     20  C   UNL     1       1.660   8.822  19.628  0.00  0.00    +0.000 C 
ATOM     21  O   UNL     1       2.182   8.955  18.522  0.00  0.00    +0.000 OA
ATOM     22  N   UNL     1       0.976   9.853  20.220  0.00  0.00    +0.000 N 
ATOM     23  C   UNL     1       0.945  11.102  19.468  0.00  0.00    +0.000 C 
ATOM     24  C   UNL     1       0.216  12.046  20.352  0.00  0.00    +0.000 A 
ATOM     25  C   UNL     1      -0.061  13.379  20.099  0.00  0.00    +0.000 A 
ATOM     26  C   UNL     1      -0.729  14.108  21.077  0.00  0.00    +0.000 A 
ATOM     27  C   UNL     1      -1.113  13.491  22.280  0.00  0.00    +0.000 A 
ATOM     28  C   UNL     1      -0.833  12.136  22.517  0.00  0.00    +0.000 A 
ATOM     29  C   UNL     1      -0.159  11.414  21.542  0.00  0.00    +0.000 A 
ATOM     30  C   UNL     1       0.287   9.974  21.512  0.00  0.00    +0.000 C 
ATOM     31  H   UNL     1       1.230   7.508  21.158  0.00  0.00    +0.000 HD
ENDBRANCH  18  19
ENDBRANCH  17  18
ENDBRANCH   1  17
TORSDOF 9
ENDMDL
MODEL 7
REMARK VINA RESULT:      -7.0      1.728      2.417
REMARK  Name = 
REMARK  10 active torsions:
REMARK  status: ('A' for Active; 'I' for Inactive)
REMARK    1  A    between atoms: C_1  and  O_2
REMARK    2  A    between atoms: O_2  and  C_3
REMARK    3  A    between atoms: C_6  and  C_7
REMARK    4  A    between atoms: N_9  and  C_10
REMARK    5  A    between atoms: C_10  and  C_11
REMARK    6  A    between atoms: C_11  and  C_12
REMARK    7  A    between atoms: C_12  and  C_13
REMARK    8  A    between atoms: C_13  and  C_14
REMARK    9  A    between atoms: C_14  and  C_15
REMARK   10  A    between atoms: C_15  and  N_16
REMARK                            x       y       z     vdW  Elec       q    Type
REMARK                         _______ _______ _______ _____ _____    ______ ____
ROOT
ATOM      1  C   UNL     1       1.297   4.998  20.303  0.00  0.00    +0.000 C 
ENDROOT
BRANCH   1   2
ATOM      2  C   UNL     1       1.809   3.804  21.120  0.00  0.00    +0.000 C 
BRANCH   2   3
ATOM      3  C   UNL     1       1.328   2.441  20.599  0.00  0.00    +0.000 C 
BRANCH   3   4
ATOM      4  C   UNL     1       2.011   2.024  19.299  0.00  0.00    +0.000 C 
BRANCH   4   7
ATOM      5  C   UNL     1       3.158   3.474  17.654  0.00  0.00    +0.000 C 
ATOM      6  O   UNL     1       2.296   3.290  16.802  0.00  0.00    +0.000 OA
ATOM      7  N   UNL     1       3.075   2.932  18.921  0.00  0.00    +0.000 N 
ATOM      8  H   UNL     1       3.776   3.123  19.617  0.00  0.00    +0.000 HD
BRANCH   5  12
ATOM      9  C   UNL     1       6.575   5.955  16.745  0.00  0.00    +0.000 A 
ATOM     10  C   UNL     1       5.502   6.443  17.490  0.00  0.00    +0.000 A 
ATOM     11  C   UNL     1       4.414   5.616  17.790  0.00  0.00    +0.000 A 
ATOM     12  C   UNL     1       4.371   4.292  17.327  0.00  0.00    +0.000 A 
ATOM     13  C   UNL     1       5.442   3.816  16.560  0.00  0.00    +0.000 A 
ATOM     14  C   UNL     1       6.535   4.645  16.268  0.00  0.00    +0.000 A 
BRANCH   9  16
ATOM     15  C   UNL     1       7.750   7.863  17.495  0.00  0.00    +0.000 C 
ATOM     16  O   UNL     1       7.584   6.847  16.509  0.00  0.00    +0.000 OA
ENDBRANCH   9  16
ENDBRANCH   5  12
ENDBRANCH   4   7
ENDBRANCH   3   4
ENDBRANCH   2   3
ENDBRANCH   1   2
BRANCH   1  17
ATOM     17  C   UNL     1       1.893   6.329  20.785  0.00  0.00    +0.000 C 
BRANCH  17  18
ATOM     18  C   UNL     1       1.825   7.410  19.697  0.00  0.00    +0.000 C 
BRANCH  18  19
ATOM     19  N   UNL     1       1.314   8.687  20.190  0.00  0.00    +0.000 N 
ATOM     20  C   UNL     1       1.043   9.692  19.312  0.00  0.00    +0.000 C 
ATOM     21  O   UNL     1       1.200   9.536  18.101  0.00  0.00    +0.000 OA
ATOM     22  N   UNL     1       0.615  10.890  19.823  0.00  0.00    +0.000 N 
ATOM     23  C   UNL     1       0.398  11.950  18.847  0.00  0.00    +0.000 C 
ATOM     24  C   UNL     1       0.016  13.131  19.663  0.00  0.00    +0.000 A 
ATOM     25  C   UNL     1      -0.278  14.403  19.202  0.00  0.00    +0.000 A 
ATOM     26  C   UNL     1      -0.582  15.386  20.138  0.00  0.00    +0.000 A 
ATOM     27  C   UNL     1      -0.595  15.078  21.508  0.00  0.00    +0.000 A 
ATOM     28  C   UNL     1      -0.306  13.780  21.960  0.00  0.00    +0.000 A 
ATOM     29  C   UNL     1       0.005  12.804  21.023  0.00  0.00    +0.000 A 
ATOM     30  C   UNL     1       0.366  11.350  21.197  0.00  0.00    +0.000 C 
ATOM     31  H   UNL     1       1.062   8.779  21.161  0.00  0.00    +0.000 HD
ENDBRANCH  18  19
ENDBRANCH  17  18
ENDBRANCH   1  17
TORSDOF 9
ENDMDL
MODEL 8
REMARK VINA RESULT:      -7.0      3.252      4.766
REMARK  Name = 
REMARK  10 active torsions:
REMARK  status: ('A' for Active; 'I' for Inactive)
REMARK    1  A    between atoms: C_1  and  O_2
REMARK    2  A    between atoms: O_2  and  C_3
REMARK    3  A    between atoms: C_6  and  C_7
REMARK    4  A    between atoms: N_9  and  C_10
REMARK    5  A    between atoms: C_10  and  C_11
REMARK    6  A    between atoms: C_11  and  C_12
REMARK    7  A    between atoms: C_12  and  C_13
REMARK    8  A    between atoms: C_13  and  C_14
REMARK    9  A    between atoms: C_14  and  C_15
REMARK   10  A    between atoms: C_15  and  N_16
REMARK                            x       y       z     vdW  Elec       q    Type
REMARK                         _______ _______ _______ _____ _____    ______ ____
ROOT
ATOM      1  C   UNL     1       5.376   5.456  19.432  0.00  0.00    +0.000 C 
ENDROOT
BRANCH   1   2
ATOM      2  C   UNL     1       6.743   5.063  18.853  0.00  0.00    +0.000 C 
BRANCH   2   3
ATOM      3  C   UNL     1       7.744   6.225  18.776  0.00  0.00    +0.000 C 
BRANCH   3   4
ATOM      4  C   UNL     1       7.640   7.016  17.474  0.00  0.00    +0.000 C 
BRANCH   4   7
ATOM      5  C   UNL     1       6.304   6.154  15.578  0.00  0.00    +0.000 C 
ATOM      6  O   UNL     1       5.382   6.933  15.797  0.00  0.00    +0.000 OA
ATOM      7  N   UNL     1       7.468   6.157  16.320  0.00  0.00    +0.000 N 
ATOM      8  H   UNL     1       8.226   5.533  16.104  0.00  0.00    +0.000 HD
BRANCH   5  12
ATOM      9  C   UNL     1       6.050   3.278  12.366  0.00  0.00    +0.000 A 
ATOM     10  C   UNL     1       7.165   4.101  12.516  0.00  0.00    +0.000 A 
ATOM     11  C   UNL     1       7.235   5.012  13.576  0.00  0.00    +0.000 A 
ATOM     12  C   UNL     1       6.177   5.132  14.489  0.00  0.00    +0.000 A 
ATOM     13  C   UNL     1       5.050   4.317  14.319  0.00  0.00    +0.000 A 
ATOM     14  C   UNL     1       4.987   3.399  13.261  0.00  0.00    +0.000 A 
BRANCH   9  16
ATOM     15  C   UNL     1       7.224   1.573  11.227  0.00  0.00    +0.000 C 
ATOM     16  O   UNL     1       6.084   2.426  11.297  0.00  0.00    +0.000 OA
ENDBRANCH   9  16
ENDBRANCH   5  12
ENDBRANCH   4   7
ENDBRANCH   3   4
ENDBRANCH   2   3
ENDBRANCH   1   2
BRANCH   1  17
ATOM     17  C   UNL     1       4.213   4.831  18.647  0.00  0.00    +0.000 C 
BRANCH  17  18
ATOM     18  C   UNL     1       3.304   5.902  18.028  0.00  0.00    +0.000 C 
BRANCH  18  19
ATOM     19  N   UNL     1       2.484   6.599  19.017  0.00  0.00    +0.000 N 
ATOM     20  C   UNL     1       2.094   7.884  18.788  0.00  0.00    +0.000 C 
ATOM     21  O   UNL     1       2.404   8.464  17.748  0.00  0.00    +0.000 OA
ATOM     22  N   UNL     1       1.370   8.516  19.766  0.00  0.00    +0.000 N 
ATOM     23  C   UNL     1       1.030   9.908  19.498  0.00  0.00    +0.000 C 
ATOM     24  C   UNL     1       0.322  10.357  20.724  0.00  0.00    +0.000 A 
ATOM     25  C   UNL     1      -0.189  11.619  20.976  0.00  0.00    +0.000 A 
ATOM     26  C   UNL     1      -0.790  11.849  22.208  0.00  0.00    +0.000 A 
ATOM     27  C   UNL     1      -0.876  10.817  23.157  0.00  0.00    +0.000 A 
ATOM     28  C   UNL     1      -0.362   9.539  22.883  0.00  0.00    +0.000 A 
ATOM     29  C   UNL     1       0.244   9.316  21.654  0.00  0.00    +0.000 A 
ATOM     30  C   UNL     1       0.890   8.078  21.084  0.00  0.00    +0.000 C 
ATOM     31  H   UNL     1       2.121   6.091  19.807  0.00  0.00    +0.000 HD
ENDBRANCH  18  19
ENDBRANCH  17  18
ENDBRANCH   1  17
TORSDOF 9
ENDMDL
MODEL 9
REMARK VINA RESULT:      -7.0      4.426      9.388
REMARK  Name = 
REMARK  10 active torsions:
REMARK  status: ('A' for Active; 'I' for Inactive)
REMARK    1  A    between atoms: C_1  and  O_2
REMARK    2  A    between atoms: O_2  and  C_3
REMARK    3  A    between atoms: C_6  and  C_7
REMARK    4  A    between atoms: N_9  and  C_10
REMARK    5  A    between atoms: C_10  and  C_11
REMARK    6  A    between atoms: C_11  and  C_12
REMARK    7  A    between atoms: C_12  and  C_13
REMARK    8  A    between atoms: C_13  and  C_14
REMARK    9  A    between atoms: C_14  and  C_15
REMARK   10  A    between atoms: C_15  and  N_16
REMARK                            x       y       z     vdW  Elec       q    Type
REMARK                         _______ _______ _______ _____ _____    ______ ____
ROOT
ATOM      1  C   UNL     1       8.785   9.590  18.183  0.00  0.00    +0.000 C 
ENDROOT
BRANCH   1   2
ATOM      2  C   UNL     1       9.361  10.414  19.343  0.00  0.00    +0.000 C 
BRANCH   2   3
ATOM      3  C   UNL     1      10.581  11.264  18.957  0.00  0.00    +0.000 C 
BRANCH   3   4
ATOM      4  C   UNL     1      10.216  12.483  18.113  0.00  0.00    +0.000 C 
BRANCH   4   7
ATOM      5  C   UNL     1       8.512  14.274  18.231  0.00  0.00    +0.000 C 
ATOM      6  O   UNL     1       9.288  15.121  17.797  0.00  0.00    +0.000 OA
ATOM      7  N   UNL     1       8.868  12.948  18.372  0.00  0.00    +0.000 N 
ATOM      8  H   UNL     1       8.208  12.263  18.698  0.00  0.00    +0.000 HD
BRANCH   5  12
ATOM      9  C   UNL     1       4.567  15.382  19.595  0.00  0.00    +0.000 A 
ATOM     10  C   UNL     1       5.621  15.205  20.490  0.00  0.00    +0.000 A 
ATOM     11  C   UNL     1       6.896  14.866  20.025  0.00  0.00    +0.000 A 
ATOM     12  C   UNL     1       7.132  14.673  18.655  0.00  0.00    +0.000 A 
ATOM     13  C   UNL     1       6.062  14.829  17.764  0.00  0.00    +0.000 A 
ATOM     14  C   UNL     1       4.788  15.178  18.233  0.00  0.00    +0.000 A 
BRANCH   9  16
ATOM     15  C   UNL     1       2.940  17.057  19.956  0.00  0.00    +0.000 C 
ATOM     16  O   UNL     1       3.364  15.711  20.156  0.00  0.00    +0.000 OA
ENDBRANCH   9  16
ENDBRANCH   5  12
ENDBRANCH   4   7
ENDBRANCH   3   4
ENDBRANCH   2   3
ENDBRANCH   1   2
BRANCH   1  17
ATOM     17  C   UNL     1       8.430   8.158  18.608  0.00  0.00    +0.000 C 
BRANCH  17  18
ATOM     18  C   UNL     1       7.613   7.431  17.532  0.00  0.00    +0.000 C 
BRANCH  18  19
ATOM     19  N   UNL     1       6.722   6.411  18.081  0.00  0.00    +0.000 N 
ATOM     20  C   UNL     1       5.500   6.205  17.516  0.00  0.00    +0.000 C 
ATOM     21  O   UNL     1       5.139   6.850  16.532  0.00  0.00    +0.000 OA
ATOM     22  N   UNL     1       4.676   5.274  18.096  0.00  0.00    +0.000 N 
ATOM     23  C   UNL     1       3.357   5.136  17.490  0.00  0.00    +0.000 C 
ATOM     24  C   UNL     1       2.665   4.134  18.340  0.00  0.00    +0.000 A 
ATOM     25  C   UNL     1       1.369   3.668  18.192  0.00  0.00    +0.000 A 
ATOM     26  C   UNL     1       0.892   2.749  19.120  0.00  0.00    +0.000 A 
ATOM     27  C   UNL     1       1.717   2.309  20.168  0.00  0.00    +0.000 A 
ATOM     28  C   UNL     1       3.033   2.782  20.299  0.00  0.00    +0.000 A 
ATOM     29  C   UNL     1       3.503   3.706  19.375  0.00  0.00    +0.000 A 
ATOM     30  C   UNL     1       4.839   4.394  19.262  0.00  0.00    +0.000 C 
ATOM     31  H   UNL     1       7.059   5.793  18.802  0.00  0.00    +0.000 HD
ENDBRANCH  18  19
ENDBRANCH  17  18
ENDBRANCH   1  17
TORSDOF 9
ENDMDL
