MODEL 1
REMARK VINA RESULT:      -8.7      0.000      0.000
REMARK  Name = 
REMARK  7 active torsions:
REMARK  status: ('A' for Active; 'I' for Inactive)
REMARK    1  A    between atoms: C_1  and  C_2
REMARK    2  A    between atoms: C_2  and  C_4
REMARK    3  A    between atoms: C_5  and  C_6
REMARK    4  A    between atoms: C_15  and  N_16
REMARK    5  A    between atoms: C_31  and  C_32
REMARK    6  A    between atoms: C_32  and  C_33
REMARK    7  A    between atoms: C_32  and  C_34
REMARK                            x       y       z     vdW  Elec       q    Type
REMARK                         _______ _______ _______ _____ _____    ______ ____
ROOT
ATOM      1  C   UNL     1       0.471  15.696  21.304  0.00  0.00    +0.000 A 
ATOM      2  C   UNL     1      -0.344  14.908  22.051  0.00  0.00    +0.000 A 
ATOM      3  C   UNL     1      -1.416  15.394  22.993  0.00  0.00    +0.000 C 
ATOM      4  C   UNL     1      -0.211  13.431  21.936  0.00  0.00    +0.000 A 
ATOM      5  C   UNL     1      -0.872  12.518  22.734  0.00  0.00    +0.000 A 
ATOM      6  N   UNL     1      -0.751  11.180  22.627  0.00  0.00    +0.000 NA
ATOM      7  C   UNL     1       0.043  10.708  21.659  0.00  0.00    +0.000 A 
ATOM      8  N   UNL     1       0.117   9.326  21.573  0.00  0.00    +0.000 N 
ATOM      9  C   UNL     1       0.895   8.547  20.732  0.00  0.00    +0.000 A 
ATOM     10  C   UNL     1       1.179   8.944  19.437  0.00  0.00    +0.000 A 
ATOM     11  C   UNL     1       1.993   8.156  18.633  0.00  0.00    +0.000 A 
ATOM     12  C   UNL     1       2.525   6.955  19.094  0.00  0.00    +0.000 A 
ATOM     13  C   UNL     1       2.149   6.630  20.402  0.00  0.00    +0.000 A 
ATOM     14  N   UNL     1       1.352   7.377  21.218  0.00  0.00    +0.000 NA
ATOM     15  N   UNL     1       0.749  11.507  20.836  0.00  0.00    +0.000 NA
ATOM     16  C   UNL     1       0.624  12.841  21.006  0.00  0.00    +0.000 A 
ATOM     17  N   UNL     1       1.397  13.728  20.218  0.00  0.00    +0.000 N 
ATOM     18  C   UNL     1       2.305  13.449  19.213  0.00  0.00    +0.000 A 
ATOM     19  C   UNL     1       2.769  14.675  18.775  0.00  0.00    +0.000 A 
ATOM     20  N   UNL     1       2.188  15.675  19.507  0.00  0.00    +0.000 NA
ATOM     21  C   UNL     1       1.363  15.106  20.357  0.00  0.00    +0.000 A 
ATOM     22  H   UNL     1      -0.099   8.882  22.451  0.00  0.00    +0.000 HD
ENDROOT
BRANCH  12  23
ATOM     23  N   UNL     1       3.288   6.149  18.286  0.00  0.00    +0.000 N 
ATOM     24  C   UNL     1       2.756   4.998  17.575  0.00  0.00    +0.000 C 
ATOM     25  C   UNL     1       4.005   4.198  17.251  0.00  0.00    +0.000 C 
ATOM     26  C   UNL     1       5.138   5.234  17.113  0.00  0.00    +0.000 C 
ATOM     27  C   UNL     1       6.409   4.813  17.883  0.00  0.00    +0.000 C 
ATOM     28  C   UNL     1       7.502   4.730  16.833  0.00  0.00    +0.000 C 
ATOM     29  N   UNL     1       7.045   5.630  15.778  0.00  0.00    +0.000 NA
ATOM     30  C   UNL     1       5.611   5.372  15.662  0.00  0.00    +0.000 C 
ATOM     31  C   UNL     1       4.555   6.556  17.678  0.00  0.00    +0.000 C 
ATOM     32  H   UNL     1       7.518   5.410  14.901  0.00  0.00    +0.000 HD
ENDBRANCH  12  23
BRANCH   1  34
ATOM     33  C   UNL     1      -0.394  18.042  20.544  0.00  0.00    +0.000 C 
ATOM     34  C   UNL     1       0.482  17.203  21.445  0.00  0.00    +0.000 C 
ATOM     35  O   UNL     1       1.221  17.759  22.259  0.00  0.00    +0.000 OA
ENDBRANCH   1  34
BRANCH  19  36
ATOM     36  C   UNL     1       3.731  15.047  17.680  0.00  0.00    +0.000 C 
ATOM     37  C   UNL     1       3.447  16.459  17.150  0.00  0.00    +0.000 C 
ATOM     38  C   UNL     1       5.186  14.988  18.163  0.00  0.00    +0.000 C 
ENDBRANCH  19  36
TORSDOF 3
ENDMDL
MODEL 2
REMARK VINA RESULT:      -8.1      1.425      2.220
REMARK  Name = 
REMARK  7 active torsions:
REMARK  status: ('A' for Active; 'I' for Inactive)
REMARK    1  A    between atoms: C_1  and  C_2
REMARK    2  A    between atoms: C_2  and  C_4
REMARK    3  A    between atoms: C_5  and  C_6
REMARK    4  A    between atoms: C_15  and  N_16
REMARK    5  A    between atoms: C_31  and  C_32
REMARK    6  A    between atoms: C_32  and  C_33
REMARK    7  A    between atoms: C_32  and  C_34
REMARK                            x       y       z     vdW  Elec       q    Type
REMARK                         _______ _______ _______ _____ _____    ______ ____
ROOT
ATOM      1  C   UNL     1      -0.255  13.804  22.082  0.00  0.00    +0.000 A 
ATOM      2  C   UNL     1      -0.906  12.717  22.571  0.00  0.00    +0.000 A 
ATOM      3  C   UNL     1      -2.113  12.748  23.474  0.00  0.00    +0.000 C 
ATOM      4  C   UNL     1      -0.429  11.363  22.183  0.00  0.00    +0.000 A 
ATOM      5  C   UNL     1      -0.905  10.180  22.713  0.00  0.00    +0.000 A 
ATOM      6  N   UNL     1      -0.471   8.955  22.357  0.00  0.00    +0.000 NA
ATOM      7  C   UNL     1       0.465   8.883  21.403  0.00  0.00    +0.000 A 
ATOM      8  N   UNL     1       0.861   7.600  21.056  0.00  0.00    +0.000 N 
ATOM      9  C   UNL     1       1.845   7.206  20.164  0.00  0.00    +0.000 A 
ATOM     10  C   UNL     1       2.102   7.923  19.009  0.00  0.00    +0.000 A 
ATOM     11  C   UNL     1       3.121   7.520  18.154  0.00  0.00    +0.000 A 
ATOM     12  C   UNL     1       3.890   6.391  18.423  0.00  0.00    +0.000 A 
ATOM     13  C   UNL     1       3.525   5.720  19.595  0.00  0.00    +0.000 A 
ATOM     14  N   UNL     1       2.532   6.085  20.455  0.00  0.00    +0.000 NA
ATOM     15  N   UNL     1       1.012   9.973  20.832  0.00  0.00    +0.000 NA
ATOM     16  C   UNL     1       0.572  11.180  21.247  0.00  0.00    +0.000 A 
ATOM     17  N   UNL     1       1.162  12.361  20.733  0.00  0.00    +0.000 N 
ATOM     18  C   UNL     1       2.165  12.506  19.793  0.00  0.00    +0.000 A 
ATOM     19  C   UNL     1       2.357  13.868  19.654  0.00  0.00    +0.000 A 
ATOM     20  N   UNL     1       1.519  14.538  20.505  0.00  0.00    +0.000 NA
ATOM     21  C   UNL     1       0.802  13.636  21.136  0.00  0.00    +0.000 A 
ATOM     22  H   UNL     1       0.705   6.943  21.803  0.00  0.00    +0.000 HD
ENDROOT
BRANCH  12  23
ATOM     23  N   UNL     1       4.863   5.961  17.556  0.00  0.00    +0.000 N 
ATOM     24  C   UNL     1       6.281   6.199  17.766  0.00  0.00    +0.000 C 
ATOM     25  C   UNL     1       6.865   5.990  16.380  0.00  0.00    +0.000 C 
ATOM     26  C   UNL     1       5.943   4.964  15.692  0.00  0.00    +0.000 C 
ATOM     27  C   UNL     1       5.562   5.394  14.259  0.00  0.00    +0.000 C 
ATOM     28  C   UNL     1       6.066   4.278  13.360  0.00  0.00    +0.000 C 
ATOM     29  N   UNL     1       6.102   3.111  14.236  0.00  0.00    +0.000 NA
ATOM     30  C   UNL     1       6.636   3.611  15.502  0.00  0.00    +0.000 C 
ATOM     31  C   UNL     1       4.688   4.869  16.598  0.00  0.00    +0.000 C 
ATOM     32  H   UNL     1       6.720   2.399  13.846  0.00  0.00    +0.000 HD
ENDBRANCH  12  23
BRANCH   1  34
ATOM     33  C   UNL     1      -1.578  16.024  21.699  0.00  0.00    +0.000 C 
ATOM     34  C   UNL     1      -0.602  15.212  22.517  0.00  0.00    +0.000 C 
ATOM     35  O   UNL     1      -0.071  15.719  23.507  0.00  0.00    +0.000 OA
ENDBRANCH   1  34
BRANCH  19  36
ATOM     36  C   UNL     1       3.267  14.663  18.760  0.00  0.00    +0.000 C 
ATOM     37  C   UNL     1       2.631  16.008  18.378  0.00  0.00    +0.000 C 
ATOM     38  C   UNL     1       4.621  14.935  19.429  0.00  0.00    +0.000 C 
ENDBRANCH  19  36
TORSDOF 3
ENDMDL
MODEL 3
REMARK VINA RESULT:      -8.0      1.492      1.926
REMARK  Name = 
REMARK  7 active torsions:
REMARK  status: ('A' for Active; 'I' for Inactive)
REMARK    1  A    between atoms: C_1  and  C_2
REMARK    2  A    between atoms: C_2  and  C_4
REMARK    3  A    between atoms: C_5  and  C_6
REMARK    4  A    between atoms: C_15  and  N_16
REMARK    5  A    between atoms: C_31  and  C_32
REMARK    6  A    between atoms: C_32  and  C_33
REMARK    7  A    between atoms: C_32  and  C_34
REMARK                            x       y       z     vdW  Elec       q    Type
REMARK                         _______ _______ _______ _____ _____    ______ ____
ROOT
ATOM      1  C   UNL     1       0.696  16.369  21.670  0.00  0.00    +0.000 A 
ATOM      2  C   UNL     1      -0.266  15.693  22.350  0.00  0.00    +0.000 A 
ATOM      3  C   UNL     1      -1.364  16.318  23.173  0.00  0.00    +0.000 C 
ATOM      4  C   UNL     1      -0.283  14.208  22.277  0.00  0.00    +0.000 A 
ATOM      5  C   UNL     1      -1.112  13.394  23.025  0.00  0.00    +0.000 A 
ATOM      6  N   UNL     1      -1.126  12.049  22.955  0.00  0.00    +0.000 NA
ATOM      7  C   UNL     1      -0.299  11.467  22.079  0.00  0.00    +0.000 A 
ATOM      8  N   UNL     1      -0.367  10.082  22.028  0.00  0.00    +0.000 N 
ATOM      9  C   UNL     1       0.398   9.201  21.282  0.00  0.00    +0.000 A 
ATOM     10  C   UNL     1       0.845   9.527  20.014  0.00  0.00    +0.000 A 
ATOM     11  C   UNL     1       1.643   8.634  19.308  0.00  0.00    +0.000 A 
ATOM     12  C   UNL     1       1.996   7.398  19.843  0.00  0.00    +0.000 A 
ATOM     13  C   UNL     1       1.464   7.154  21.113  0.00  0.00    +0.000 A 
ATOM     14  N   UNL     1       0.678   8.005  21.833  0.00  0.00    +0.000 NA
ATOM     15  N   UNL     1       0.564  12.162  21.314  0.00  0.00    +0.000 NA
ATOM     16  C   UNL     1       0.568  13.506  21.445  0.00  0.00    +0.000 A 
ATOM     17  N   UNL     1       1.504  14.282  20.719  0.00  0.00    +0.000 N 
ATOM     18  C   UNL     1       2.468  13.880  19.814  0.00  0.00    +0.000 A 
ATOM     19  C   UNL     1       3.101  15.036  19.399  0.00  0.00    +0.000 A 
ATOM     20  N   UNL     1       2.564  16.113  20.052  0.00  0.00    +0.000 NA
ATOM     21  C   UNL     1       1.605  15.660  20.828  0.00  0.00    +0.000 A 
ATOM     22  H   UNL     1      -0.712   9.691  22.889  0.00  0.00    +0.000 HD
ENDROOT
BRANCH  12  23
ATOM     23  N   UNL     1       2.741   6.492  19.129  0.00  0.00    +0.000 N 
ATOM     24  C   UNL     1       3.698   6.876  18.105  0.00  0.00    +0.000 C 
ATOM     25  C   UNL     1       3.876   5.592  17.315  0.00  0.00    +0.000 C 
ATOM     26  C   UNL     1       3.638   4.449  18.321  0.00  0.00    +0.000 C 
ATOM     27  C   UNL     1       2.697   3.362  17.755  0.00  0.00    +0.000 C 
ATOM     28  C   UNL     1       3.509   2.079  17.778  0.00  0.00    +0.000 C 
ATOM     29  N   UNL     1       4.496   2.308  18.829  0.00  0.00    +0.000 NA
ATOM     30  C   UNL     1       4.931   3.691  18.639  0.00  0.00    +0.000 C 
ATOM     31  C   UNL     1       3.020   5.126  19.571  0.00  0.00    +0.000 C 
ATOM     32  H   UNL     1       5.283   1.668  18.716  0.00  0.00    +0.000 HD
ENDBRANCH  12  23
BRANCH   1  34
ATOM     33  C   UNL     1       1.706  18.447  22.891  0.00  0.00    +0.000 C 
ATOM     34  C   UNL     1       0.856  17.870  21.783  0.00  0.00    +0.000 C 
ATOM     35  O   UNL     1       0.274  18.631  21.007  0.00  0.00    +0.000 OA
ENDBRANCH   1  34
BRANCH  19  36
ATOM     36  C   UNL     1       4.197  15.271  18.397  0.00  0.00    +0.000 C 
ATOM     37  C   UNL     1       3.631  15.800  17.071  0.00  0.00    +0.000 C 
ATOM     38  C   UNL     1       5.236  16.271  18.920  0.00  0.00    +0.000 C 
ENDBRANCH  19  36
TORSDOF 3
ENDMDL
MODEL 4
REMARK VINA RESULT:      -8.0      0.900      1.130
REMARK  Name = 
REMARK  7 active torsions:
REMARK  status: ('A' for Active; 'I' for Inactive)
REMARK    1  A    between atoms: C_1  and  C_2
REMARK    2  A    between atoms: C_2  and  C_4
REMARK    3  A    between atoms: C_5  and  C_6
REMARK    4  A    between atoms: C_15  and  N_16
REMARK    5  A    between atoms: C_31  and  C_32
REMARK    6  A    between atoms: C_32  and  C_33
REMARK    7  A    between atoms: C_32  and  C_34
REMARK                            x       y       z     vdW  Elec       q    Type
REMARK                         _______ _______ _______ _____ _____    ______ ____
ROOT
ATOM      1  C   UNL     1       0.348  16.138  21.924  0.00  0.00    +0.000 A 
ATOM      2  C   UNL     1      -0.579  15.362  22.542  0.00  0.00    +0.000 A 
ATOM      3  C   UNL     1      -1.719  15.863  23.393  0.00  0.00    +0.000 C 
ATOM      4  C   UNL     1      -0.509  13.887  22.365  0.00  0.00    +0.000 A 
ATOM      5  C   UNL     1      -1.296  12.976  23.043  0.00  0.00    +0.000 A 
ATOM      6  N   UNL     1      -1.231  11.640  22.879  0.00  0.00    +0.000 NA
ATOM      7  C   UNL     1      -0.364  11.170  21.974  0.00  0.00    +0.000 A 
ATOM      8  N   UNL     1      -0.352   9.791  21.825  0.00  0.00    +0.000 N 
ATOM      9  C   UNL     1       0.470   9.011  21.029  0.00  0.00    +0.000 A 
ATOM     10  C   UNL     1       0.908   9.450  19.792  0.00  0.00    +0.000 A 
ATOM     11  C   UNL     1       1.762   8.657  19.036  0.00  0.00    +0.000 A 
ATOM     12  C   UNL     1       2.182   7.409  19.487  0.00  0.00    +0.000 A 
ATOM     13  C   UNL     1       1.654   7.045  20.730  0.00  0.00    +0.000 A 
ATOM     14  N   UNL     1       0.814   7.796  21.498  0.00  0.00    +0.000 NA
ATOM     15  N   UNL     1       0.463  11.966  21.271  0.00  0.00    +0.000 NA
ATOM     16  C   UNL     1       0.388  13.296  21.496  0.00  0.00    +0.000 A 
ATOM     17  N   UNL     1       1.284  14.174  20.839  0.00  0.00    +0.000 N 
ATOM     18  C   UNL     1       2.277  13.893  19.919  0.00  0.00    +0.000 A 
ATOM     19  C   UNL     1       2.846  15.110  19.595  0.00  0.00    +0.000 A 
ATOM     20  N   UNL     1       2.241  16.105  20.315  0.00  0.00    +0.000 NA
ATOM     21  C   UNL     1       1.304  15.544  21.045  0.00  0.00    +0.000 A 
ATOM     22  H   UNL     1      -0.680   9.321  22.652  0.00  0.00    +0.000 HD
ENDROOT
BRANCH  12  23
ATOM     23  N   UNL     1       2.984   6.600  18.721  0.00  0.00    +0.000 N 
ATOM     24  C   UNL     1       2.632   5.236  18.361  0.00  0.00    +0.000 C 
ATOM     25  C   UNL     1       3.971   4.638  17.967  0.00  0.00    +0.000 C 
ATOM     26  C   UNL     1       4.805   5.812  17.417  0.00  0.00    +0.000 C 
ATOM     27  C   UNL     1       6.236   5.831  17.998  0.00  0.00    +0.000 C 
ATOM     28  C   UNL     1       7.156   5.720  16.796  0.00  0.00    +0.000 C 
ATOM     29  N   UNL     1       6.359   6.248  15.693  0.00  0.00    +0.000 NA
ATOM     30  C   UNL     1       5.020   5.700  15.905  0.00  0.00    +0.000 C 
ATOM     31  C   UNL     1       4.023   7.091  17.816  0.00  0.00    +0.000 C 
ATOM     32  H   UNL     1       6.738   5.927  14.802  0.00  0.00    +0.000 HD
ENDBRANCH  12  23
BRANCH   1  34
ATOM     33  C   UNL     1       1.159  18.175  23.345  0.00  0.00    +0.000 C 
ATOM     34  C   UNL     1       0.420  17.634  22.144  0.00  0.00    +0.000 C 
ATOM     35  O   UNL     1      -0.148  18.417  21.379  0.00  0.00    +0.000 OA
ENDBRANCH   1  34
BRANCH  19  36
ATOM     36  C   UNL     1       3.935  15.478  18.626  0.00  0.00    +0.000 C 
ATOM     37  C   UNL     1       4.606  14.224  18.046  0.00  0.00    +0.000 C 
ATOM     38  C   UNL     1       3.397  16.326  17.466  0.00  0.00    +0.000 C 
ENDBRANCH  19  36
TORSDOF 3
ENDMDL
MODEL 5
REMARK VINA RESULT:      -7.9      1.686      1.994
REMARK  Name = 
REMARK  7 active torsions:
REMARK  status: ('A' for Active; 'I' for Inactive)
REMARK    1  A    between atoms: C_1  and  C_2
REMARK    2  A    between atoms: C_2  and  C_4
REMARK    3  A    between atoms: C_5  and  C_6
REMARK    4  A    between atoms: C_15  and  N_16
REMARK    5  A    between atoms: C_31  and  C_32
REMARK    6  A    between atoms: C_32  and  C_33
REMARK    7  A    between atoms: C_32  and  C_34
REMARK                            x       y       z     vdW  Elec       q    Type
REMARK                         _______ _______ _______ _____ _____    ______ ____
ROOT
ATOM      1  C   UNL     1       1.478  16.399  19.510  0.00  0.00    +0.000 A 
ATOM      2  C   UNL     1       0.320  15.795  19.880  0.00  0.00    +0.000 A 
ATOM      3  C   UNL     1      -0.959  16.501  20.253  0.00  0.00    +0.000 C 
ATOM      4  C   UNL     1       0.265  14.309  19.907  0.00  0.00    +0.000 A 
ATOM      5  C   UNL     1      -0.795  13.570  20.394  0.00  0.00    +0.000 A 
ATOM      6  N   UNL     1      -0.842  12.224  20.416  0.00  0.00    +0.000 NA
ATOM      7  C   UNL     1       0.201  11.561  19.901  0.00  0.00    +0.000 A 
ATOM      8  N   UNL     1       0.095  10.178  19.924  0.00  0.00    +0.000 N 
ATOM      9  C   UNL     1       1.024   9.229  19.533  0.00  0.00    +0.000 A 
ATOM     10  C   UNL     1       1.873   9.447  18.462  0.00  0.00    +0.000 A 
ATOM     11  C   UNL     1       2.819   8.489  18.119  0.00  0.00    +0.000 A 
ATOM     12  C   UNL     1       2.927   7.292  18.822  0.00  0.00    +0.000 A 
ATOM     13  C   UNL     1       2.001   7.156  19.862  0.00  0.00    +0.000 A 
ATOM     14  N   UNL     1       1.059   8.074  20.224  0.00  0.00    +0.000 NA
ATOM     15  N   UNL     1       1.294  12.180  19.416  0.00  0.00    +0.000 NA
ATOM     16  C   UNL     1       1.311  13.530  19.450  0.00  0.00    +0.000 A 
ATOM     17  N   UNL     1       2.464  14.231  19.020  0.00  0.00    +0.000 N 
ATOM     18  C   UNL     1       3.652  13.743  18.510  0.00  0.00    +0.000 A 
ATOM     19  C   UNL     1       4.434  14.853  18.249  0.00  0.00    +0.000 A 
ATOM     20  N   UNL     1       3.759  15.986  18.615  0.00  0.00    +0.000 NA
ATOM     21  C   UNL     1       2.582  15.611  19.062  0.00  0.00    +0.000 A 
ATOM     22  H   UNL     1      -0.527   9.861  20.649  0.00  0.00    +0.000 HD
ENDROOT
BRANCH  12  23
ATOM     23  N   UNL     1       3.825   6.321  18.456  0.00  0.00    +0.000 N 
ATOM     24  C   UNL     1       4.241   5.244  19.339  0.00  0.00    +0.000 C 
ATOM     25  C   UNL     1       5.531   4.764  18.697  0.00  0.00    +0.000 C 
ATOM     26  C   UNL     1       5.373   5.042  17.189  0.00  0.00    +0.000 C 
ATOM     27  C   UNL     1       6.624   5.719  16.588  0.00  0.00    +0.000 C 
ATOM     28  C   UNL     1       7.107   4.774  15.502  0.00  0.00    +0.000 C 
ATOM     29  N   UNL     1       5.907   4.036  15.120  0.00  0.00    +0.000 NA
ATOM     30  C   UNL     1       5.227   3.748  16.382  0.00  0.00    +0.000 C 
ATOM     31  C   UNL     1       4.130   5.962  17.071  0.00  0.00    +0.000 C 
ATOM     32  H   UNL     1       6.164   3.169  14.648  0.00  0.00    +0.000 HD
ENDBRANCH  12  23
BRANCH   1  34
ATOM     33  C   UNL     1       2.079  18.552  20.863  0.00  0.00    +0.000 C 
ATOM     34  C   UNL     1       1.655  17.901  19.567  0.00  0.00    +0.000 C 
ATOM     35  O   UNL     1       1.423  18.606  18.583  0.00  0.00    +0.000 OA
ENDBRANCH   1  34
BRANCH  19  36
ATOM     36  C   UNL     1       5.806  14.990  17.648  0.00  0.00    +0.000 C 
ATOM     37  C   UNL     1       6.660  15.988  18.443  0.00  0.00    +0.000 C 
ATOM     38  C   UNL     1       6.541  13.644  17.603  0.00  0.00    +0.000 C 
ENDBRANCH  19  36
TORSDOF 3
ENDMDL
MODEL 6
REMARK VINA RESULT:      -7.7      1.313      1.754
REMARK  Name = 
REMARK  7 active torsions:
REMARK  status: ('A' for Active; 'I' for Inactive)
REMARK    1  A    between atoms: C_1  and  C_2
REMARK    2  A    between atoms: C_2  and  C_4
REMARK    3  A    between atoms: C_5  and  C_6
REMARK    4  A    between atoms: C_15  and  N_16
REMARK    5  A    between atoms: C_31  and  C_32
REMARK    6  A    between atoms: C_32  and  C_33
REMARK    7  A    between atoms: C_32  and  C_34
REMARK                            x       y       z     vdW  Elec       q    Type
REMARK                         _______ _______ _______ _____ _____    ______ ____
ROOT
ATOM      1  C   UNL     1      -0.282  14.951  20.594  0.00  0.00    +0.000 A 
ATOM      2  C   UNL     1      -1.023  13.973  21.176  0.00  0.00    +0.000 A 
ATOM      3  C   UNL     1      -2.283  14.184  21.977  0.00  0.00    +0.000 C 
ATOM      4  C   UNL     1      -0.597  12.558  21.009  0.00  0.00    +0.000 A 
ATOM      5  C   UNL     1      -1.172  11.482  21.657  0.00  0.00    +0.000 A 
ATOM      6  N   UNL     1      -0.785  10.201  21.501  0.00  0.00    +0.000 NA
ATOM      7  C   UNL     1       0.205   9.956  20.636  0.00  0.00    +0.000 A 
ATOM      8  N   UNL     1       0.551   8.620  20.493  0.00  0.00    +0.000 N 
ATOM      9  C   UNL     1       1.567   8.062  19.735  0.00  0.00    +0.000 A 
ATOM     10  C   UNL     1       1.939   8.600  18.516  0.00  0.00    +0.000 A 
ATOM     11  C   UNL     1       2.988   8.036  17.799  0.00  0.00    +0.000 A 
ATOM     12  C   UNL     1       3.673   6.921  18.272  0.00  0.00    +0.000 A 
ATOM     13  C   UNL     1       3.196   6.435  19.494  0.00  0.00    +0.000 A 
ATOM     14  N   UNL     1       2.170   6.961  20.223  0.00  0.00    +0.000 NA
ATOM     15  N   UNL     1       0.848  10.930  19.964  0.00  0.00    +0.000 NA
ATOM     16  C   UNL     1       0.451  12.202  20.180  0.00  0.00    +0.000 A 
ATOM     17  N   UNL     1       1.138  13.271  19.557  0.00  0.00    +0.000 N 
ATOM     18  C   UNL     1       2.207  13.239  18.681  0.00  0.00    +0.000 A 
ATOM     19  C   UNL     1       2.483  14.558  18.375  0.00  0.00    +0.000 A 
ATOM     20  N   UNL     1       1.630  15.378  19.065  0.00  0.00    +0.000 NA
ATOM     21  C   UNL     1       0.824  14.606  19.758  0.00  0.00    +0.000 A 
ATOM     22  H   UNL     1       0.310   8.080  21.308  0.00  0.00    +0.000 HD
ENDROOT
BRANCH  12  23
ATOM     23  N   UNL     1       4.675   6.330  17.543  0.00  0.00    +0.000 N 
ATOM     24  C   UNL     1       6.088   6.517  17.831  0.00  0.00    +0.000 C 
ATOM     25  C   UNL     1       6.751   6.100  16.531  0.00  0.00    +0.000 C 
ATOM     26  C   UNL     1       5.817   5.044  15.908  0.00  0.00    +0.000 C 
ATOM     27  C   UNL     1       5.565   5.305  14.406  0.00  0.00    +0.000 C 
ATOM     28  C   UNL     1       6.059   4.057  13.696  0.00  0.00    +0.000 C 
ATOM     29  N   UNL     1       5.961   3.012  14.712  0.00  0.00    +0.000 NA
ATOM     30  C   UNL     1       6.435   3.642  15.942  0.00  0.00    +0.000 C 
ATOM     31  C   UNL     1       4.499   5.135  16.719  0.00  0.00    +0.000 C 
ATOM     32  H   UNL     1       6.558   2.224  14.462  0.00  0.00    +0.000 HD
ENDBRANCH  12  23
BRANCH   1  34
ATOM     33  C   UNL     1      -1.455  17.155  19.826  0.00  0.00    +0.000 C 
ATOM     34  C   UNL     1      -0.577  16.420  20.810  0.00  0.00    +0.000 C 
ATOM     35  O   UNL     1      -0.081  17.035  21.756  0.00  0.00    +0.000 OA
ENDBRANCH   1  34
BRANCH  19  36
ATOM     36  C   UNL     1       3.493  15.180  17.450  0.00  0.00    +0.000 C 
ATOM     37  C   UNL     1       3.229  16.682  17.273  0.00  0.00    +0.000 C 
ATOM     38  C   UNL     1       4.925  14.992  17.968  0.00  0.00    +0.000 C 
ENDBRANCH  19  36
TORSDOF 3
ENDMDL
MODEL 7
REMARK VINA RESULT:      -7.5      1.337      1.422
REMARK  Name = 
REMARK  7 active torsions:
REMARK  status: ('A' for Active; 'I' for Inactive)
REMARK    1  A    between atoms: C_1  and  C_2
REMARK    2  A    between atoms: C_2  and  C_4
REMARK    3  A    between atoms: C_5  and  C_6
REMARK    4  A    between atoms: C_15  and  N_16
REMARK    5  A    between atoms: C_31  and  C_32
REMARK    6  A    between atoms: C_32  and  C_33
REMARK    7  A    between atoms: C_32  and  C_34
REMARK                            x       y       z     vdW  Elec       q    Type
REMARK                         _______ _______ _______ _____ _____    ______ ____
ROOT
ATOM      1  C   UNL     1       0.258  16.300  20.018  0.00  0.00    +0.000 A 
ATOM      2  C   UNL     1      -0.786  15.595  20.526  0.00  0.00    +0.000 A 
ATOM      3  C   UNL     1      -2.080  16.181  21.031  0.00  0.00    +0.000 C 
ATOM      4  C   UNL     1      -0.688  14.112  20.579  0.00  0.00    +0.000 A 
ATOM      5  C   UNL     1      -1.608  13.285  21.194  0.00  0.00    +0.000 A 
ATOM      6  N   UNL     1      -1.517  11.941  21.239  0.00  0.00    +0.000 NA
ATOM      7  C   UNL     1      -0.477  11.372  20.619  0.00  0.00    +0.000 A 
ATOM      8  N   UNL     1      -0.441   9.986  20.673  0.00  0.00    +0.000 N 
ATOM      9  C   UNL     1       0.529   9.123  20.192  0.00  0.00    +0.000 A 
ATOM     10  C   UNL     1       1.228   9.396  19.029  0.00  0.00    +0.000 A 
ATOM     11  C   UNL     1       2.220   8.526  18.594  0.00  0.00    +0.000 A 
ATOM     12  C   UNL     1       2.525   7.364  19.297  0.00  0.00    +0.000 A 
ATOM     13  C   UNL     1       1.739   7.165  20.437  0.00  0.00    +0.000 A 
ATOM     14  N   UNL     1       0.757   7.995  20.891  0.00  0.00    +0.000 NA
ATOM     15  N   UNL     1       0.487  12.082  20.004  0.00  0.00    +0.000 NA
ATOM     16  C   UNL     1       0.373  13.427  20.017  0.00  0.00    +0.000 A 
ATOM     17  N   UNL     1       1.395  14.227  19.450  0.00  0.00    +0.000 N 
ATOM     18  C   UNL     1       2.562  13.845  18.815  0.00  0.00    +0.000 A 
ATOM     19  C   UNL     1       3.194  15.019  18.451  0.00  0.00    +0.000 A 
ATOM     20  N   UNL     1       2.454  16.090  18.875  0.00  0.00    +0.000 NA
ATOM     21  C   UNL     1       1.378  15.613  19.459  0.00  0.00    +0.000 A 
ATOM     22  H   UNL     1      -0.943   9.628  21.469  0.00  0.00    +0.000 HD
ENDROOT
BRANCH  12  23
ATOM     23  N   UNL     1       3.470   6.476  18.845  0.00  0.00    +0.000 N 
ATOM     24  C   UNL     1       3.812   5.249  19.544  0.00  0.00    +0.000 C 
ATOM     25  C   UNL     1       5.166   4.895  18.955  0.00  0.00    +0.000 C 
ATOM     26  C   UNL     1       5.154   5.456  17.519  0.00  0.00    +0.000 C 
ATOM     27  C   UNL     1       6.448   6.229  17.186  0.00  0.00    +0.000 C 
ATOM     28  C   UNL     1       7.050   5.506  15.995  0.00  0.00    +0.000 C 
ATOM     29  N   UNL     1       5.904   4.860  15.361  0.00  0.00    +0.000 NA
ATOM     30  C   UNL     1       5.108   4.340  16.471  0.00  0.00    +0.000 C 
ATOM     31  C   UNL     1       3.915   6.387  17.454  0.00  0.00    +0.000 C 
ATOM     32  H   UNL     1       6.220   4.097  14.761  0.00  0.00    +0.000 HD
ENDBRANCH  12  23
BRANCH   1  34
ATOM     33  C   UNL     1       0.842  18.534  21.240  0.00  0.00    +0.000 C 
ATOM     34  C   UNL     1       0.289  17.813  20.033  0.00  0.00    +0.000 C 
ATOM     35  O   UNL     1      -0.164  18.467  19.092  0.00  0.00    +0.000 OA
ENDBRANCH   1  34
BRANCH  19  36
ATOM     36  C   UNL     1       4.470  15.275  17.697  0.00  0.00    +0.000 C 
ATOM     37  C   UNL     1       5.164  16.548  18.200  0.00  0.00    +0.000 C 
ATOM     38  C   UNL     1       5.448  14.100  17.825  0.00  0.00    +0.000 C 
ENDBRANCH  19  36
TORSDOF 3
ENDMDL
MODEL 8
REMARK VINA RESULT:      -7.5      5.535      7.787
REMARK  Name = 
REMARK  7 active torsions:
REMARK  status: ('A' for Active; 'I' for Inactive)
REMARK    1  A    between atoms: C_1  and  C_2
REMARK    2  A    between atoms: C_2  and  C_4
REMARK    3  A    between atoms: C_5  and  C_6
REMARK    4  A    between atoms: C_15  and  N_16
REMARK    5  A    between atoms: C_31  and  C_32
REMARK    6  A    between atoms: C_32  and  C_33
REMARK    7  A    between atoms: C_32  and  C_34
REMARK                            x       y       z     vdW  Elec       q    Type
REMARK                         _______ _______ _______ _____ _____    ______ ____
ROOT
ATOM      1  C   UNL     1      -5.079  12.462  20.792  0.00  0.00    +0.000 A 
ATOM      2  C   UNL     1      -4.783  13.067  21.971  0.00  0.00    +0.000 A 
ATOM      3  C   UNL     1      -5.715  13.200  23.149  0.00  0.00    +0.000 C 
ATOM      4  C   UNL     1      -3.423  13.638  22.160  0.00  0.00    +0.000 A 
ATOM      5  C   UNL     1      -3.034  14.398  23.245  0.00  0.00    +0.000 A 
ATOM      6  N   UNL     1      -1.800  14.912  23.414  0.00  0.00    +0.000 NA
ATOM      7  C   UNL     1      -0.883  14.639  22.478  0.00  0.00    +0.000 A 
ATOM      8  N   UNL     1       0.377  15.171  22.708  0.00  0.00    +0.000 N 
ATOM      9  C   UNL     1       1.502  15.122  21.902  0.00  0.00    +0.000 A 
ATOM     10  C   UNL     1       1.781  14.017  21.117  0.00  0.00    +0.000 A 
ATOM     11  C   UNL     1       2.898  14.016  20.291  0.00  0.00    +0.000 A 
ATOM     12  C   UNL     1       3.765  15.104  20.243  0.00  0.00    +0.000 A 
ATOM     13  C   UNL     1       3.412  16.153  21.099  0.00  0.00    +0.000 A 
ATOM     14  N   UNL     1       2.326  16.187  21.923  0.00  0.00    +0.000 NA
ATOM     15  N   UNL     1      -1.159  13.924  21.371  0.00  0.00    +0.000 NA
ATOM     16  C   UNL     1      -2.419  13.461  21.226  0.00  0.00    +0.000 A 
ATOM     17  N   UNL     1      -2.784  12.765  20.049  0.00  0.00    +0.000 N 
ATOM     18  C   UNL     1      -2.015  12.428  18.951  0.00  0.00    +0.000 A 
ATOM     19  C   UNL     1      -2.860  11.752  18.092  0.00  0.00    +0.000 A 
ATOM     20  N   UNL     1      -4.117  11.701  18.630  0.00  0.00    +0.000 NA
ATOM     21  C   UNL     1      -4.064  12.295  19.801  0.00  0.00    +0.000 A 
ATOM     22  H   UNL     1       0.340  15.983  23.303  0.00  0.00    +0.000 HD
ENDROOT
BRANCH  12  23
ATOM     23  N   UNL     1       4.898  15.087  19.467  0.00  0.00    +0.000 N 
ATOM     24  C   UNL     1       4.877  14.882  18.029  0.00  0.00    +0.000 C 
ATOM     25  C   UNL     1       6.308  14.471  17.729  0.00  0.00    +0.000 C 
ATOM     26  C   UNL     1       7.173  15.170  18.796  0.00  0.00    +0.000 C 
ATOM     27  C   UNL     1       8.201  14.208  19.432  0.00  0.00    +0.000 C 
ATOM     28  C   UNL     1       9.558  14.826  19.143  0.00  0.00    +0.000 C 
ATOM     29  N   UNL     1       9.267  16.247  18.974  0.00  0.00    +0.000 NA
ATOM     30  C   UNL     1       8.032  16.286  18.193  0.00  0.00    +0.000 C 
ATOM     31  C   UNL     1       6.171  15.695  19.856  0.00  0.00    +0.000 C 
ATOM     32  H   UNL     1      10.026  16.701  18.465  0.00  0.00    +0.000 HD
ENDBRANCH  12  23
BRANCH   1  34
ATOM     33  C   UNL     1      -7.458  12.879  19.796  0.00  0.00    +0.000 C 
ATOM     34  C   UNL     1      -6.471  11.958  20.473  0.00  0.00    +0.000 C 
ATOM     35  O   UNL     1      -6.823  10.821  20.792  0.00  0.00    +0.000 OA
ENDBRANCH   1  34
BRANCH  19  36
ATOM     36  C   UNL     1      -2.617  11.096  16.761  0.00  0.00    +0.000 C 
ATOM     37  C   UNL     1      -1.939   9.729  16.934  0.00  0.00    +0.000 C 
ATOM     38  C   UNL     1      -3.923  10.899  15.980  0.00  0.00    +0.000 C 
ENDBRANCH  19  36
TORSDOF 3
ENDMDL
MODEL 9
REMARK VINA RESULT:      -7.5      1.564      2.129
REMARK  Name = 
REMARK  7 active torsions:
REMARK  status: ('A' for Active; 'I' for Inactive)
REMARK    1  A    between atoms: C_1  and  C_2
REMARK    2  A    between atoms: C_2  and  C_4
REMARK    3  A    between atoms: C_5  and  C_6
REMARK    4  A    between atoms: C_15  and  N_16
REMARK    5  A    between atoms: C_31  and  C_32
REMARK    6  A    between atoms: C_32  and  C_33
REMARK    7  A    between atoms: C_32  and  C_34
REMARK                            x       y       z     vdW  Elec       q    Type
REMARK                         _______ _______ _______ _____ _____    ______ ____
ROOT
ATOM      1  C   UNL     1      -0.823  16.431  22.311  0.00  0.00    +0.000 A 
ATOM      2  C   UNL     1      -1.636  15.559  22.961  0.00  0.00    +0.000 A 
ATOM      3  C   UNL     1      -2.790  15.933  23.855  0.00  0.00    +0.000 C 
ATOM      4  C   UNL     1      -1.412  14.100  22.776  0.00  0.00    +0.000 A 
ATOM      5  C   UNL     1      -2.068  13.109  23.480  0.00  0.00    +0.000 A 
ATOM      6  N   UNL     1      -1.864  11.788  23.309  0.00  0.00    +0.000 NA
ATOM      7  C   UNL     1      -0.986  11.415  22.371  0.00  0.00    +0.000 A 
ATOM      8  N   UNL     1      -0.828  10.046  22.217  0.00  0.00    +0.000 N 
ATOM      9  C   UNL     1       0.043   9.359  21.388  0.00  0.00    +0.000 A 
ATOM     10  C   UNL     1       0.384   9.843  20.137  0.00  0.00    +0.000 A 
ATOM     11  C   UNL     1       1.291   9.147  19.347  0.00  0.00    +0.000 A 
ATOM     12  C   UNL     1       1.860   7.952  19.777  0.00  0.00    +0.000 A 
ATOM     13  C   UNL     1       1.423   7.534  21.038  0.00  0.00    +0.000 A 
ATOM     14  N   UNL     1       0.535   8.189  21.839  0.00  0.00    +0.000 NA
ATOM     15  N   UNL     1      -0.277  12.296  21.640  0.00  0.00    +0.000 NA
ATOM     16  C   UNL     1      -0.488  13.609  21.873  0.00  0.00    +0.000 A 
ATOM     17  N   UNL     1       0.281  14.580  21.185  0.00  0.00    +0.000 N 
ATOM     18  C   UNL     1       1.263  14.408  20.228  0.00  0.00    +0.000 A 
ATOM     19  C   UNL     1       1.683  15.680  19.887  0.00  0.00    +0.000 A 
ATOM     20  N   UNL     1       1.001  16.604  20.632  0.00  0.00    +0.000 NA
ATOM     21  C   UNL     1       0.159  15.944  21.395  0.00  0.00    +0.000 A 
ATOM     22  H   UNL     1      -1.072   9.542  23.054  0.00  0.00    +0.000 HD
ENDROOT
BRANCH  12  23
ATOM     23  N   UNL     1       2.717   7.235  18.979  0.00  0.00    +0.000 N 
ATOM     24  C   UNL     1       3.424   7.811  17.847  0.00  0.00    +0.000 C 
ATOM     25  C   UNL     1       3.818   6.587  17.041  0.00  0.00    +0.000 C 
ATOM     26  C   UNL     1       3.990   5.451  18.068  0.00  0.00    +0.000 C 
ATOM     27  C   UNL     1       3.286   4.151  17.620  0.00  0.00    +0.000 C 
ATOM     28  C   UNL     1       4.386   3.107  17.546  0.00  0.00    +0.000 C 
ATOM     29  N   UNL     1       5.403   3.601  18.470  0.00  0.00    +0.000 NA
ATOM     30  C   UNL     1       5.457   5.042  18.228  0.00  0.00    +0.000 C 
ATOM     31  C   UNL     1       3.374   5.993  19.384  0.00  0.00    +0.000 C 
ATOM     32  H   UNL     1       6.304   3.171  18.262  0.00  0.00    +0.000 HD
ENDBRANCH  12  23
BRANCH   1  34
ATOM     33  C   UNL     1      -0.111  18.558  23.651  0.00  0.00    +0.000 C 
ATOM     34  C   UNL     1      -0.906  17.926  22.533  0.00  0.00    +0.000 C 
ATOM     35  O   UNL     1      -1.643  18.631  21.840  0.00  0.00    +0.000 OA
ENDBRANCH   1  34
BRANCH  19  36
ATOM     36  C   UNL     1       2.688  16.164  18.879  0.00  0.00    +0.000 C 
ATOM     37  C   UNL     1       3.282  14.992  18.083  0.00  0.00    +0.000 C 
ATOM     38  C   UNL     1       2.065  17.160  17.892  0.00  0.00    +0.000 C 
ENDBRANCH  19  36
TORSDOF 3
ENDMDL
