MODEL 1
REMARK VINA RESULT:      -9.3      0.000      0.000
REMARK  Name = 
REMARK  2 active torsions:
REMARK  status: ('A' for Active; 'I' for Inactive)
REMARK    1  A    between atoms: C_1  and  C_2
REMARK    2  A    between atoms: C_19  and  C_20
REMARK                            x       y       z     vdW  Elec       q    Type
REMARK                         _______ _______ _______ _____ _____    ______ ____
ROOT
ATOM      1  C   UNL     1      -0.806   9.837  22.930  0.00  0.00    +0.000 C 
ATOM      2  C   UNL     1      -0.010   9.800  21.660  0.00  0.00    +0.000 A 
ATOM      3  C   UNL     1       0.161  10.945  20.897  0.00  0.00    +0.000 A 
ATOM      4  C   UNL     1       0.901  10.854  19.724  0.00  0.00    +0.000 A 
ATOM      5  C   UNL     1       1.458   9.628  19.346  0.00  0.00    +0.000 A 
ATOM      6  C   UNL     1       2.218   9.504  18.181  0.00  0.00    +0.000 A 
ATOM      7  C   UNL     1       2.783   8.275  17.835  0.00  0.00    +0.000 A 
ATOM      8  C   UNL     1       2.638   7.130  18.642  0.00  0.00    +0.000 A 
ATOM      9  C   UNL     1       1.873   7.291  19.819  0.00  0.00    +0.000 A 
ATOM     10  C   UNL     1       1.264   8.514  20.178  0.00  0.00    +0.000 A 
ATOM     11  N   UNL     1       0.530   8.605  21.314  0.00  0.00    +0.000 NA
ATOM     12  N   UNL     1       1.889   6.302  20.870  0.00  0.00    +0.000 N 
ATOM     13  S   UNL     1       2.069   4.694  20.493  0.00  0.00    +0.000 S 
ATOM     14  O   UNL     1       0.765   4.179  20.129  0.00  0.00    +0.000 OA
ATOM     15  O   UNL     1       2.842   4.094  21.555  0.00  0.00    +0.000 OA
ATOM     16  C   UNL     1       3.053   4.663  19.034  0.00  0.00    +0.000 A 
ATOM     17  C   UNL     1       3.614   3.421  18.690  0.00  0.00    +0.000 A 
ATOM     18  C   UNL     1       4.382   3.298  17.540  0.00  0.00    +0.000 A 
ATOM     19  C   UNL     1       4.597   4.413  16.730  0.00  0.00    +0.000 A 
ATOM     20  C   UNL     1       4.035   5.654  17.105  0.00  0.00    +0.000 A 
ATOM     21  C   UNL     1       3.248   5.822  18.271  0.00  0.00    +0.000 A 
ATOM     22  H   UNL     1       1.055   6.445  21.455  0.00  0.00    +0.000 HD
ENDROOT
BRANCH  19  23
ATOM     23  C   UNL     1       5.404   4.302  15.458  0.00  0.00    +0.000 C 
ATOM     24  F   UNL     1       4.639   4.308  14.329  0.00  0.00    +0.000 F 
ATOM     25  F   UNL     1       6.288   5.330  15.313  0.00  0.00    +0.000 F 
ATOM     26  F   UNL     1       6.147   3.163  15.401  0.00  0.00    +0.000 F 
ENDBRANCH  19  23
TORSDOF 1
ENDMDL
MODEL 2
REMARK VINA RESULT:      -7.9      4.565      7.343
REMARK  Name = 
REMARK  2 active torsions:
REMARK  status: ('A' for Active; 'I' for Inactive)
REMARK    1  A    between atoms: C_1  and  C_2
REMARK    2  A    between atoms: C_19  and  C_20
REMARK                            x       y       z     vdW  Elec       q    Type
REMARK                         _______ _______ _______ _____ _____    ______ ____
ROOT
ATOM      1  C   UNL     1       2.810   3.339  20.890  0.00  0.00    +0.000 C 
ATOM      2  C   UNL     1       2.765   4.507  19.951  0.00  0.00    +0.000 A 
ATOM      3  C   UNL     1       3.224   4.388  18.649  0.00  0.00    +0.000 A 
ATOM      4  C   UNL     1       3.166   5.503  17.822  0.00  0.00    +0.000 A 
ATOM      5  C   UNL     1       2.646   6.706  18.311  0.00  0.00    +0.000 A 
ATOM      6  C   UNL     1       2.562   7.843  17.504  0.00  0.00    +0.000 A 
ATOM      7  C   UNL     1       2.019   9.026  18.007  0.00  0.00    +0.000 A 
ATOM      8  C   UNL     1       1.516   9.122  19.319  0.00  0.00    +0.000 A 
ATOM      9  C   UNL     1       1.605   7.951  20.106  0.00  0.00    +0.000 A 
ATOM     10  C   UNL     1       2.178   6.750  19.633  0.00  0.00    +0.000 A 
ATOM     11  N   UNL     1       2.249   5.662  20.440  0.00  0.00    +0.000 NA
ATOM     12  N   UNL     1       0.875   7.817  21.344  0.00  0.00    +0.000 N 
ATOM     13  S   UNL     1       0.598   9.152  22.292  0.00  0.00    +0.000 S 
ATOM     14  O   UNL     1       1.782   9.371  23.100  0.00  0.00    +0.000 OA
ATOM     15  O   UNL     1      -0.701   8.980  22.899  0.00  0.00    +0.000 OA
ATOM     16  C   UNL     1       0.489  10.507  21.174  0.00  0.00    +0.000 A 
ATOM     17  C   UNL     1      -0.054  11.696  21.689  0.00  0.00    +0.000 A 
ATOM     18  C   UNL     1      -0.153  12.823  20.884  0.00  0.00    +0.000 A 
ATOM     19  C   UNL     1       0.287  12.769  19.562  0.00  0.00    +0.000 A 
ATOM     20  C   UNL     1       0.816  11.558  19.063  0.00  0.00    +0.000 A 
ATOM     21  C   UNL     1       0.931  10.385  19.849  0.00  0.00    +0.000 A 
ATOM     22  H   UNL     1       1.315   7.068  21.894  0.00  0.00    +0.000 HD
ENDROOT
BRANCH  19  23
ATOM     23  C   UNL     1       0.219  13.988  18.673  0.00  0.00    +0.000 C 
ATOM     24  F   UNL     1       1.442  14.426  18.258  0.00  0.00    +0.000 F 
ATOM     25  F   UNL     1      -0.499  13.761  17.536  0.00  0.00    +0.000 F 
ATOM     26  F   UNL     1      -0.374  15.053  19.279  0.00  0.00    +0.000 F 
ENDBRANCH  19  23
TORSDOF 1
ENDMDL
MODEL 3
REMARK VINA RESULT:      -7.5      4.938      7.725
REMARK  Name = 
REMARK  2 active torsions:
REMARK  status: ('A' for Active; 'I' for Inactive)
REMARK    1  A    between atoms: C_1  and  C_2
REMARK    2  A    between atoms: C_19  and  C_20
REMARK                            x       y       z     vdW  Elec       q    Type
REMARK                         _______ _______ _______ _____ _____    ______ ____
ROOT
ATOM      1  C   UNL     1       2.525   3.846  20.731  0.00  0.00    +0.000 C 
ATOM      2  C   UNL     1       2.450   5.085  19.890  0.00  0.00    +0.000 A 
ATOM      3  C   UNL     1       2.895   5.079  18.577  0.00  0.00    +0.000 A 
ATOM      4  C   UNL     1       2.810   6.256  17.844  0.00  0.00    +0.000 A 
ATOM      5  C   UNL     1       2.277   7.407  18.434  0.00  0.00    +0.000 A 
ATOM      6  C   UNL     1       2.165   8.603  17.722  0.00  0.00    +0.000 A 
ATOM      7  C   UNL     1       1.609   9.733  18.325  0.00  0.00    +0.000 A 
ATOM      8  C   UNL     1       1.120   9.714  19.646  0.00  0.00    +0.000 A 
ATOM      9  C   UNL     1       1.237   8.486  20.335  0.00  0.00    +0.000 A 
ATOM     10  C   UNL     1       1.824   7.336  19.760  0.00  0.00    +0.000 A 
ATOM     11  N   UNL     1       1.921   6.189  20.476  0.00  0.00    +0.000 NA
ATOM     12  N   UNL     1       0.524   8.240  21.566  0.00  0.00    +0.000 N 
ATOM     13  S   UNL     1       0.238   9.490  22.622  0.00  0.00    +0.000 S 
ATOM     14  O   UNL     1       1.427   9.663  23.431  0.00  0.00    +0.000 OA
ATOM     15  O   UNL     1      -1.052   9.248  23.226  0.00  0.00    +0.000 OA
ATOM     16  C   UNL     1       0.094  10.928  21.617  0.00  0.00    +0.000 A 
ATOM     17  C   UNL     1      -0.462  12.062  22.233  0.00  0.00    +0.000 A 
ATOM     18  C   UNL     1      -0.588  13.249  21.522  0.00  0.00    +0.000 A 
ATOM     19  C   UNL     1      -0.164  13.309  20.195  0.00  0.00    +0.000 A 
ATOM     20  C   UNL     1       0.378  12.151  19.595  0.00  0.00    +0.000 A 
ATOM     21  C   UNL     1       0.522  10.921  20.283  0.00  0.00    +0.000 A 
ATOM     22  H   UNL     1       0.983   7.457  22.049  0.00  0.00    +0.000 HD
ENDROOT
BRANCH  19  23
ATOM     23  C   UNL     1      -0.262  14.594  19.408  0.00  0.00    +0.000 C 
ATOM     24  F   UNL     1      -1.359  15.340  19.724  0.00  0.00    +0.000 F 
ATOM     25  F   UNL     1       0.813  15.410  19.610  0.00  0.00    +0.000 F 
ATOM     26  F   UNL     1      -0.323  14.388  18.065  0.00  0.00    +0.000 F 
ENDBRANCH  19  23
TORSDOF 1
ENDMDL
MODEL 4
REMARK VINA RESULT:      -7.4      4.562      5.412
REMARK  Name = 
REMARK  2 active torsions:
REMARK  status: ('A' for Active; 'I' for Inactive)
REMARK    1  A    between atoms: C_1  and  C_2
REMARK    2  A    between atoms: C_19  and  C_20
REMARK                            x       y       z     vdW  Elec       q    Type
REMARK                         _______ _______ _______ _____ _____    ______ ____
ROOT
ATOM      1  C   UNL     1       2.335   4.192  22.537  0.00  0.00    +0.000 C 
ATOM      2  C   UNL     1       2.247   3.717  21.118  0.00  0.00    +0.000 A 
ATOM      3  C   UNL     1       1.175   2.947  20.694  0.00  0.00    +0.000 A 
ATOM      4  C   UNL     1       1.146   2.526  19.370  0.00  0.00    +0.000 A 
ATOM      5  C   UNL     1       2.180   2.889  18.500  0.00  0.00    +0.000 A 
ATOM      6  C   UNL     1       2.176   2.495  17.161  0.00  0.00    +0.000 A 
ATOM      7  C   UNL     1       3.207   2.889  16.307  0.00  0.00    +0.000 A 
ATOM      8  C   UNL     1       4.267   3.709  16.740  0.00  0.00    +0.000 A 
ATOM      9  C   UNL     1       4.236   4.100  18.097  0.00  0.00    +0.000 A 
ATOM     10  C   UNL     1       3.222   3.691  18.991  0.00  0.00    +0.000 A 
ATOM     11  N   UNL     1       3.253   4.088  20.288  0.00  0.00    +0.000 NA
ATOM     12  N   UNL     1       5.079   5.161  18.595  0.00  0.00    +0.000 N 
ATOM     13  S   UNL     1       6.587   5.398  17.942  0.00  0.00    +0.000 S 
ATOM     14  O   UNL     1       7.497   4.473  18.587  0.00  0.00    +0.000 OA
ATOM     15  O   UNL     1       6.834   6.822  17.951  0.00  0.00    +0.000 OA
ATOM     16  C   UNL     1       6.455   4.892  16.262  0.00  0.00    +0.000 A 
ATOM     17  C   UNL     1       7.499   5.288  15.409  0.00  0.00    +0.000 A 
ATOM     18  C   UNL     1       7.489   4.909  14.073  0.00  0.00    +0.000 A 
ATOM     19  C   UNL     1       6.438   4.137  13.580  0.00  0.00    +0.000 A 
ATOM     20  C   UNL     1       5.392   3.764  14.454  0.00  0.00    +0.000 A 
ATOM     21  C   UNL     1       5.362   4.131  15.822  0.00  0.00    +0.000 A 
ATOM     22  H   UNL     1       5.138   5.067  19.618  0.00  0.00    +0.000 HD
ENDROOT
BRANCH  19  23
ATOM     23  C   UNL     1       6.417   3.686  12.139  0.00  0.00    +0.000 C 
ATOM     24  F   UNL     1       5.168   3.680  11.592  0.00  0.00    +0.000 F 
ATOM     25  F   UNL     1       7.171   4.488  11.334  0.00  0.00    +0.000 F 
ATOM     26  F   UNL     1       6.905   2.427  11.972  0.00  0.00    +0.000 F 
ENDBRANCH  19  23
TORSDOF 1
ENDMDL
MODEL 5
REMARK VINA RESULT:      -7.2      6.887      9.854
REMARK  Name = 
REMARK  2 active torsions:
REMARK  status: ('A' for Active; 'I' for Inactive)
REMARK    1  A    between atoms: C_1  and  C_2
REMARK    2  A    between atoms: C_19  and  C_20
REMARK                            x       y       z     vdW  Elec       q    Type
REMARK                         _______ _______ _______ _____ _____    ______ ____
ROOT
ATOM      1  C   UNL     1       2.926   7.925  17.450  0.00  0.00    +0.000 C 
ATOM      2  C   UNL     1       2.208   8.057  18.759  0.00  0.00    +0.000 A 
ATOM      3  C   UNL     1       2.334   7.083  19.738  0.00  0.00    +0.000 A 
ATOM      4  C   UNL     1       1.642   7.249  20.931  0.00  0.00    +0.000 A 
ATOM      5  C   UNL     1       0.847   8.385  21.121  0.00  0.00    +0.000 A 
ATOM      6  C   UNL     1       0.147   8.591  22.312  0.00  0.00    +0.000 A 
ATOM      7  C   UNL     1      -0.622   9.742  22.489  0.00  0.00    +0.000 A 
ATOM      8  C   UNL     1      -0.706  10.746  21.503  0.00  0.00    +0.000 A 
ATOM      9  C   UNL     1       0.022  10.513  20.315  0.00  0.00    +0.000 A 
ATOM     10  C   UNL     1       0.783   9.343  20.097  0.00  0.00    +0.000 A 
ATOM     11  N   UNL     1       1.450   9.169  18.930  0.00  0.00    +0.000 NA
ATOM     12  N   UNL     1       0.263  11.568  19.360  0.00  0.00    +0.000 N 
ATOM     13  S   UNL     1      -0.870  12.761  19.139  0.00  0.00    +0.000 S 
ATOM     14  O   UNL     1      -1.868  12.256  18.217  0.00  0.00    +0.000 OA
ATOM     15  O   UNL     1      -0.151  13.984  18.867  0.00  0.00    +0.000 OA
ATOM     16  C   UNL     1      -1.666  12.946  20.697  0.00  0.00    +0.000 A 
ATOM     17  C   UNL     1      -2.441  14.105  20.865  0.00  0.00    +0.000 A 
ATOM     18  C   UNL     1      -3.126  14.320  22.055  0.00  0.00    +0.000 A 
ATOM     19  C   UNL     1      -3.038  13.381  23.082  0.00  0.00    +0.000 A 
ATOM     20  C   UNL     1      -2.240  12.230  22.894  0.00  0.00    +0.000 A 
ATOM     21  C   UNL     1      -1.524  11.976  21.699  0.00  0.00    +0.000 A 
ATOM     22  H   UNL     1       0.510  11.133  18.461  0.00  0.00    +0.000 HD
ENDROOT
BRANCH  19  23
ATOM     23  C   UNL     1      -3.796  13.573  24.374  0.00  0.00    +0.000 C 
ATOM     24  F   UNL     1      -3.086  14.248  25.323  0.00  0.00    +0.000 F 
ATOM     25  F   UNL     1      -4.948  14.281  24.200  0.00  0.00    +0.000 F 
ATOM     26  F   UNL     1      -4.167  12.397  24.950  0.00  0.00    +0.000 F 
ENDBRANCH  19  23
TORSDOF 1
ENDMDL
MODEL 6
REMARK VINA RESULT:      -7.2      4.821      7.737
REMARK  Name = 
REMARK  2 active torsions:
REMARK  status: ('A' for Active; 'I' for Inactive)
REMARK    1  A    between atoms: C_1  and  C_2
REMARK    2  A    between atoms: C_19  and  C_20
REMARK                            x       y       z     vdW  Elec       q    Type
REMARK                         _______ _______ _______ _____ _____    ______ ____
ROOT
ATOM      1  C   UNL     1       5.223   4.292  15.406  0.00  0.00    +0.000 C 
ATOM      2  C   UNL     1       4.592   4.349  16.765  0.00  0.00    +0.000 A 
ATOM      3  C   UNL     1       4.672   3.268  17.629  0.00  0.00    +0.000 A 
ATOM      4  C   UNL     1       4.063   3.369  18.874  0.00  0.00    +0.000 A 
ATOM      5  C   UNL     1       3.397   4.548  19.230  0.00  0.00    +0.000 A 
ATOM      6  C   UNL     1       2.786   4.688  20.477  0.00  0.00    +0.000 A 
ATOM      7  C   UNL     1       2.147   5.882  20.818  0.00  0.00    +0.000 A 
ATOM      8  C   UNL     1       2.111   6.989  19.948  0.00  0.00    +0.000 A 
ATOM      9  C   UNL     1       2.748   6.818  18.698  0.00  0.00    +0.000 A 
ATOM     10  C   UNL     1       3.375   5.611  18.314  0.00  0.00    +0.000 A 
ATOM     11  N   UNL     1       3.959   5.502  17.095  0.00  0.00    +0.000 NA
ATOM     12  N   UNL     1       3.043   7.942  17.842  0.00  0.00    +0.000 N 
ATOM     13  S   UNL     1       2.024   9.254  17.816  0.00  0.00    +0.000 S 
ATOM     14  O   UNL     1       0.933   8.946  16.913  0.00  0.00    +0.000 OA
ATOM     15  O   UNL     1       2.847  10.425  17.626  0.00  0.00    +0.000 OA
ATOM     16  C   UNL     1       1.335   9.343  19.433  0.00  0.00    +0.000 A 
ATOM     17  C   UNL     1       0.689  10.546  19.767  0.00  0.00    +0.000 A 
ATOM     18  C   UNL     1       0.093  10.694  21.013  0.00  0.00    +0.000 A 
ATOM     19  C   UNL     1       0.141   9.646  21.931  0.00  0.00    +0.000 A 
ATOM     20  C   UNL     1       0.810   8.452  21.577  0.00  0.00    +0.000 A 
ATOM     21  C   UNL     1       1.432   8.262  20.319  0.00  0.00    +0.000 A 
ATOM     22  H   UNL     1       3.197   7.585  16.890  0.00  0.00    +0.000 HD
ENDROOT
BRANCH  19  23
ATOM     23  C   UNL     1      -0.523   9.768  23.282  0.00  0.00    +0.000 C 
ATOM     24  F   UNL     1      -1.078  10.994  23.503  0.00  0.00    +0.000 F 
ATOM     25  F   UNL     1      -1.535   8.868  23.446  0.00  0.00    +0.000 F 
ATOM     26  F   UNL     1       0.336   9.554  24.315  0.00  0.00    +0.000 F 
ENDBRANCH  19  23
TORSDOF 1
ENDMDL
MODEL 7
REMARK VINA RESULT:      -7.1      6.529      8.512
REMARK  Name = 
REMARK  2 active torsions:
REMARK  status: ('A' for Active; 'I' for Inactive)
REMARK    1  A    between atoms: C_1  and  C_2
REMARK    2  A    between atoms: C_19  and  C_20
REMARK                            x       y       z     vdW  Elec       q    Type
REMARK                         _______ _______ _______ _____ _____    ______ ____
ROOT
ATOM      1  C   UNL     1      -1.191  15.639  26.308  0.00  0.00    +0.000 C 
ATOM      2  C   UNL     1      -2.076  15.332  25.137  0.00  0.00    +0.000 A 
ATOM      3  C   UNL     1      -3.339  15.894  25.035  0.00  0.00    +0.000 A 
ATOM      4  C   UNL     1      -4.121  15.570  23.934  0.00  0.00    +0.000 A 
ATOM      5  C   UNL     1      -3.623  14.699  22.958  0.00  0.00    +0.000 A 
ATOM      6  C   UNL     1      -4.376  14.362  21.832  0.00  0.00    +0.000 A 
ATOM      7  C   UNL     1      -3.850  13.510  20.860  0.00  0.00    +0.000 A 
ATOM      8  C   UNL     1      -2.548  12.979  20.954  0.00  0.00    +0.000 A 
ATOM      9  C   UNL     1      -1.807  13.349  22.099  0.00  0.00    +0.000 A 
ATOM     10  C   UNL     1      -2.326  14.185  23.113  0.00  0.00    +0.000 A 
ATOM     11  N   UNL     1      -1.572  14.494  24.197  0.00  0.00    +0.000 NA
ATOM     12  N   UNL     1      -0.383  13.126  22.180  0.00  0.00    +0.000 N 
ATOM     13  S   UNL     1       0.294  11.806  21.435  0.00  0.00    +0.000 S 
ATOM     14  O   UNL     1       0.140  10.672  22.324  0.00  0.00    +0.000 OA
ATOM     15  O   UNL     1       1.594  12.211  20.954  0.00  0.00    +0.000 OA
ATOM     16  C   UNL     1      -0.719  11.491  20.031  0.00  0.00    +0.000 A 
ATOM     17  C   UNL     1      -0.184  10.628  19.060  0.00  0.00    +0.000 A 
ATOM     18  C   UNL     1      -0.926  10.302  17.931  0.00  0.00    +0.000 A 
ATOM     19  C   UNL     1      -2.203  10.838  17.765  0.00  0.00    +0.000 A 
ATOM     20  C   UNL     1      -2.713  11.715  18.748  0.00  0.00    +0.000 A 
ATOM     21  C   UNL     1      -1.988  12.075  19.911  0.00  0.00    +0.000 A 
ATOM     22  H   UNL     1      -0.111  13.160  23.172  0.00  0.00    +0.000 HD
ENDROOT
BRANCH  19  23
ATOM     23  C   UNL     1      -3.043  10.478  16.563  0.00  0.00    +0.000 C 
ATOM     24  F   UNL     1      -3.443   9.175  16.552  0.00  0.00    +0.000 F 
ATOM     25  F   UNL     1      -4.187  11.218  16.489  0.00  0.00    +0.000 F 
ATOM     26  F   UNL     1      -2.394  10.681  15.384  0.00  0.00    +0.000 F 
ENDBRANCH  19  23
TORSDOF 1
ENDMDL
MODEL 8
REMARK VINA RESULT:      -6.9      6.520      8.520
REMARK  Name = 
REMARK  2 active torsions:
REMARK  status: ('A' for Active; 'I' for Inactive)
REMARK    1  A    between atoms: C_1  and  C_2
REMARK    2  A    between atoms: C_19  and  C_20
REMARK                            x       y       z     vdW  Elec       q    Type
REMARK                         _______ _______ _______ _____ _____    ______ ____
ROOT
ATOM      1  C   UNL     1      -2.360  15.285  25.919  0.00  0.00    +0.000 C 
ATOM      2  C   UNL     1      -3.110  15.021  24.648  0.00  0.00    +0.000 A 
ATOM      3  C   UNL     1      -4.337  15.620  24.411  0.00  0.00    +0.000 A 
ATOM      4  C   UNL     1      -4.994  15.336  23.221  0.00  0.00    +0.000 A 
ATOM      5  C   UNL     1      -4.408  14.468  22.292  0.00  0.00    +0.000 A 
ATOM      6  C   UNL     1      -5.035  14.171  21.080  0.00  0.00    +0.000 A 
ATOM      7  C   UNL     1      -4.421  13.319  20.160  0.00  0.00    +0.000 A 
ATOM      8  C   UNL     1      -3.153  12.751  20.394  0.00  0.00    +0.000 A 
ATOM      9  C   UNL     1      -2.541  13.081  21.624  0.00  0.00    +0.000 A 
ATOM     10  C   UNL     1      -3.153  13.914  22.587  0.00  0.00    +0.000 A 
ATOM     11  N   UNL     1      -2.522  14.184  23.757  0.00  0.00    +0.000 NA
ATOM     12  N   UNL     1      -1.143  12.817  21.865  0.00  0.00    +0.000 N 
ATOM     13  S   UNL     1      -0.419  11.490  21.178  0.00  0.00    +0.000 S 
ATOM     14  O   UNL     1      -0.704  10.346  22.021  0.00  0.00    +0.000 OA
ATOM     15  O   UNL     1       0.939  11.865  20.858  0.00  0.00    +0.000 OA
ATOM     16  C   UNL     1      -1.269  11.226  19.660  0.00  0.00    +0.000 A 
ATOM     17  C   UNL     1      -0.648  10.365  18.741  0.00  0.00    +0.000 A 
ATOM     18  C   UNL     1      -1.262  10.078  17.528  0.00  0.00    +0.000 A 
ATOM     19  C   UNL     1      -2.496  10.653  17.225  0.00  0.00    +0.000 A 
ATOM     20  C   UNL     1      -3.094  11.528  18.160  0.00  0.00    +0.000 A 
ATOM     21  C   UNL     1      -2.500  11.848  19.406  0.00  0.00    +0.000 A 
ATOM     22  H   UNL     1      -0.988  12.827  22.882  0.00  0.00    +0.000 HD
ENDROOT
BRANCH  19  23
ATOM     23  C   UNL     1      -3.200  10.336  15.927  0.00  0.00    +0.000 C 
ATOM     24  F   UNL     1      -2.601  10.895  14.837  0.00  0.00    +0.000 F 
ATOM     25  F   UNL     1      -3.251   8.997  15.677  0.00  0.00    +0.000 F 
ATOM     26  F   UNL     1      -4.491  10.767  15.907  0.00  0.00    +0.000 F 
ENDBRANCH  19  23
TORSDOF 1
ENDMDL
MODEL 9
REMARK VINA RESULT:      -6.8      7.183     10.213
REMARK  Name = 
REMARK  2 active torsions:
REMARK  status: ('A' for Active; 'I' for Inactive)
REMARK    1  A    between atoms: C_1  and  C_2
REMARK    2  A    between atoms: C_19  and  C_20
REMARK                            x       y       z     vdW  Elec       q    Type
REMARK                         _______ _______ _______ _____ _____    ______ ____
ROOT
ATOM      1  C   UNL     1       2.666   8.148  17.814  0.00  0.00    +0.000 C 
ATOM      2  C   UNL     1       1.935   8.335  19.110  0.00  0.00    +0.000 A 
ATOM      3  C   UNL     1       1.821   7.293  20.016  0.00  0.00    +0.000 A 
ATOM      4  C   UNL     1       1.127   7.516  21.199  0.00  0.00    +0.000 A 
ATOM      5  C   UNL     1       0.570   8.775  21.452  0.00  0.00    +0.000 A 
ATOM      6  C   UNL     1      -0.122   9.038  22.635  0.00  0.00    +0.000 A 
ATOM      7  C   UNL     1      -0.650  10.308  22.876  0.00  0.00    +0.000 A 
ATOM      8  C   UNL     1      -0.489  11.372  21.966  0.00  0.00    +0.000 A 
ATOM      9  C   UNL     1       0.227  11.076  20.784  0.00  0.00    +0.000 A 
ATOM     10  C   UNL     1       0.744   9.792  20.500  0.00  0.00    +0.000 A 
ATOM     11  N   UNL     1       1.411   9.564  19.342  0.00  0.00    +0.000 NA
ATOM     12  N   UNL     1       0.715  12.121  19.916  0.00  0.00    +0.000 N 
ATOM     13  S   UNL     1      -0.143  13.533  19.754  0.00  0.00    +0.000 S 
ATOM     14  O   UNL     1      -1.183  13.305  18.771  0.00  0.00    +0.000 OA
ATOM     15  O   UNL     1       0.819  14.598  19.594  0.00  0.00    +0.000 OA
ATOM     16  C   UNL     1      -0.950  13.771  21.300  0.00  0.00    +0.000 A 
ATOM     17  C   UNL     1      -1.482  15.050  21.533  0.00  0.00    +0.000 A 
ATOM     18  C   UNL     1      -2.158  15.320  22.716  0.00  0.00    +0.000 A 
ATOM     19  C   UNL     1      -2.305  14.315  23.672  0.00  0.00    +0.000 A 
ATOM     20  C   UNL     1      -1.748  13.041  23.421  0.00  0.00    +0.000 A 
ATOM     21  C   UNL     1      -1.048  12.727  22.230  0.00  0.00    +0.000 A 
ATOM     22  H   UNL     1       0.907  11.706  18.995  0.00  0.00    +0.000 HD
ENDROOT
BRANCH  19  23
ATOM     23  C   UNL     1      -3.061  14.571  24.954  0.00  0.00    +0.000 C 
ATOM     24  F   UNL     1      -2.253  14.890  26.005  0.00  0.00    +0.000 F 
ATOM     25  F   UNL     1      -3.944  15.604  24.838  0.00  0.00    +0.000 F 
ATOM     26  F   UNL     1      -3.795  13.499  25.358  0.00  0.00    +0.000 F 
ENDBRANCH  19  23
TORSDOF 1
ENDMDL
