MODEL 1
REMARK VINA RESULT:      -7.9      0.000      0.000
REMARK  Name = 
REMARK  4 active torsions:
REMARK  status: ('A' for Active; 'I' for Inactive)
REMARK    1  A    between atoms: C_1  and  C_2
REMARK    2  A    between atoms: C_2  and  C_4
REMARK    3  A    between atoms: C_8  and  N_9
REMARK    4  A    between atoms: C_16  and  C_17
REMARK                            x       y       z     vdW  Elec       q    Type
REMARK                         _______ _______ _______ _____ _____    ______ ____
ROOT
ATOM      1  N   UNL     1       2.403   5.846  19.833  0.00  0.00    +0.000 N 
ATOM      2  C   UNL     1       1.629   4.857  20.419  0.00  0.00    +0.000 A 
ATOM      3  N   UNL     1       2.215   3.679  20.435  0.00  0.00    +0.000 NA
ATOM      4  C   UNL     1       3.432   3.905  19.858  0.00  0.00    +0.000 A 
ATOM      5  C   UNL     1       4.546   2.997  19.666  0.00  0.00    +0.000 A 
ATOM      6  O   UNL     1       4.545   1.798  19.923  0.00  0.00    +0.000 OA
ATOM      7  N   UNL     1       5.663   3.634  19.155  0.00  0.00    +0.000 N 
ATOM      8  C   UNL     1       5.711   4.982  18.845  0.00  0.00    +0.000 A 
ATOM      9  C   UNL     1       7.037   5.483  18.343  0.00  0.00    +0.000 C 
ATOM     10  N   UNL     1       4.709   5.804  18.972  0.00  0.00    +0.000 NA
ATOM     11  C   UNL     1       3.589   5.223  19.479  0.00  0.00    +0.000 A 
ATOM     12  H   UNL     1       6.467   3.037  19.024  0.00  0.00    +0.000 HD
ENDROOT
BRANCH   1  17
ATOM     13  C   UNL     1       1.091   9.269  20.537  0.00  0.00    +0.000 A 
ATOM     14  C   UNL     1       1.222   9.860  19.274  0.00  0.00    +0.000 A 
ATOM     15  C   UNL     1       1.762   9.137  18.211  0.00  0.00    +0.000 A 
ATOM     16  C   UNL     1       2.179   7.819  18.399  0.00  0.00    +0.000 A 
ATOM     17  C   UNL     1       2.023   7.205  19.648  0.00  0.00    +0.000 A 
ATOM     18  C   UNL     1       1.473   7.931  20.717  0.00  0.00    +0.000 A 
BRANCH  13  20
ATOM     19  C   UNL     1      -0.180   9.436  22.784  0.00  0.00    +0.000 C 
ATOM     20  C   UNL     1       0.566  10.105  21.658  0.00  0.00    +0.000 C 
ATOM     21  O   UNL     1       0.756  11.320  21.659  0.00  0.00    +0.000 OA
ENDBRANCH  13  20
ENDBRANCH   1  17
TORSDOF 2
ENDMDL
MODEL 2
REMARK VINA RESULT:      -7.9      2.741      6.365
REMARK  Name = 
REMARK  4 active torsions:
REMARK  status: ('A' for Active; 'I' for Inactive)
REMARK    1  A    between atoms: C_1  and  C_2
REMARK    2  A    between atoms: C_2  and  C_4
REMARK    3  A    between atoms: C_8  and  N_9
REMARK    4  A    between atoms: C_16  and  C_17
REMARK                            x       y       z     vdW  Elec       q    Type
REMARK                         _______ _______ _______ _____ _____    ______ ____
ROOT
ATOM      1  N   UNL     1       4.561   3.968  18.876  0.00  0.00    +0.000 N 
ATOM      2  C   UNL     1       4.439   2.593  18.991  0.00  0.00    +0.000 A 
ATOM      3  N   UNL     1       3.431   2.222  19.752  0.00  0.00    +0.000 NA
ATOM      4  C   UNL     1       2.853   3.399  20.135  0.00  0.00    +0.000 A 
ATOM      5  C   UNL     1       1.657   3.626  20.922  0.00  0.00    +0.000 A 
ATOM      6  O   UNL     1       0.986   2.759  21.472  0.00  0.00    +0.000 OA
ATOM      7  N   UNL     1       1.319   4.966  20.991  0.00  0.00    +0.000 N 
ATOM      8  C   UNL     1       2.046   5.980  20.392  0.00  0.00    +0.000 A 
ATOM      9  C   UNL     1       1.480   7.363  20.552  0.00  0.00    +0.000 C 
ATOM     10  N   UNL     1       3.145   5.799  19.716  0.00  0.00    +0.000 NA
ATOM     11  C   UNL     1       3.513   4.493  19.615  0.00  0.00    +0.000 A 
ATOM     12  H   UNL     1       0.480   5.163  21.517  0.00  0.00    +0.000 HD
ENDROOT
BRANCH   1  17
ATOM     13  C   UNL     1       6.744   5.071  16.056  0.00  0.00    +0.000 A 
ATOM     14  C   UNL     1       7.583   5.976  16.719  0.00  0.00    +0.000 A 
ATOM     15  C   UNL     1       7.408   6.233  18.078  0.00  0.00    +0.000 A 
ATOM     16  C   UNL     1       6.393   5.591  18.788  0.00  0.00    +0.000 A 
ATOM     17  C   UNL     1       5.568   4.660  18.146  0.00  0.00    +0.000 A 
ATOM     18  C   UNL     1       5.749   4.396  16.778  0.00  0.00    +0.000 A 
BRANCH  13  20
ATOM     19  C   UNL     1       6.007   3.947  13.846  0.00  0.00    +0.000 C 
ATOM     20  C   UNL     1       6.932   4.878  14.586  0.00  0.00    +0.000 C 
ATOM     21  O   UNL     1       7.825   5.484  13.997  0.00  0.00    +0.000 OA
ENDBRANCH  13  20
ENDBRANCH   1  17
TORSDOF 2
ENDMDL
MODEL 3
REMARK VINA RESULT:      -7.7      2.577      3.847
REMARK  Name = 
REMARK  4 active torsions:
REMARK  status: ('A' for Active; 'I' for Inactive)
REMARK    1  A    between atoms: C_1  and  C_2
REMARK    2  A    between atoms: C_2  and  C_4
REMARK    3  A    between atoms: C_8  and  N_9
REMARK    4  A    between atoms: C_16  and  C_17
REMARK                            x       y       z     vdW  Elec       q    Type
REMARK                         _______ _______ _______ _____ _____    ______ ____
ROOT
ATOM      1  N   UNL     1       4.182   4.916  17.737  0.00  0.00    +0.000 N 
ATOM      2  C   UNL     1       4.040   3.820  16.900  0.00  0.00    +0.000 A 
ATOM      3  N   UNL     1       4.969   3.753  15.969  0.00  0.00    +0.000 NA
ATOM      4  C   UNL     1       5.766   4.834  16.216  0.00  0.00    +0.000 A 
ATOM      5  C   UNL     1       6.994   5.244  15.564  0.00  0.00    +0.000 A 
ATOM      6  O   UNL     1       7.495   4.710  14.580  0.00  0.00    +0.000 OA
ATOM      7  N   UNL     1       7.583   6.331  16.185  0.00  0.00    +0.000 N 
ATOM      8  C   UNL     1       7.056   6.969  17.294  0.00  0.00    +0.000 A 
ATOM      9  C   UNL     1       7.878   8.102  17.840  0.00  0.00    +0.000 C 
ATOM     10  N   UNL     1       5.934   6.642  17.869  0.00  0.00    +0.000 NA
ATOM     11  C   UNL     1       5.321   5.570  17.296  0.00  0.00    +0.000 A 
ATOM     12  H   UNL     1       8.452   6.635  15.769  0.00  0.00    +0.000 HD
ENDROOT
BRANCH   1  17
ATOM     13  C   UNL     1       2.039   6.942  20.024  0.00  0.00    +0.000 A 
ATOM     14  C   UNL     1       1.658   5.965  20.953  0.00  0.00    +0.000 A 
ATOM     15  C   UNL     1       2.088   4.647  20.805  0.00  0.00    +0.000 A 
ATOM     16  C   UNL     1       2.900   4.292  19.728  0.00  0.00    +0.000 A 
ATOM     17  C   UNL     1       3.316   5.264  18.811  0.00  0.00    +0.000 A 
ATOM     18  C   UNL     1       2.888   6.594  18.963  0.00  0.00    +0.000 A 
BRANCH  13  20
ATOM     19  C   UNL     1       1.061   8.781  21.559  0.00  0.00    +0.000 C 
ATOM     20  C   UNL     1       1.500   8.326  20.191  0.00  0.00    +0.000 C 
ATOM     21  O   UNL     1       1.431   9.079  19.221  0.00  0.00    +0.000 OA
ENDBRANCH  13  20
ENDBRANCH   1  17
TORSDOF 2
ENDMDL
MODEL 4
REMARK VINA RESULT:      -7.6      4.585      7.861
REMARK  Name = 
REMARK  4 active torsions:
REMARK  status: ('A' for Active; 'I' for Inactive)
REMARK    1  A    between atoms: C_1  and  C_2
REMARK    2  A    between atoms: C_2  and  C_4
REMARK    3  A    between atoms: C_8  and  N_9
REMARK    4  A    between atoms: C_16  and  C_17
REMARK                            x       y       z     vdW  Elec       q    Type
REMARK                         _______ _______ _______ _____ _____    ______ ____
ROOT
ATOM      1  N   UNL     1       5.178   5.419  15.912  0.00  0.00    +0.000 N 
ATOM      2  C   UNL     1       5.097   6.736  16.337  0.00  0.00    +0.000 A 
ATOM      3  N   UNL     1       4.412   6.882  17.451  0.00  0.00    +0.000 NA
ATOM      4  C   UNL     1       4.045   5.609  17.785  0.00  0.00    +0.000 A 
ATOM      5  C   UNL     1       3.335   5.130  18.954  0.00  0.00    +0.000 A 
ATOM      6  O   UNL     1       2.847   5.832  19.833  0.00  0.00    +0.000 OA
ATOM      7  N   UNL     1       3.264   3.749  18.998  0.00  0.00    +0.000 N 
ATOM      8  C   UNL     1       3.795   2.915  18.030  0.00  0.00    +0.000 A 
ATOM      9  C   UNL     1       3.648   1.443  18.294  0.00  0.00    +0.000 C 
ATOM     10  N   UNL     1       4.401   3.327  16.953  0.00  0.00    +0.000 NA
ATOM     11  C   UNL     1       4.501   4.682  16.870  0.00  0.00    +0.000 A 
ATOM     12  H   UNL     1       2.791   3.376  19.809  0.00  0.00    +0.000 HD
ENDROOT
BRANCH   1  17
ATOM     13  C   UNL     1       5.800   3.621  12.700  0.00  0.00    +0.000 A 
ATOM     14  C   UNL     1       7.119   4.012  12.438  0.00  0.00    +0.000 A 
ATOM     15  C   UNL     1       7.783   4.880  13.305  0.00  0.00    +0.000 A 
ATOM     16  C   UNL     1       7.134   5.368  14.440  0.00  0.00    +0.000 A 
ATOM     17  C   UNL     1       5.828   4.960  14.732  0.00  0.00    +0.000 A 
ATOM     18  C   UNL     1       5.161   4.080  13.862  0.00  0.00    +0.000 A 
BRANCH  13  20
ATOM     19  C   UNL     1       3.836   3.219  11.066  0.00  0.00    +0.000 C 
ATOM     20  C   UNL     1       5.112   2.741  11.709  0.00  0.00    +0.000 C 
ATOM     21  O   UNL     1       5.596   1.647  11.420  0.00  0.00    +0.000 OA
ENDBRANCH  13  20
ENDBRANCH   1  17
TORSDOF 2
ENDMDL
MODEL 5
REMARK VINA RESULT:      -7.6      5.045      6.718
REMARK  Name = 
REMARK  4 active torsions:
REMARK  status: ('A' for Active; 'I' for Inactive)
REMARK    1  A    between atoms: C_1  and  C_2
REMARK    2  A    between atoms: C_2  and  C_4
REMARK    3  A    between atoms: C_8  and  N_9
REMARK    4  A    between atoms: C_16  and  C_17
REMARK                            x       y       z     vdW  Elec       q    Type
REMARK                         _______ _______ _______ _____ _____    ______ ____
ROOT
ATOM      1  N   UNL     1       5.624   4.624  16.504  0.00  0.00    +0.000 N 
ATOM      2  C   UNL     1       6.515   5.563  17.001  0.00  0.00    +0.000 A 
ATOM      3  N   UNL     1       7.434   5.920  16.129  0.00  0.00    +0.000 NA
ATOM      4  C   UNL     1       7.123   5.205  15.007  0.00  0.00    +0.000 A 
ATOM      5  C   UNL     1       7.736   5.235  13.694  0.00  0.00    +0.000 A 
ATOM      6  O   UNL     1       8.738   5.873  13.386  0.00  0.00    +0.000 OA
ATOM      7  N   UNL     1       7.055   4.455  12.776  0.00  0.00    +0.000 N 
ATOM      8  C   UNL     1       5.925   3.716  13.076  0.00  0.00    +0.000 A 
ATOM      9  C   UNL     1       5.313   2.973  11.922  0.00  0.00    +0.000 C 
ATOM     10  N   UNL     1       5.383   3.644  14.259  0.00  0.00    +0.000 NA
ATOM     11  C   UNL     1       6.016   4.403  15.194  0.00  0.00    +0.000 A 
ATOM     12  H   UNL     1       7.443   4.465  11.844  0.00  0.00    +0.000 HD
ENDROOT
BRANCH   1  17
ATOM     13  C   UNL     1       3.704   2.936  19.224  0.00  0.00    +0.000 A 
ATOM     14  C   UNL     1       2.447   2.819  18.617  0.00  0.00    +0.000 A 
ATOM     15  C   UNL     1       2.236   3.316  17.332  0.00  0.00    +0.000 A 
ATOM     16  C   UNL     1       3.277   3.938  16.642  0.00  0.00    +0.000 A 
ATOM     17  C   UNL     1       4.547   4.032  17.223  0.00  0.00    +0.000 A 
ATOM     18  C   UNL     1       4.762   3.525  18.516  0.00  0.00    +0.000 A 
BRANCH  13  20
ATOM     19  C   UNL     1       2.705   2.573  21.583  0.00  0.00    +0.000 C 
ATOM     20  C   UNL     1       3.862   2.443  20.626  0.00  0.00    +0.000 C 
ATOM     21  O   UNL     1       4.922   1.930  20.980  0.00  0.00    +0.000 OA
ENDBRANCH  13  20
ENDBRANCH   1  17
TORSDOF 2
ENDMDL
MODEL 6
REMARK VINA RESULT:      -7.5      3.326      6.867
REMARK  Name = 
REMARK  4 active torsions:
REMARK  status: ('A' for Active; 'I' for Inactive)
REMARK    1  A    between atoms: C_1  and  C_2
REMARK    2  A    between atoms: C_2  and  C_4
REMARK    3  A    between atoms: C_8  and  N_9
REMARK    4  A    between atoms: C_16  and  C_17
REMARK                            x       y       z     vdW  Elec       q    Type
REMARK                         _______ _______ _______ _____ _____    ______ ____
ROOT
ATOM      1  N   UNL     1       4.144   3.503  17.775  0.00  0.00    +0.000 N 
ATOM      2  C   UNL     1       3.783   2.179  17.965  0.00  0.00    +0.000 A 
ATOM      3  N   UNL     1       2.889   2.015  18.916  0.00  0.00    +0.000 NA
ATOM      4  C   UNL     1       2.634   3.284  19.355  0.00  0.00    +0.000 A 
ATOM      5  C   UNL     1       1.679   3.744  20.344  0.00  0.00    +0.000 A 
ATOM      6  O   UNL     1       0.972   3.027  21.044  0.00  0.00    +0.000 OA
ATOM      7  N   UNL     1       1.626   5.124  20.422  0.00  0.00    +0.000 N 
ATOM      8  C   UNL     1       2.405   5.974  19.657  0.00  0.00    +0.000 A 
ATOM      9  C   UNL     1       2.158   7.442  19.865  0.00  0.00    +0.000 C 
ATOM     10  N   UNL     1       3.297   5.579  18.793  0.00  0.00    +0.000 NA
ATOM     11  C   UNL     1       3.380   4.226  18.676  0.00  0.00    +0.000 A 
ATOM     12  H   UNL     1       0.958   5.484  21.088  0.00  0.00    +0.000 HD
ENDROOT
BRANCH   1  17
ATOM     13  C   UNL     1       5.935   4.118  14.558  0.00  0.00    +0.000 A 
ATOM     14  C   UNL     1       7.025   4.873  15.010  0.00  0.00    +0.000 A 
ATOM     15  C   UNL     1       7.148   5.193  16.361  0.00  0.00    +0.000 A 
ATOM     16  C   UNL     1       6.183   4.765  17.274  0.00  0.00    +0.000 A 
ATOM     17  C   UNL     1       5.106   3.982  16.841  0.00  0.00    +0.000 A 
ATOM     18  C   UNL     1       4.986   3.654  15.480  0.00  0.00    +0.000 A 
BRANCH  13  20
ATOM     19  C   UNL     1       7.052   3.921  12.232  0.00  0.00    +0.000 C 
ATOM     20  C   UNL     1       5.816   3.856  13.092  0.00  0.00    +0.000 C 
ATOM     21  O   UNL     1       4.720   3.579  12.605  0.00  0.00    +0.000 OA
ENDBRANCH  13  20
ENDBRANCH   1  17
TORSDOF 2
ENDMDL
MODEL 7
REMARK VINA RESULT:      -7.5      4.121      6.480
REMARK  Name = 
REMARK  4 active torsions:
REMARK  status: ('A' for Active; 'I' for Inactive)
REMARK    1  A    between atoms: C_1  and  C_2
REMARK    2  A    between atoms: C_2  and  C_4
REMARK    3  A    between atoms: C_8  and  N_9
REMARK    4  A    between atoms: C_16  and  C_17
REMARK                            x       y       z     vdW  Elec       q    Type
REMARK                         _______ _______ _______ _____ _____    ______ ____
ROOT
ATOM      1  N   UNL     1       5.520   5.426  16.456  0.00  0.00    +0.000 N 
ATOM      2  C   UNL     1       6.605   6.178  16.879  0.00  0.00    +0.000 A 
ATOM      3  N   UNL     1       7.596   6.193  16.014  0.00  0.00    +0.000 NA
ATOM      4  C   UNL     1       7.139   5.439  14.970  0.00  0.00    +0.000 A 
ATOM      5  C   UNL     1       7.762   5.157  13.692  0.00  0.00    +0.000 A 
ATOM      6  O   UNL     1       8.893   5.493  13.357  0.00  0.00    +0.000 OA
ATOM      7  N   UNL     1       6.926   4.455  12.842  0.00  0.00    +0.000 N 
ATOM      8  C   UNL     1       5.645   4.052  13.175  0.00  0.00    +0.000 A 
ATOM      9  C   UNL     1       4.888   3.340  12.088  0.00  0.00    +0.000 C 
ATOM     10  N   UNL     1       5.083   4.260  14.331  0.00  0.00    +0.000 NA
ATOM     11  C   UNL     1       5.867   4.955  15.200  0.00  0.00    +0.000 A 
ATOM     12  H   UNL     1       7.319   4.255  11.933  0.00  0.00    +0.000 HD
ENDROOT
BRANCH   1  17
ATOM     13  C   UNL     1       2.708   3.669  18.170  0.00  0.00    +0.000 A 
ATOM     14  C   UNL     1       1.934   4.762  18.581  0.00  0.00    +0.000 A 
ATOM     15  C   UNL     1       2.356   6.064  18.313  0.00  0.00    +0.000 A 
ATOM     16  C   UNL     1       3.554   6.287  17.635  0.00  0.00    +0.000 A 
ATOM     17  C   UNL     1       4.321   5.204  17.189  0.00  0.00    +0.000 A 
ATOM     18  C   UNL     1       3.893   3.892  17.453  0.00  0.00    +0.000 A 
BRANCH  13  20
ATOM     19  C   UNL     1       0.797   2.082  18.893  0.00  0.00    +0.000 C 
ATOM     20  C   UNL     1       2.245   2.296  18.536  0.00  0.00    +0.000 C 
ATOM     21  O   UNL     1       3.042   1.359  18.532  0.00  0.00    +0.000 OA
ENDBRANCH  13  20
ENDBRANCH   1  17
TORSDOF 2
ENDMDL
MODEL 8
REMARK VINA RESULT:      -7.5      3.391      5.137
REMARK  Name = 
REMARK  4 active torsions:
REMARK  status: ('A' for Active; 'I' for Inactive)
REMARK    1  A    between atoms: C_1  and  C_2
REMARK    2  A    between atoms: C_2  and  C_4
REMARK    3  A    between atoms: C_8  and  N_9
REMARK    4  A    between atoms: C_16  and  C_17
REMARK                            x       y       z     vdW  Elec       q    Type
REMARK                         _______ _______ _______ _____ _____    ______ ____
ROOT
ATOM      1  N   UNL     1       4.420   4.767  17.503  0.00  0.00    +0.000 N 
ATOM      2  C   UNL     1       4.262   3.866  16.462  0.00  0.00    +0.000 A 
ATOM      3  N   UNL     1       5.169   3.998  15.518  0.00  0.00    +0.000 NA
ATOM      4  C   UNL     1       5.969   5.010  15.965  0.00  0.00    +0.000 A 
ATOM      5  C   UNL     1       7.182   5.554  15.385  0.00  0.00    +0.000 A 
ATOM      6  O   UNL     1       7.661   5.237  14.301  0.00  0.00    +0.000 OA
ATOM      7  N   UNL     1       7.782   6.494  16.203  0.00  0.00    +0.000 N 
ATOM      8  C   UNL     1       7.278   6.886  17.430  0.00  0.00    +0.000 A 
ATOM      9  C   UNL     1       8.110   7.888  18.181  0.00  0.00    +0.000 C 
ATOM     10  N   UNL     1       6.170   6.440  17.950  0.00  0.00    +0.000 NA
ATOM     11  C   UNL     1       5.547   5.505  17.182  0.00  0.00    +0.000 A 
ATOM     12  H   UNL     1       8.640   6.883  15.840  0.00  0.00    +0.000 HD
ENDROOT
BRANCH   1  17
ATOM     13  C   UNL     1       2.569   3.888  20.624  0.00  0.00    +0.000 A 
ATOM     14  C   UNL     1       1.879   5.083  20.859  0.00  0.00    +0.000 A 
ATOM     15  C   UNL     1       2.046   6.173  20.005  0.00  0.00    +0.000 A 
ATOM     16  C   UNL     1       2.906   6.080  18.911  0.00  0.00    +0.000 A 
ATOM     17  C   UNL     1       3.577   4.881  18.645  0.00  0.00    +0.000 A 
ATOM     18  C   UNL     1       3.404   3.781  19.501  0.00  0.00    +0.000 A 
BRANCH  13  20
ATOM     19  C   UNL     1       1.029   2.459  22.134  0.00  0.00    +0.000 C 
ATOM     20  C   UNL     1       2.405   2.771  21.603  0.00  0.00    +0.000 C 
ATOM     21  O   UNL     1       3.383   2.114  21.954  0.00  0.00    +0.000 OA
ENDBRANCH  13  20
ENDBRANCH   1  17
TORSDOF 2
ENDMDL
MODEL 9
REMARK VINA RESULT:      -7.4      2.000      2.984
REMARK  Name = 
REMARK  4 active torsions:
REMARK  status: ('A' for Active; 'I' for Inactive)
REMARK    1  A    between atoms: C_1  and  C_2
REMARK    2  A    between atoms: C_2  and  C_4
REMARK    3  A    between atoms: C_8  and  N_9
REMARK    4  A    between atoms: C_16  and  C_17
REMARK                            x       y       z     vdW  Elec       q    Type
REMARK                         _______ _______ _______ _____ _____    ______ ____
ROOT
ATOM      1  N   UNL     1       2.970   7.039  18.049  0.00  0.00    +0.000 N 
ATOM      2  C   UNL     1       4.134   7.280  17.337  0.00  0.00    +0.000 A 
ATOM      3  N   UNL     1       4.749   6.180  16.958  0.00  0.00    +0.000 NA
ATOM      4  C   UNL     1       3.947   5.175  17.418  0.00  0.00    +0.000 A 
ATOM      5  C   UNL     1       4.069   3.741  17.240  0.00  0.00    +0.000 A 
ATOM      6  O   UNL     1       5.005   3.165  16.696  0.00  0.00    +0.000 OA
ATOM      7  N   UNL     1       2.983   3.053  17.751  0.00  0.00    +0.000 N 
ATOM      8  C   UNL     1       1.907   3.658  18.376  0.00  0.00    +0.000 A 
ATOM      9  C   UNL     1       0.810   2.729  18.817  0.00  0.00    +0.000 C 
ATOM     10  N   UNL     1       1.798   4.939  18.581  0.00  0.00    +0.000 NA
ATOM     11  C   UNL     1       2.842   5.660  18.088  0.00  0.00    +0.000 A 
ATOM     12  H   UNL     1       3.024   2.051  17.629  0.00  0.00    +0.000 HD
ENDROOT
BRANCH   1  17
ATOM     13  C   UNL     1       1.069   9.048  20.557  0.00  0.00    +0.000 A 
ATOM     14  C   UNL     1       0.387   9.934  19.713  0.00  0.00    +0.000 A 
ATOM     15  C   UNL     1       0.577   9.879  18.333  0.00  0.00    +0.000 A 
ATOM     16  C   UNL     1       1.451   8.941  17.782  0.00  0.00    +0.000 A 
ATOM     17  C   UNL     1       2.113   8.027  18.610  0.00  0.00    +0.000 A 
ATOM     18  C   UNL     1       1.917   8.078  20.001  0.00  0.00    +0.000 A 
BRANCH  13  20
ATOM     19  C   UNL     1      -0.510   9.093  22.605  0.00  0.00    +0.000 C 
ATOM     20  C   UNL     1       0.880   9.188  22.032  0.00  0.00    +0.000 C 
ATOM     21  O   UNL     1       1.855   9.366  22.761  0.00  0.00    +0.000 OA
ENDBRANCH  13  20
ENDBRANCH   1  17
TORSDOF 2
ENDMDL
