MODEL 1
REMARK VINA RESULT:      -9.5      0.000      0.000
REMARK  Name = 
REMARK  6 active torsions:
REMARK  status: ('A' for Active; 'I' for Inactive)
REMARK    1  A    between atoms: C_1  and  O_2
REMARK    2  A    between atoms: O_2  and  C_3
REMARK    3  A    between atoms: C_6  and  C_7
REMARK    4  A    between atoms: C_12  and  C_13
REMARK    5  A    between atoms: C_16  and  C_18
REMARK    6  A    between atoms: C_29  and  C_30
REMARK                            x       y       z     vdW  Elec       q    Type
REMARK                         _______ _______ _______ _____ _____    ______ ____
ROOT
ATOM      1  C   UNL     1       2.591   6.586  19.862  0.00  0.00    +0.000 C 
ATOM      2  C   UNL     1       2.307   7.331  18.540  0.00  0.00    +0.000 C 
ATOM      3  N   UNL     1       1.843   8.429  19.384  0.00  0.00    +0.000 N 
ATOM      4  C   UNL     1       1.117   9.517  18.948  0.00  0.00    +0.000 C 
ATOM      5  O   UNL     1       0.900   9.710  17.753  0.00  0.00    +0.000 OA
ATOM      6  C   UNL     1       1.525   7.519  20.487  0.00  0.00    +0.000 C 
ENDROOT
BRANCH   4   7
ATOM      7  C   UNL     1       0.666  10.456  19.959  0.00  0.00    +0.000 A 
ATOM      8  N   UNL     1       1.058  11.710  20.109  0.00  0.00    +0.000 NA
ATOM      9  C   UNL     1       0.286  12.219  21.127  0.00  0.00    +0.000 A 
ATOM     10  C   UNL     1       0.263  13.508  21.680  0.00  0.00    +0.000 A 
ATOM     11  C   UNL     1      -0.623  13.771  22.733  0.00  0.00    +0.000 A 
ATOM     12  C   UNL     1      -1.472  12.775  23.222  0.00  0.00    +0.000 A 
ATOM     13  C   UNL     1      -1.471  11.486  22.676  0.00  0.00    +0.000 A 
ATOM     14  C   UNL     1      -0.580  11.253  21.630  0.00  0.00    +0.000 A 
ATOM     15  N   UNL     1      -0.323  10.145  20.864  0.00  0.00    +0.000 N 
ATOM     16  H   UNL     1      -0.783   9.250  20.918  0.00  0.00    +0.000 HD
ENDBRANCH   4   7
BRANCH   1  22
ATOM     17  C   UNL     1       3.180   4.034  19.254  0.00  0.00    +0.000 A 
ATOM     18  N   UNL     1       2.902   2.705  19.409  0.00  0.00    +0.000 NA
ATOM     19  C   UNL     1       1.875   2.380  20.221  0.00  0.00    +0.000 A 
ATOM     20  C   UNL     1       1.138   3.336  20.882  0.00  0.00    +0.000 A 
ATOM     21  N   UNL     1       1.394   4.653  20.754  0.00  0.00    +0.000 NA
ATOM     22  C   UNL     1       2.426   5.020  19.936  0.00  0.00    +0.000 A 
BRANCH  17  26
ATOM     23  C   UNL     1       6.580   4.673  16.637  0.00  0.00    +0.000 A 
ATOM     24  C   UNL     1       5.339   4.280  16.125  0.00  0.00    +0.000 A 
ATOM     25  C   UNL     1       4.235   4.093  16.969  0.00  0.00    +0.000 A 
ATOM     26  C   UNL     1       4.328   4.309  18.352  0.00  0.00    +0.000 A 
ATOM     27  C   UNL     1       5.547   4.823  18.814  0.00  0.00    +0.000 A 
ATOM     28  C   UNL     1       6.684   4.989  17.994  0.00  0.00    +0.000 A 
ATOM     29  C   UNL     1       7.927   5.515  18.650  0.00  0.00    +0.000 C 
BRANCH  23  31
ATOM     30  C   UNL     1       7.139   4.780  14.340  0.00  0.00    +0.000 C 
ATOM     31  O   UNL     1       7.565   4.800  15.698  0.00  0.00    +0.000 OA
ENDBRANCH  23  31
ENDBRANCH  17  26
ENDBRANCH   1  22
TORSDOF 4
ENDMDL
MODEL 2
REMARK VINA RESULT:      -9.4      0.226      1.084
REMARK  Name = 
REMARK  6 active torsions:
REMARK  status: ('A' for Active; 'I' for Inactive)
REMARK    1  A    between atoms: C_1  and  O_2
REMARK    2  A    between atoms: O_2  and  C_3
REMARK    3  A    between atoms: C_6  and  C_7
REMARK    4  A    between atoms: C_12  and  C_13
REMARK    5  A    between atoms: C_16  and  C_18
REMARK    6  A    between atoms: C_29  and  C_30
REMARK                            x       y       z     vdW  Elec       q    Type
REMARK                         _______ _______ _______ _____ _____    ______ ____
ROOT
ATOM      1  C   UNL     1       2.609   6.381  19.981  0.00  0.00    +0.000 C 
ATOM      2  C   UNL     1       2.545   7.151  18.645  0.00  0.00    +0.000 C 
ATOM      3  N   UNL     1       1.948   8.234  19.421  0.00  0.00    +0.000 N 
ATOM      4  C   UNL     1       1.302   9.331  18.892  0.00  0.00    +0.000 C 
ATOM      5  O   UNL     1       1.283   9.547  17.681  0.00  0.00    +0.000 OA
ATOM      6  C   UNL     1       1.455   7.305  20.441  0.00  0.00    +0.000 C 
ENDROOT
BRANCH   4   7
ATOM      7  C   UNL     1       0.691  10.253  19.833  0.00  0.00    +0.000 A 
ATOM      8  N   UNL     1      -0.204   9.962  20.762  0.00  0.00    +0.000 NA
ATOM      9  C   UNL     1      -0.403  11.130  21.461  0.00  0.00    +0.000 A 
ATOM     10  C   UNL     1      -1.227  11.387  22.566  0.00  0.00    +0.000 A 
ATOM     11  C   UNL     1      -1.258  12.684  23.094  0.00  0.00    +0.000 A 
ATOM     12  C   UNL     1      -0.482  13.704  22.537  0.00  0.00    +0.000 A 
ATOM     13  C   UNL     1       0.355  13.464  21.441  0.00  0.00    +0.000 A 
ATOM     14  C   UNL     1       0.366  12.164  20.937  0.00  0.00    +0.000 A 
ATOM     15  N   UNL     1       1.057  11.577  19.909  0.00  0.00    +0.000 N 
ATOM     16  H   UNL     1       1.742  12.013  19.311  0.00  0.00    +0.000 HD
ENDBRANCH   4   7
BRANCH   1  22
ATOM     17  C   UNL     1       3.180   3.851  19.276  0.00  0.00    +0.000 A 
ATOM     18  N   UNL     1       2.896   2.518  19.384  0.00  0.00    +0.000 NA
ATOM     19  C   UNL     1       1.872   2.169  20.191  0.00  0.00    +0.000 A 
ATOM     20  C   UNL     1       1.145   3.104  20.891  0.00  0.00    +0.000 A 
ATOM     21  N   UNL     1       1.408   4.424  20.809  0.00  0.00    +0.000 NA
ATOM     22  C   UNL     1       2.436   4.815  19.998  0.00  0.00    +0.000 A 
BRANCH  17  26
ATOM     23  C   UNL     1       6.576   4.571  16.675  0.00  0.00    +0.000 A 
ATOM     24  C   UNL     1       5.367   4.085  16.166  0.00  0.00    +0.000 A 
ATOM     25  C   UNL     1       4.263   3.871  17.003  0.00  0.00    +0.000 A 
ATOM     26  C   UNL     1       4.323   4.152  18.377  0.00  0.00    +0.000 A 
ATOM     27  C   UNL     1       5.504   4.756  18.831  0.00  0.00    +0.000 A 
ATOM     28  C   UNL     1       6.642   4.952  18.018  0.00  0.00    +0.000 A 
ATOM     29  C   UNL     1       7.843   5.576  18.665  0.00  0.00    +0.000 C 
BRANCH  23  31
ATOM     30  C   UNL     1       7.136   4.876  14.396  0.00  0.00    +0.000 C 
ATOM     31  O   UNL     1       7.566   4.714  15.743  0.00  0.00    +0.000 OA
ENDBRANCH  23  31
ENDBRANCH  17  26
ENDBRANCH   1  22
TORSDOF 4
ENDMDL
MODEL 3
REMARK VINA RESULT:      -8.7      2.640      9.018
REMARK  Name = 
REMARK  6 active torsions:
REMARK  status: ('A' for Active; 'I' for Inactive)
REMARK    1  A    between atoms: C_1  and  O_2
REMARK    2  A    between atoms: O_2  and  C_3
REMARK    3  A    between atoms: C_6  and  C_7
REMARK    4  A    between atoms: C_12  and  C_13
REMARK    5  A    between atoms: C_16  and  C_18
REMARK    6  A    between atoms: C_29  and  C_30
REMARK                            x       y       z     vdW  Elec       q    Type
REMARK                         _______ _______ _______ _____ _____    ______ ____
ROOT
ATOM      1  C   UNL     1       4.347   5.150  18.950  0.00  0.00    +0.000 C 
ATOM      2  C   UNL     1       5.844   4.902  19.233  0.00  0.00    +0.000 C 
ATOM      3  N   UNL     1       6.015   4.947  17.783  0.00  0.00    +0.000 N 
ATOM      4  C   UNL     1       7.139   4.536  17.100  0.00  0.00    +0.000 C 
ATOM      5  O   UNL     1       8.165   4.198  17.690  0.00  0.00    +0.000 OA
ATOM      6  C   UNL     1       4.625   4.545  17.552  0.00  0.00    +0.000 C 
ENDROOT
BRANCH   4   7
ATOM      7  C   UNL     1       7.079   4.572  15.649  0.00  0.00    +0.000 A 
ATOM      8  N   UNL     1       7.716   5.410  14.850  0.00  0.00    +0.000 NA
ATOM      9  C   UNL     1       7.426   4.993  13.571  0.00  0.00    +0.000 A 
ATOM     10  C   UNL     1       7.859   5.503  12.339  0.00  0.00    +0.000 A 
ATOM     11  C   UNL     1       7.403   4.894  11.163  0.00  0.00    +0.000 A 
ATOM     12  C   UNL     1       6.541   3.797  11.211  0.00  0.00    +0.000 A 
ATOM     13  C   UNL     1       6.107   3.266  12.432  0.00  0.00    +0.000 A 
ATOM     14  C   UNL     1       6.576   3.892  13.586  0.00  0.00    +0.000 A 
ATOM     15  N   UNL     1       6.378   3.641  14.919  0.00  0.00    +0.000 N 
ATOM     16  H   UNL     1       5.835   2.893  15.322  0.00  0.00    +0.000 HD
ENDBRANCH   4   7
BRANCH   1  22
ATOM     17  C   UNL     1       2.160   5.173  20.514  0.00  0.00    +0.000 A 
ATOM     18  N   UNL     1       1.299   4.486  21.323  0.00  0.00    +0.000 NA
ATOM     19  C   UNL     1       1.544   3.173  21.512  0.00  0.00    +0.000 A 
ATOM     20  C   UNL     1       2.606   2.536  20.912  0.00  0.00    +0.000 A 
ATOM     21  N   UNL     1       3.467   3.186  20.103  0.00  0.00    +0.000 NA
ATOM     22  C   UNL     1       3.252   4.519  19.891  0.00  0.00    +0.000 A 
BRANCH  17  26
ATOM     23  C   UNL     1       1.006   9.319  19.977  0.00  0.00    +0.000 A 
ATOM     24  C   UNL     1       0.785   8.660  21.190  0.00  0.00    +0.000 A 
ATOM     25  C   UNL     1       1.176   7.326  21.371  0.00  0.00    +0.000 A 
ATOM     26  C   UNL     1       1.818   6.609  20.349  0.00  0.00    +0.000 A 
ATOM     27  C   UNL     1       2.138   7.336  19.194  0.00  0.00    +0.000 A 
ATOM     28  C   UNL     1       1.728   8.668  18.973  0.00  0.00    +0.000 A 
ATOM     29  C   UNL     1       2.117   9.294  17.666  0.00  0.00    +0.000 C 
BRANCH  23  31
ATOM     30  C   UNL     1      -0.799  10.790  19.553  0.00  0.00    +0.000 C 
ATOM     31  O   UNL     1       0.558  10.611  19.944  0.00  0.00    +0.000 OA
ENDBRANCH  23  31
ENDBRANCH  17  26
ENDBRANCH   1  22
TORSDOF 4
ENDMDL
MODEL 4
REMARK VINA RESULT:      -8.7      1.114      1.380
REMARK  Name = 
REMARK  6 active torsions:
REMARK  status: ('A' for Active; 'I' for Inactive)
REMARK    1  A    between atoms: C_1  and  O_2
REMARK    2  A    between atoms: O_2  and  C_3
REMARK    3  A    between atoms: C_6  and  C_7
REMARK    4  A    between atoms: C_12  and  C_13
REMARK    5  A    between atoms: C_16  and  C_18
REMARK    6  A    between atoms: C_29  and  C_30
REMARK                            x       y       z     vdW  Elec       q    Type
REMARK                         _______ _______ _______ _____ _____    ______ ____
ROOT
ATOM      1  C   UNL     1       2.966   6.054  19.580  0.00  0.00    +0.000 C 
ATOM      2  C   UNL     1       2.990   6.992  18.353  0.00  0.00    +0.000 C 
ATOM      3  N   UNL     1       2.187   7.899  19.167  0.00  0.00    +0.000 N 
ATOM      4  C   UNL     1       1.500   8.997  18.693  0.00  0.00    +0.000 C 
ATOM      5  O   UNL     1       1.612   9.375  17.527  0.00  0.00    +0.000 OA
ATOM      6  C   UNL     1       1.669   6.799  19.984  0.00  0.00    +0.000 C 
ENDROOT
BRANCH   4   7
ATOM      7  C   UNL     1       0.678   9.723  19.646  0.00  0.00    +0.000 A 
ATOM      8  N   UNL     1       0.629   9.537  20.954  0.00  0.00    +0.000 NA
ATOM      9  C   UNL     1      -0.207  10.517  21.435  0.00  0.00    +0.000 A 
ATOM     10  C   UNL     1      -0.593  10.804  22.752  0.00  0.00    +0.000 A 
ATOM     11  C   UNL     1      -1.478  11.866  22.977  0.00  0.00    +0.000 A 
ATOM     12  C   UNL     1      -1.965  12.631  21.915  0.00  0.00    +0.000 A 
ATOM     13  C   UNL     1      -1.582  12.367  20.594  0.00  0.00    +0.000 A 
ATOM     14  C   UNL     1      -0.701  11.305  20.400  0.00  0.00    +0.000 A 
ATOM     15  N   UNL     1      -0.116  10.783  19.276  0.00  0.00    +0.000 N 
ATOM     16  H   UNL     1      -0.214  11.116  18.329  0.00  0.00    +0.000 HD
ENDBRANCH   4   7
BRANCH   1  22
ATOM     17  C   UNL     1       3.745   3.729  18.477  0.00  0.00    +0.000 A 
ATOM     18  N   UNL     1       3.611   2.370  18.406  0.00  0.00    +0.000 NA
ATOM     19  C   UNL     1       2.695   1.797  19.213  0.00  0.00    +0.000 A 
ATOM     20  C   UNL     1       1.929   2.535  20.086  0.00  0.00    +0.000 A 
ATOM     21  N   UNL     1       2.044   3.875  20.183  0.00  0.00    +0.000 NA
ATOM     22  C   UNL     1       2.960   4.491  19.377  0.00  0.00    +0.000 A 
BRANCH  17  26
ATOM     23  C   UNL     1       6.861   5.211  15.850  0.00  0.00    +0.000 A 
ATOM     24  C   UNL     1       5.865   4.353  15.375  0.00  0.00    +0.000 A 
ATOM     25  C   UNL     1       4.846   3.889  16.219  0.00  0.00    +0.000 A 
ATOM     26  C   UNL     1       4.777   4.282  17.565  0.00  0.00    +0.000 A 
ATOM     27  C   UNL     1       5.714   5.241  17.975  0.00  0.00    +0.000 A 
ATOM     28  C   UNL     1       6.770   5.699  17.157  0.00  0.00    +0.000 A 
ATOM     29  C   UNL     1       7.714   6.698  17.758  0.00  0.00    +0.000 C 
BRANCH  23  31
ATOM     30  C   UNL     1       7.516   5.179  13.577  0.00  0.00    +0.000 C 
ATOM     31  O   UNL     1       7.795   5.567  14.917  0.00  0.00    +0.000 OA
ENDBRANCH  23  31
ENDBRANCH  17  26
ENDBRANCH   1  22
TORSDOF 4
ENDMDL
MODEL 5
REMARK VINA RESULT:      -8.6      2.648      9.017
REMARK  Name = 
REMARK  6 active torsions:
REMARK  status: ('A' for Active; 'I' for Inactive)
REMARK    1  A    between atoms: C_1  and  O_2
REMARK    2  A    between atoms: O_2  and  C_3
REMARK    3  A    between atoms: C_6  and  C_7
REMARK    4  A    between atoms: C_12  and  C_13
REMARK    5  A    between atoms: C_16  and  C_18
REMARK    6  A    between atoms: C_29  and  C_30
REMARK                            x       y       z     vdW  Elec       q    Type
REMARK                         _______ _______ _______ _____ _____    ______ ____
ROOT
ATOM      1  C   UNL     1       4.398   5.140  18.973  0.00  0.00    +0.000 C 
ATOM      2  C   UNL     1       5.900   4.901  19.238  0.00  0.00    +0.000 C 
ATOM      3  N   UNL     1       6.051   4.938  17.786  0.00  0.00    +0.000 N 
ATOM      4  C   UNL     1       7.169   4.527  17.091  0.00  0.00    +0.000 C 
ATOM      5  O   UNL     1       8.204   4.198  17.671  0.00  0.00    +0.000 OA
ATOM      6  C   UNL     1       4.661   4.527  17.576  0.00  0.00    +0.000 C 
ENDROOT
BRANCH   4   7
ATOM      7  C   UNL     1       7.091   4.553  15.642  0.00  0.00    +0.000 A 
ATOM      8  N   UNL     1       7.728   5.376  14.827  0.00  0.00    +0.000 NA
ATOM      9  C   UNL     1       7.416   4.953  13.556  0.00  0.00    +0.000 A 
ATOM     10  C   UNL     1       7.839   5.448  12.314  0.00  0.00    +0.000 A 
ATOM     11  C   UNL     1       7.359   4.836  11.149  0.00  0.00    +0.000 A 
ATOM     12  C   UNL     1       6.482   3.751  11.217  0.00  0.00    +0.000 A 
ATOM     13  C   UNL     1       6.058   3.236  12.447  0.00  0.00    +0.000 A 
ATOM     14  C   UNL     1       6.550   3.864  13.590  0.00  0.00    +0.000 A 
ATOM     15  N   UNL     1       6.367   3.626  14.927  0.00  0.00    +0.000 N 
ATOM     16  H   UNL     1       5.820   2.888  15.344  0.00  0.00    +0.000 HD
ENDBRANCH   4   7
BRANCH   1  22
ATOM     17  C   UNL     1       2.192   5.147  20.510  0.00  0.00    +0.000 A 
ATOM     18  N   UNL     1       1.350   4.465  21.343  0.00  0.00    +0.000 NA
ATOM     19  C   UNL     1       1.648   3.175  21.600  0.00  0.00    +0.000 A 
ATOM     20  C   UNL     1       2.742   2.554  21.043  0.00  0.00    +0.000 A 
ATOM     21  N   UNL     1       3.586   3.200  20.212  0.00  0.00    +0.000 NA
ATOM     22  C   UNL     1       3.318   4.511  19.932  0.00  0.00    +0.000 A 
BRANCH  17  26
ATOM     23  C   UNL     1       1.181   9.316  19.871  0.00  0.00    +0.000 A 
ATOM     24  C   UNL     1       1.779   8.556  18.861  0.00  0.00    +0.000 A 
ATOM     25  C   UNL     1       2.088   7.203  19.060  0.00  0.00    +0.000 A 
ATOM     26  C   UNL     1       1.793   6.557  20.271  0.00  0.00    +0.000 A 
ATOM     27  C   UNL     1       1.081   7.312  21.214  0.00  0.00    +0.000 A 
ATOM     28  C   UNL     1       0.787   8.684  21.053  0.00  0.00    +0.000 A 
ATOM     29  C   UNL     1       0.051   9.360  22.172  0.00  0.00    +0.000 C 
BRANCH  23  31
ATOM     30  C   UNL     1      -0.071  10.851  18.576  0.00  0.00    +0.000 C 
ATOM     31  O   UNL     1       0.954  10.623  19.537  0.00  0.00    +0.000 OA
ENDBRANCH  23  31
ENDBRANCH  17  26
ENDBRANCH   1  22
TORSDOF 4
ENDMDL
MODEL 6
REMARK VINA RESULT:      -8.5      3.077      9.519
REMARK  Name = 
REMARK  6 active torsions:
REMARK  status: ('A' for Active; 'I' for Inactive)
REMARK    1  A    between atoms: C_1  and  O_2
REMARK    2  A    between atoms: O_2  and  C_3
REMARK    3  A    between atoms: C_6  and  C_7
REMARK    4  A    between atoms: C_12  and  C_13
REMARK    5  A    between atoms: C_16  and  C_18
REMARK    6  A    between atoms: C_29  and  C_30
REMARK                            x       y       z     vdW  Elec       q    Type
REMARK                         _______ _______ _______ _____ _____    ______ ____
ROOT
ATOM      1  C   UNL     1       0.744  10.377  18.712  0.00  0.00    +0.000 C 
ATOM      2  C   UNL     1       2.013  10.063  17.890  0.00  0.00    +0.000 C 
ATOM      3  N   UNL     1       1.818   8.681  18.318  0.00  0.00    +0.000 N 
ATOM      4  C   UNL     1       2.752   7.673  18.206  0.00  0.00    +0.000 C 
ATOM      5  O   UNL     1       3.814   7.841  17.608  0.00  0.00    +0.000 OA
ATOM      6  C   UNL     1       1.084   9.098  19.516  0.00  0.00    +0.000 C 
ENDROOT
BRANCH   4   7
ATOM      7  C   UNL     1       2.404   6.385  18.779  0.00  0.00    +0.000 A 
ATOM      8  N   UNL     1       1.967   5.319  18.128  0.00  0.00    +0.000 NA
ATOM      9  C   UNL     1       1.871   4.324  19.073  0.00  0.00    +0.000 A 
ATOM     10  C   UNL     1       1.485   2.983  18.930  0.00  0.00    +0.000 A 
ATOM     11  C   UNL     1       1.462   2.167  20.068  0.00  0.00    +0.000 A 
ATOM     12  C   UNL     1       1.819   2.671  21.321  0.00  0.00    +0.000 A 
ATOM     13  C   UNL     1       2.218   4.004  21.481  0.00  0.00    +0.000 A 
ATOM     14  C   UNL     1       2.232   4.793  20.332  0.00  0.00    +0.000 A 
ATOM     15  N   UNL     1       2.573   6.102  20.114  0.00  0.00    +0.000 N 
ATOM     16  H   UNL     1       2.918   6.762  20.796  0.00  0.00    +0.000 HD
ENDBRANCH   4   7
BRANCH   1  22
ATOM     17  C   UNL     1      -0.550  12.586  19.532  0.00  0.00    +0.000 A 
ATOM     18  N   UNL     1      -0.511  13.782  20.192  0.00  0.00    +0.000 NA
ATOM     19  C   UNL     1       0.669  14.150  20.733  0.00  0.00    +0.000 A 
ATOM     20  C   UNL     1       1.790  13.358  20.644  0.00  0.00    +0.000 A 
ATOM     21  N   UNL     1       1.779  12.170  20.007  0.00  0.00    +0.000 NA
ATOM     22  C   UNL     1       0.601  11.766  19.442  0.00  0.00    +0.000 A 
BRANCH  17  26
ATOM     23  C   UNL     1      -4.433  11.447  17.970  0.00  0.00    +0.000 A 
ATOM     24  C   UNL     1      -4.311  12.067  19.217  0.00  0.00    +0.000 A 
ATOM     25  C   UNL     1      -3.058  12.454  19.714  0.00  0.00    +0.000 A 
ATOM     26  C   UNL     1      -1.884  12.249  18.972  0.00  0.00    +0.000 A 
ATOM     27  C   UNL     1      -2.055  11.742  17.677  0.00  0.00    +0.000 A 
ATOM     28  C   UNL     1      -3.299  11.314  17.165  0.00  0.00    +0.000 A 
ATOM     29  C   UNL     1      -3.307  10.757  15.771  0.00  0.00    +0.000 C 
BRANCH  23  31
ATOM     30  C   UNL     1      -6.510  10.548  18.661  0.00  0.00    +0.000 C 
ATOM     31  O   UNL     1      -5.714  11.114  17.626  0.00  0.00    +0.000 OA
ENDBRANCH  23  31
ENDBRANCH  17  26
ENDBRANCH   1  22
TORSDOF 4
ENDMDL
MODEL 7
REMARK VINA RESULT:      -8.5      3.088      9.506
REMARK  Name = 
REMARK  6 active torsions:
REMARK  status: ('A' for Active; 'I' for Inactive)
REMARK    1  A    between atoms: C_1  and  O_2
REMARK    2  A    between atoms: O_2  and  C_3
REMARK    3  A    between atoms: C_6  and  C_7
REMARK    4  A    between atoms: C_12  and  C_13
REMARK    5  A    between atoms: C_16  and  C_18
REMARK    6  A    between atoms: C_29  and  C_30
REMARK                            x       y       z     vdW  Elec       q    Type
REMARK                         _______ _______ _______ _____ _____    ______ ____
ROOT
ATOM      1  C   UNL     1       0.724  10.281  18.745  0.00  0.00    +0.000 C 
ATOM      2  C   UNL     1       1.952  10.002  17.851  0.00  0.00    +0.000 C 
ATOM      3  N   UNL     1       1.833   8.620  18.306  0.00  0.00    +0.000 N 
ATOM      4  C   UNL     1       2.794   7.644  18.149  0.00  0.00    +0.000 C 
ATOM      5  O   UNL     1       3.812   7.842  17.486  0.00  0.00    +0.000 OA
ATOM      6  C   UNL     1       1.157   9.026  19.541  0.00  0.00    +0.000 C 
ENDROOT
BRANCH   4   7
ATOM      7  C   UNL     1       2.527   6.352  18.756  0.00  0.00    +0.000 A 
ATOM      8  N   UNL     1       2.599   6.048  20.041  0.00  0.00    +0.000 NA
ATOM      9  C   UNL     1       2.164   4.746  20.137  0.00  0.00    +0.000 A 
ATOM     10  C   UNL     1       2.010   3.931  21.267  0.00  0.00    +0.000 A 
ATOM     11  C   UNL     1       1.553   2.619  21.091  0.00  0.00    +0.000 A 
ATOM     12  C   UNL     1       1.250   2.129  19.819  0.00  0.00    +0.000 A 
ATOM     13  C   UNL     1       1.386   2.932  18.680  0.00  0.00    +0.000 A 
ATOM     14  C   UNL     1       1.843   4.233  18.884  0.00  0.00    +0.000 A 
ATOM     15  N   UNL     1       2.076   5.276  18.027  0.00  0.00    +0.000 N 
ATOM     16  H   UNL     1       1.925   5.288  17.029  0.00  0.00    +0.000 HD
ENDBRANCH   4   7
BRANCH   1  22
ATOM     17  C   UNL     1      -0.570  12.507  19.520  0.00  0.00    +0.000 A 
ATOM     18  N   UNL     1      -0.537  13.705  20.177  0.00  0.00    +0.000 NA
ATOM     19  C   UNL     1       0.630  14.060  20.753  0.00  0.00    +0.000 A 
ATOM     20  C   UNL     1       1.744  13.255  20.701  0.00  0.00    +0.000 A 
ATOM     21  N   UNL     1       1.739  12.066  20.066  0.00  0.00    +0.000 NA
ATOM     22  C   UNL     1       0.575  11.674  19.467  0.00  0.00    +0.000 A 
BRANCH  17  26
ATOM     23  C   UNL     1      -4.412  11.406  17.835  0.00  0.00    +0.000 A 
ATOM     24  C   UNL     1      -4.320  11.982  19.106  0.00  0.00    +0.000 A 
ATOM     25  C   UNL     1      -3.080  12.357  19.643  0.00  0.00    +0.000 A 
ATOM     26  C   UNL     1      -1.889  12.184  18.920  0.00  0.00    +0.000 A 
ATOM     27  C   UNL     1      -2.030  11.723  17.604  0.00  0.00    +0.000 A 
ATOM     28  C   UNL     1      -3.260  11.307  17.050  0.00  0.00    +0.000 A 
ATOM     29  C   UNL     1      -3.237  10.800  15.638  0.00  0.00    +0.000 C 
BRANCH  23  31
ATOM     30  C   UNL     1      -6.615  10.861  18.506  0.00  0.00    +0.000 C 
ATOM     31  O   UNL     1      -5.683  11.079  17.453  0.00  0.00    +0.000 OA
ENDBRANCH  23  31
ENDBRANCH  17  26
ENDBRANCH   1  22
TORSDOF 4
ENDMDL
MODEL 8
REMARK VINA RESULT:      -8.5      1.196      1.943
REMARK  Name = 
REMARK  6 active torsions:
REMARK  status: ('A' for Active; 'I' for Inactive)
REMARK    1  A    between atoms: C_1  and  O_2
REMARK    2  A    between atoms: O_2  and  C_3
REMARK    3  A    between atoms: C_6  and  C_7
REMARK    4  A    between atoms: C_12  and  C_13
REMARK    5  A    between atoms: C_16  and  C_18
REMARK    6  A    between atoms: C_29  and  C_30
REMARK                            x       y       z     vdW  Elec       q    Type
REMARK                         _______ _______ _______ _____ _____    ______ ____
ROOT
ATOM      1  C   UNL     1       2.192   6.460  20.318  0.00  0.00    +0.000 C 
ATOM      2  C   UNL     1       2.487   7.475  19.192  0.00  0.00    +0.000 C 
ATOM      3  N   UNL     1       1.583   8.369  19.907  0.00  0.00    +0.000 N 
ATOM      4  C   UNL     1       1.044   9.532  19.398  0.00  0.00    +0.000 C 
ATOM      5  O   UNL     1       1.392   9.979  18.306  0.00  0.00    +0.000 OA
ATOM      6  C   UNL     1       0.874   7.247  20.528  0.00  0.00    +0.000 C 
ENDROOT
BRANCH   4   7
ATOM      7  C   UNL     1       0.088  10.237  20.233  0.00  0.00    +0.000 A 
ATOM      8  N   UNL     1       0.024  10.220  21.554  0.00  0.00    +0.000 NA
ATOM      9  C   UNL     1      -0.971  11.110  21.886  0.00  0.00    +0.000 A 
ATOM     10  C   UNL     1      -1.441  11.502  23.148  0.00  0.00    +0.000 A 
ATOM     11  C   UNL     1      -2.488  12.431  23.215  0.00  0.00    +0.000 A 
ATOM     12  C   UNL     1      -3.052  12.961  22.053  0.00  0.00    +0.000 A 
ATOM     13  C   UNL     1      -2.588  12.590  20.785  0.00  0.00    +0.000 A 
ATOM     14  C   UNL     1      -1.546  11.665  20.748  0.00  0.00    +0.000 A 
ATOM     15  N   UNL     1      -0.849  11.099  19.713  0.00  0.00    +0.000 N 
ATOM     16  H   UNL     1      -0.966  11.285  18.728  0.00  0.00    +0.000 HD
ENDBRANCH   4   7
BRANCH   1  22
ATOM     17  C   UNL     1       3.064   4.175  19.201  0.00  0.00    +0.000 A 
ATOM     18  N   UNL     1       2.890   2.834  19.005  0.00  0.00    +0.000 NA
ATOM     19  C   UNL     1       1.819   2.258  19.589  0.00  0.00    +0.000 A 
ATOM     20  C   UNL     1       0.937   2.977  20.363  0.00  0.00    +0.000 A 
ATOM     21  N   UNL     1       1.087   4.299  20.579  0.00  0.00    +0.000 NA
ATOM     22  C   UNL     1       2.159   4.917  20.000  0.00  0.00    +0.000 A 
BRANCH  17  26
ATOM     23  C   UNL     1       6.512   5.960  17.267  0.00  0.00    +0.000 A 
ATOM     24  C   UNL     1       6.476   5.778  18.654  0.00  0.00    +0.000 A 
ATOM     25  C   UNL     1       5.370   5.183  19.277  0.00  0.00    +0.000 A 
ATOM     26  C   UNL     1       4.268   4.732  18.534  0.00  0.00    +0.000 A 
ATOM     27  C   UNL     1       4.391   4.814  17.140  0.00  0.00    +0.000 A 
ATOM     28  C   UNL     1       5.476   5.437  16.488  0.00  0.00    +0.000 A 
ATOM     29  C   UNL     1       5.440   5.477  14.988  0.00  0.00    +0.000 C 
BRANCH  23  31
ATOM     30  C   UNL     1       7.936   7.847  17.354  0.00  0.00    +0.000 C 
ATOM     31  O   UNL     1       7.647   6.566  16.805  0.00  0.00    +0.000 OA
ENDBRANCH  23  31
ENDBRANCH  17  26
ENDBRANCH   1  22
TORSDOF 4
ENDMDL
MODEL 9
REMARK VINA RESULT:      -8.4      1.211      1.851
REMARK  Name = 
REMARK  6 active torsions:
REMARK  status: ('A' for Active; 'I' for Inactive)
REMARK    1  A    between atoms: C_1  and  O_2
REMARK    2  A    between atoms: O_2  and  C_3
REMARK    3  A    between atoms: C_6  and  C_7
REMARK    4  A    between atoms: C_12  and  C_13
REMARK    5  A    between atoms: C_16  and  C_18
REMARK    6  A    between atoms: C_29  and  C_30
REMARK                            x       y       z     vdW  Elec       q    Type
REMARK                         _______ _______ _______ _____ _____    ______ ____
ROOT
ATOM      1  C   UNL     1       2.184   6.657  20.264  0.00  0.00    +0.000 C 
ATOM      2  C   UNL     1       2.471   7.617  19.089  0.00  0.00    +0.000 C 
ATOM      3  N   UNL     1       1.585   8.551  19.778  0.00  0.00    +0.000 N 
ATOM      4  C   UNL     1       1.048   9.695  19.225  0.00  0.00    +0.000 C 
ATOM      5  O   UNL     1       1.383  10.089  18.109  0.00  0.00    +0.000 OA
ATOM      6  C   UNL     1       0.877   7.464  20.459  0.00  0.00    +0.000 C 
ENDROOT
BRANCH   4   7
ATOM      7  C   UNL     1       0.111  10.445  20.042  0.00  0.00    +0.000 A 
ATOM      8  N   UNL     1      -0.842  11.256  19.615  0.00  0.00    +0.000 NA
ATOM      9  C   UNL     1      -1.524  11.650  20.743  0.00  0.00    +0.000 A 
ATOM     10  C   UNL     1      -2.642  12.486  20.871  0.00  0.00    +0.000 A 
ATOM     11  C   UNL     1      -3.146  12.742  22.153  0.00  0.00    +0.000 A 
ATOM     12  C   UNL     1      -2.554  12.174  23.282  0.00  0.00    +0.000 A 
ATOM     13  C   UNL     1      -1.444  11.328  23.174  0.00  0.00    +0.000 A 
ATOM     14  C   UNL     1      -0.963  11.091  21.887  0.00  0.00    +0.000 A 
ATOM     15  N   UNL     1       0.068  10.324  21.412  0.00  0.00    +0.000 N 
ATOM     16  H   UNL     1       0.690   9.741  21.951  0.00  0.00    +0.000 HD
ENDBRANCH   4   7
BRANCH   1  22
ATOM     17  C   UNL     1       3.033   4.313  19.259  0.00  0.00    +0.000 A 
ATOM     18  N   UNL     1       2.844   2.966  19.122  0.00  0.00    +0.000 NA
ATOM     19  C   UNL     1       1.762   2.431  19.724  0.00  0.00    +0.000 A 
ATOM     20  C   UNL     1       0.884   3.195  20.458  0.00  0.00    +0.000 A 
ATOM     21  N   UNL     1       1.050   4.524  20.616  0.00  0.00    +0.000 NA
ATOM     22  C   UNL     1       2.134   5.102  20.017  0.00  0.00    +0.000 A 
BRANCH  17  26
ATOM     23  C   UNL     1       6.522   5.964  17.281  0.00  0.00    +0.000 A 
ATOM     24  C   UNL     1       6.504   5.767  18.666  0.00  0.00    +0.000 A 
ATOM     25  C   UNL     1       5.384   5.214  19.303  0.00  0.00    +0.000 A 
ATOM     26  C   UNL     1       4.249   4.823  18.575  0.00  0.00    +0.000 A 
ATOM     27  C   UNL     1       4.350   4.917  17.180  0.00  0.00    +0.000 A 
ATOM     28  C   UNL     1       5.450   5.499  16.515  0.00  0.00    +0.000 A 
ATOM     29  C   UNL     1       5.388   5.560  15.017  0.00  0.00    +0.000 C 
BRANCH  23  31
ATOM     30  C   UNL     1       8.001   7.811  17.320  0.00  0.00    +0.000 C 
ATOM     31  O   UNL     1       7.675   6.525  16.805  0.00  0.00    +0.000 OA
ENDBRANCH  23  31
ENDBRANCH  17  26
ENDBRANCH   1  22
TORSDOF 4
ENDMDL
