MODEL 1
REMARK VINA RESULT:      -5.5      0.000      0.000
REMARK  Name = 
REMARK  2 active torsions:
REMARK  status: ('A' for Active; 'I' for Inactive)
REMARK    1  A    between atoms: N_1  and  N_2
REMARK    2  A    between atoms: C_3  and  C_5
REMARK                            x       y       z     vdW  Elec       q    Type
REMARK                         _______ _______ _______ _____ _____    ______ ____
ROOT
ATOM      1  N   UNL     1       7.506   5.057  19.341  0.00  0.00    +0.000 N 
ATOM      2  C   UNL     1       7.506   5.903  18.230  0.00  0.00    +0.000 C 
ATOM      3  O   UNL     1       7.922   7.058  18.256  0.00  0.00    +0.000 OA
ATOM      4  H   UNL     1       7.213   4.089  19.198  0.00  0.00    +0.000 HD
ENDROOT
BRANCH   2   5
ATOM      5  C   UNL     1       6.915   5.258  16.992  0.00  0.00    +0.000 A 
ATOM      6  N   UNL     1       5.815   4.486  17.187  0.00  0.00    +0.000 NA
ATOM      7  C   UNL     1       5.276   3.955  16.076  0.00  0.00    +0.000 A 
ATOM      8  C   UNL     1       5.787   4.149  14.812  0.00  0.00    +0.000 A 
ATOM      9  C   UNL     1       6.914   4.937  14.733  0.00  0.00    +0.000 A 
ATOM     10  N   UNL     1       7.497   5.511  15.803  0.00  0.00    +0.000 NA
ENDBRANCH   2   5
BRANCH   1  11
ATOM     11  N   UNL     1       8.133   5.456  20.538  0.00  0.00    +0.000 NA
ATOM     12  H   UNL     1       8.820   4.750  20.806  0.00  0.00    +0.000 HD
ATOM     13  H   UNL     1       7.416   5.441  21.273  0.00  0.00    +0.000 HD
ENDBRANCH   1  11
TORSDOF 2
ENDMDL
MODEL 2
REMARK VINA RESULT:      -5.5      1.150      1.156
REMARK  Name = 
REMARK  2 active torsions:
REMARK  status: ('A' for Active; 'I' for Inactive)
REMARK    1  A    between atoms: N_1  and  N_2
REMARK    2  A    between atoms: C_3  and  C_5
REMARK                            x       y       z     vdW  Elec       q    Type
REMARK                         _______ _______ _______ _____ _____    ______ ____
ROOT
ATOM      1  N   UNL     1       7.470   5.224  19.664  0.00  0.00    +0.000 N 
ATOM      2  C   UNL     1       7.676   6.155  18.644  0.00  0.00    +0.000 C 
ATOM      3  O   UNL     1       8.352   7.171  18.779  0.00  0.00    +0.000 OA
ATOM      4  H   UNL     1       6.957   4.371  19.430  0.00  0.00    +0.000 HD
ENDROOT
BRANCH   2   5
ATOM      5  C   UNL     1       6.957   5.797  17.359  0.00  0.00    +0.000 A 
ATOM      6  N   UNL     1       5.818   6.489  17.097  0.00  0.00    +0.000 NA
ATOM      7  C   UNL     1       5.215   6.191  15.934  0.00  0.00    +0.000 A 
ATOM      8  C   UNL     1       5.684   5.245  15.051  0.00  0.00    +0.000 A 
ATOM      9  C   UNL     1       6.838   4.594  15.425  0.00  0.00    +0.000 A 
ATOM     10  N   UNL     1       7.501   4.851  16.567  0.00  0.00    +0.000 NA
ENDBRANCH   2   5
BRANCH   1  11
ATOM     11  N   UNL     1       8.166   5.339  20.884  0.00  0.00    +0.000 NA
ATOM     12  H   UNL     1       7.598   5.874  21.543  0.00  0.00    +0.000 HD
ATOM     13  H   UNL     1       8.998   5.911  20.704  0.00  0.00    +0.000 HD
ENDBRANCH   1  11
TORSDOF 2
ENDMDL
MODEL 3
REMARK VINA RESULT:      -5.4      0.221      1.499
REMARK  Name = 
REMARK  2 active torsions:
REMARK  status: ('A' for Active; 'I' for Inactive)
REMARK    1  A    between atoms: N_1  and  N_2
REMARK    2  A    between atoms: C_3  and  C_5
REMARK                            x       y       z     vdW  Elec       q    Type
REMARK                         _______ _______ _______ _____ _____    ______ ____
ROOT
ATOM      1  N   UNL     1       7.490   5.099  19.312  0.00  0.00    +0.000 N 
ATOM      2  C   UNL     1       7.463   5.985  18.233  0.00  0.00    +0.000 C 
ATOM      3  O   UNL     1       7.910   7.127  18.282  0.00  0.00    +0.000 OA
ATOM      4  H   UNL     1       7.166   4.143  19.148  0.00  0.00    +0.000 HD
ENDROOT
BRANCH   2   5
ATOM      5  C   UNL     1       6.802   5.400  17.001  0.00  0.00    +0.000 A 
ATOM      6  N   UNL     1       7.523   5.454  15.852  0.00  0.00    +0.000 NA
ATOM      7  C   UNL     1       6.943   4.893  14.777  0.00  0.00    +0.000 A 
ATOM      8  C   UNL     1       5.697   4.308  14.801  0.00  0.00    +0.000 A 
ATOM      9  C   UNL     1       5.048   4.323  16.016  0.00  0.00    +0.000 A 
ATOM     10  N   UNL     1       5.576   4.855  17.135  0.00  0.00    +0.000 NA
ENDBRANCH   2   5
BRANCH   1  11
ATOM     11  N   UNL     1       8.180   5.437  20.493  0.00  0.00    +0.000 NA
ATOM     12  H   UNL     1       9.174   5.246  20.366  0.00  0.00    +0.000 HD
ATOM     13  H   UNL     1       7.862   4.790  21.224  0.00  0.00    +0.000 HD
ENDBRANCH   1  11
TORSDOF 2
ENDMDL
MODEL 4
REMARK VINA RESULT:      -5.2      2.374      4.349
REMARK  Name = 
REMARK  2 active torsions:
REMARK  status: ('A' for Active; 'I' for Inactive)
REMARK    1  A    between atoms: N_1  and  N_2
REMARK    2  A    between atoms: C_3  and  C_5
REMARK                            x       y       z     vdW  Elec       q    Type
REMARK                         _______ _______ _______ _____ _____    ______ ____
ROOT
ATOM      1  N   UNL     1       6.325   3.661  14.249  0.00  0.00    +0.000 N 
ATOM      2  C   UNL     1       7.047   4.793  14.632  0.00  0.00    +0.000 C 
ATOM      3  O   UNL     1       7.735   5.452  13.858  0.00  0.00    +0.000 OA
ATOM      4  H   UNL     1       5.719   3.227  14.949  0.00  0.00    +0.000 HD
ENDROOT
BRANCH   2   5
ATOM      5  C   UNL     1       6.916   5.110  16.108  0.00  0.00    +0.000 A 
ATOM      6  N   UNL     1       7.495   6.265  16.525  0.00  0.00    +0.000 NA
ATOM      7  C   UNL     1       7.334   6.556  17.828  0.00  0.00    +0.000 A 
ATOM      8  C   UNL     1       6.645   5.752  18.709  0.00  0.00    +0.000 A 
ATOM      9  C   UNL     1       6.112   4.598  18.181  0.00  0.00    +0.000 A 
ATOM     10  N   UNL     1       6.224   4.253  16.884  0.00  0.00    +0.000 NA
ENDBRANCH   2   5
BRANCH   1  11
ATOM     11  N   UNL     1       6.237   3.298  12.890  0.00  0.00    +0.000 NA
ATOM     12  H   UNL     1       6.006   4.126  12.339  0.00  0.00    +0.000 HD
ATOM     13  H   UNL     1       5.434   2.667  12.798  0.00  0.00    +0.000 HD
ENDBRANCH   1  11
TORSDOF 2
ENDMDL
MODEL 5
REMARK VINA RESULT:      -5.2      2.471      4.180
REMARK  Name = 
REMARK  2 active torsions:
REMARK  status: ('A' for Active; 'I' for Inactive)
REMARK    1  A    between atoms: N_1  and  N_2
REMARK    2  A    between atoms: C_3  and  C_5
REMARK                            x       y       z     vdW  Elec       q    Type
REMARK                         _______ _______ _______ _____ _____    ______ ____
ROOT
ATOM      1  N   UNL     1       6.333   3.584  14.147  0.00  0.00    +0.000 N 
ATOM      2  C   UNL     1       6.990   4.773  14.468  0.00  0.00    +0.000 C 
ATOM      3  O   UNL     1       7.621   5.441  13.654  0.00  0.00    +0.000 OA
ATOM      4  H   UNL     1       5.768   3.143  14.876  0.00  0.00    +0.000 HD
ENDROOT
BRANCH   2   5
ATOM      5  C   UNL     1       6.866   5.143  15.933  0.00  0.00    +0.000 A 
ATOM      6  N   UNL     1       6.191   4.264  16.717  0.00  0.00    +0.000 NA
ATOM      7  C   UNL     1       6.126   4.583  18.021  0.00  0.00    +0.000 A 
ATOM      8  C   UNL     1       6.682   5.723  18.556  0.00  0.00    +0.000 A 
ATOM      9  C   UNL     1       7.330   6.551  17.667  0.00  0.00    +0.000 A 
ATOM     10  N   UNL     1       7.445   6.286  16.352  0.00  0.00    +0.000 NA
ENDBRANCH   2   5
BRANCH   1  11
ATOM     11  N   UNL     1       6.243   3.161  12.806  0.00  0.00    +0.000 NA
ATOM     12  H   UNL     1       5.517   3.701  12.333  0.00  0.00    +0.000 HD
ATOM     13  H   UNL     1       5.907   2.191  12.817  0.00  0.00    +0.000 HD
ENDBRANCH   1  11
TORSDOF 2
ENDMDL
MODEL 6
REMARK VINA RESULT:      -5.2      1.193      1.902
REMARK  Name = 
REMARK  2 active torsions:
REMARK  status: ('A' for Active; 'I' for Inactive)
REMARK    1  A    between atoms: N_1  and  N_2
REMARK    2  A    between atoms: C_3  and  C_5
REMARK                            x       y       z     vdW  Elec       q    Type
REMARK                         _______ _______ _______ _____ _____    ______ ____
ROOT
ATOM      1  N   UNL     1       7.279   5.398  19.046  0.00  0.00    +0.000 N 
ATOM      2  C   UNL     1       7.800   4.607  18.021  0.00  0.00    +0.000 C 
ATOM      3  O   UNL     1       8.867   4.005  18.103  0.00  0.00    +0.000 OA
ATOM      4  H   UNL     1       6.346   5.793  18.911  0.00  0.00    +0.000 HD
ENDROOT
BRANCH   2   5
ATOM      5  C   UNL     1       6.925   4.587  16.783  0.00  0.00    +0.000 A 
ATOM      6  N   UNL     1       7.548   4.851  15.606  0.00  0.00    +0.000 NA
ATOM      7  C   UNL     1       6.769   4.788  14.512  0.00  0.00    +0.000 A 
ATOM      8  C   UNL     1       5.426   4.491  14.548  0.00  0.00    +0.000 A 
ATOM      9  C   UNL     1       4.895   4.254  15.797  0.00  0.00    +0.000 A 
ATOM     10  N   UNL     1       5.619   4.288  16.931  0.00  0.00    +0.000 NA
ENDBRANCH   2   5
BRANCH   1  11
ATOM     11  N   UNL     1       7.902   5.427  20.310  0.00  0.00    +0.000 NA
ATOM     12  H   UNL     1       8.377   4.537  20.467  0.00  0.00    +0.000 HD
ATOM     13  H   UNL     1       7.157   5.475  21.013  0.00  0.00    +0.000 HD
ENDBRANCH   1  11
TORSDOF 2
ENDMDL
MODEL 7
REMARK VINA RESULT:      -5.1      1.805      2.947
REMARK  Name = 
REMARK  2 active torsions:
REMARK  status: ('A' for Active; 'I' for Inactive)
REMARK    1  A    between atoms: N_1  and  N_2
REMARK    2  A    between atoms: C_3  and  C_5
REMARK                            x       y       z     vdW  Elec       q    Type
REMARK                         _______ _______ _______ _____ _____    ______ ____
ROOT
ATOM      1  N   UNL     1       6.258   4.043  17.007  0.00  0.00    +0.000 N 
ATOM      2  C   UNL     1       6.957   5.009  16.280  0.00  0.00    +0.000 C 
ATOM      3  O   UNL     1       7.499   5.984  16.794  0.00  0.00    +0.000 OA
ATOM      4  H   UNL     1       5.911   3.227  16.498  0.00  0.00    +0.000 HD
ENDROOT
BRANCH   2   5
ATOM      5  C   UNL     1       6.958   4.745  14.788  0.00  0.00    +0.000 A 
ATOM      6  N   UNL     1       7.827   5.483  14.050  0.00  0.00    +0.000 NA
ATOM      7  C   UNL     1       7.847   5.208  12.734  0.00  0.00    +0.000 A 
ATOM      8  C   UNL     1       7.046   4.259  12.141  0.00  0.00    +0.000 A 
ATOM      9  C   UNL     1       6.192   3.581  12.982  0.00  0.00    +0.000 A 
ATOM     10  N   UNL     1       6.129   3.795  14.309  0.00  0.00    +0.000 NA
ENDBRANCH   2   5
BRANCH   1  11
ATOM     11  N   UNL     1       6.265   4.068  18.416  0.00  0.00    +0.000 NA
ATOM     12  H   UNL     1       6.422   3.122  18.765  0.00  0.00    +0.000 HD
ATOM     13  H   UNL     1       5.319   4.326  18.718  0.00  0.00    +0.000 HD
ENDBRANCH   1  11
TORSDOF 2
ENDMDL
MODEL 8
REMARK VINA RESULT:      -5.1      1.214      1.214
REMARK  Name = 
REMARK  2 active torsions:
REMARK  status: ('A' for Active; 'I' for Inactive)
REMARK    1  A    between atoms: N_1  and  N_2
REMARK    2  A    between atoms: C_3  and  C_5
REMARK                            x       y       z     vdW  Elec       q    Type
REMARK                         _______ _______ _______ _____ _____    ______ ____
ROOT
ATOM      1  N   UNL     1       7.850   5.018  19.277  0.00  0.00    +0.000 N 
ATOM      2  C   UNL     1       6.525   5.117  18.849  0.00  0.00    +0.000 C 
ATOM      3  O   UNL     1       5.590   5.389  19.597  0.00  0.00    +0.000 OA
ATOM      4  H   UNL     1       8.567   4.866  18.564  0.00  0.00    +0.000 HD
ENDROOT
BRANCH   2   5
ATOM      5  C   UNL     1       6.354   4.830  17.371  0.00  0.00    +0.000 A 
ATOM      6  N   UNL     1       5.142   4.351  16.991  0.00  0.00    +0.000 NA
ATOM      7  C   UNL     1       4.990   4.141  15.672  0.00  0.00    +0.000 A 
ATOM      8  C   UNL     1       5.981   4.372  14.744  0.00  0.00    +0.000 A 
ATOM      9  C   UNL     1       7.175   4.844  15.243  0.00  0.00    +0.000 A 
ATOM     10  N   UNL     1       7.390   5.089  16.548  0.00  0.00    +0.000 NA
ENDBRANCH   2   5
BRANCH   1  11
ATOM     11  N   UNL     1       8.202   5.376  20.593  0.00  0.00    +0.000 NA
ATOM     12  H   UNL     1       7.811   6.295  20.805  0.00  0.00    +0.000 HD
ATOM     13  H   UNL     1       9.222   5.495  20.612  0.00  0.00    +0.000 HD
ENDBRANCH   1  11
TORSDOF 2
ENDMDL
MODEL 9
REMARK VINA RESULT:      -5.1      1.250      1.867
REMARK  Name = 
REMARK  2 active torsions:
REMARK  status: ('A' for Active; 'I' for Inactive)
REMARK    1  A    between atoms: N_1  and  N_2
REMARK    2  A    between atoms: C_3  and  C_5
REMARK                            x       y       z     vdW  Elec       q    Type
REMARK                         _______ _______ _______ _____ _____    ______ ____
ROOT
ATOM      1  N   UNL     1       7.815   5.065  19.255  0.00  0.00    +0.000 N 
ATOM      2  C   UNL     1       6.478   5.138  18.861  0.00  0.00    +0.000 C 
ATOM      3  O   UNL     1       5.553   5.362  19.637  0.00  0.00    +0.000 OA
ATOM      4  H   UNL     1       8.519   4.954  18.522  0.00  0.00    +0.000 HD
ENDROOT
BRANCH   2   5
ATOM      5  C   UNL     1       6.281   4.887  17.380  0.00  0.00    +0.000 A 
ATOM      6  N   UNL     1       7.376   5.048  16.594  0.00  0.00    +0.000 NA
ATOM      7  C   UNL     1       7.198   4.781  15.289  0.00  0.00    +0.000 A 
ATOM      8  C   UNL     1       5.996   4.381  14.750  0.00  0.00    +0.000 A 
ATOM      9  C   UNL     1       4.948   4.264  15.636  0.00  0.00    +0.000 A 
ATOM     10  N   UNL     1       5.060   4.503  16.956  0.00  0.00    +0.000 NA
ENDBRANCH   2   5
BRANCH   1  11
ATOM     11  N   UNL     1       8.188   5.396  20.573  0.00  0.00    +0.000 NA
ATOM     12  H   UNL     1       8.377   4.537  21.092  0.00  0.00    +0.000 HD
ATOM     13  H   UNL     1       7.368   5.819  21.021  0.00  0.00    +0.000 HD
ENDBRANCH   1  11
TORSDOF 2
ENDMDL
