MODEL 1
REMARK VINA RESULT:      -8.5      0.000      0.000
REMARK  Name = 
REMARK  8 active torsions:
REMARK  status: ('A' for Active; 'I' for Inactive)
REMARK    1  A    between atoms: C_1  and  O_2
REMARK    2  A    between atoms: O_2  and  C_3
REMARK    3  A    between atoms: C_3  and  C_5
REMARK    4  A    between atoms: C_8  and  C_9
REMARK    5  A    between atoms: C_9  and  O_10
REMARK    6  A    between atoms: O_10  and  C_11
REMARK    7  A    between atoms: C_14  and  C_15
REMARK    8  A    between atoms: C_24  and  N_25
REMARK                            x       y       z     vdW  Elec       q    Type
REMARK                         _______ _______ _______ _____ _____    ______ ____
ROOT
ATOM      1  C   UNL     1       6.036   6.778  17.141  0.00  0.00    +0.000 A 
ATOM      2  C   UNL     1       4.792   7.318  17.499  0.00  0.00    +0.000 A 
ATOM      3  C   UNL     1       3.667   6.500  17.672  0.00  0.00    +0.000 A 
ATOM      4  C   UNL     1       3.761   5.119  17.479  0.00  0.00    +0.000 A 
ATOM      5  C   UNL     1       4.986   4.561  17.118  0.00  0.00    +0.000 A 
ATOM      6  C   UNL     1       6.112   5.391  16.978  0.00  0.00    +0.000 A 
ENDROOT
BRANCH   4   7
ATOM      7  C   UNL     1       2.595   4.266  17.706  0.00  0.00    +0.000 C 
ATOM      8  C   UNL     1       2.175   3.826  18.898  0.00  0.00    +0.000 C 
ATOM      9  S   UNL     1       2.848   4.149  20.450  0.00  0.00    +0.000 S 
ATOM     10  C   UNL     1       1.693   3.101  21.252  0.00  0.00    +0.000 C 
ATOM     11  O   UNL     1       1.677   2.885  22.451  0.00  0.00    +0.000 OA
ATOM     12  N   UNL     1       0.838   2.573  20.338  0.00  0.00    +0.000 N 
ATOM     13  C   UNL     1       1.012   2.909  19.030  0.00  0.00    +0.000 C 
ATOM     14  O   UNL     1       0.325   2.505  18.108  0.00  0.00    +0.000 OA
ATOM     15  H   UNL     1       0.111   1.937  20.621  0.00  0.00    +0.000 HD
ENDBRANCH   4   7
BRANCH   6  16
ATOM     16  N   UNL     1       7.366   4.711  16.746  0.00  0.00    +0.000 N 
ATOM     17  O   UNL     1       7.974   4.280  17.734  0.00  0.00    +0.000 OA
ATOM     18  O   UNL     1       7.745   4.622  15.571  0.00  0.00    +0.000 OA
ENDBRANCH   6  16
BRANCH   1  19
ATOM     19  O   UNL     1       7.020   7.719  17.055  0.00  0.00    +0.000 OA
BRANCH  19  20
ATOM     20  C   UNL     1       7.999   7.805  18.091  0.00  0.00    +0.000 C 
BRANCH  20  24
ATOM     21  C   UNL     1       9.152  11.921  18.674  0.00  0.00    +0.000 A 
ATOM     22  C   UNL     1       8.326  11.565  17.598  0.00  0.00    +0.000 A 
ATOM     23  C   UNL     1       7.961  10.234  17.398  0.00  0.00    +0.000 A 
ATOM     24  C   UNL     1       8.418   9.243  18.269  0.00  0.00    +0.000 A 
ATOM     25  C   UNL     1       9.255   9.597  19.339  0.00  0.00    +0.000 A 
ATOM     26  C   UNL     1       9.623  10.926  19.540  0.00  0.00    +0.000 A 
BRANCH  21  27
ATOM     27  C   UNL     1       9.474  13.356  18.863  0.00  0.00    +0.000 C 
ATOM     28  O   UNL     1       9.088  14.235  18.109  0.00  0.00    +0.000 OA
BRANCH  27  30
ATOM     29  C   UNL     1      11.547  14.007  19.709  0.00  0.00    +0.000 C 
ATOM     30  O   UNL     1      10.224  13.543  19.978  0.00  0.00    +0.000 OA
ENDBRANCH  27  30
ENDBRANCH  21  27
ENDBRANCH  20  24
ENDBRANCH  19  20
ENDBRANCH   1  19
TORSDOF 7
ENDMDL
MODEL 2
REMARK VINA RESULT:      -8.4      0.698      1.424
REMARK  Name = 
REMARK  8 active torsions:
REMARK  status: ('A' for Active; 'I' for Inactive)
REMARK    1  A    between atoms: C_1  and  O_2
REMARK    2  A    between atoms: O_2  and  C_3
REMARK    3  A    between atoms: C_3  and  C_5
REMARK    4  A    between atoms: C_8  and  C_9
REMARK    5  A    between atoms: C_9  and  O_10
REMARK    6  A    between atoms: O_10  and  C_11
REMARK    7  A    between atoms: C_14  and  C_15
REMARK    8  A    between atoms: C_24  and  N_25
REMARK                            x       y       z     vdW  Elec       q    Type
REMARK                         _______ _______ _______ _____ _____    ______ ____
ROOT
ATOM      1  C   UNL     1       6.270   6.750  17.262  0.00  0.00    +0.000 A 
ATOM      2  C   UNL     1       5.004   7.351  17.322  0.00  0.00    +0.000 A 
ATOM      3  C   UNL     1       3.841   6.583  17.471  0.00  0.00    +0.000 A 
ATOM      4  C   UNL     1       3.920   5.190  17.554  0.00  0.00    +0.000 A 
ATOM      5  C   UNL     1       5.167   4.571  17.492  0.00  0.00    +0.000 A 
ATOM      6  C   UNL     1       6.326   5.357  17.372  0.00  0.00    +0.000 A 
ENDROOT
BRANCH   4   7
ATOM      7  C   UNL     1       2.708   4.398  17.755  0.00  0.00    +0.000 C 
ATOM      8  C   UNL     1       2.268   3.938  18.933  0.00  0.00    +0.000 C 
ATOM      9  S   UNL     1       2.964   4.162  20.492  0.00  0.00    +0.000 S 
ATOM     10  C   UNL     1       1.755   3.152  21.261  0.00  0.00    +0.000 C 
ATOM     11  O   UNL     1       1.731   2.892  22.451  0.00  0.00    +0.000 OA
ATOM     12  N   UNL     1       0.867   2.710  20.333  0.00  0.00    +0.000 N 
ATOM     13  C   UNL     1       1.055   3.085  19.037  0.00  0.00    +0.000 C 
ATOM     14  O   UNL     1       0.342   2.756  18.105  0.00  0.00    +0.000 OA
ATOM     15  H   UNL     1       0.106   2.106  20.596  0.00  0.00    +0.000 HD
ENDBRANCH   4   7
BRANCH   6  16
ATOM     16  N   UNL     1       7.580   4.643  17.464  0.00  0.00    +0.000 N 
ATOM     17  O   UNL     1       8.054   4.184  16.417  0.00  0.00    +0.000 OA
ATOM     18  O   UNL     1       8.079   4.533  18.591  0.00  0.00    +0.000 OA
ENDBRANCH   6  16
BRANCH   1  19
ATOM     19  O   UNL     1       7.285   7.656  17.154  0.00  0.00    +0.000 OA
BRANCH  19  20
ATOM     20  C   UNL     1       8.121   7.909  18.283  0.00  0.00    +0.000 C 
BRANCH  20  24
ATOM     21  C   UNL     1       9.129  12.103  18.368  0.00  0.00    +0.000 A 
ATOM     22  C   UNL     1       9.714  11.217  19.286  0.00  0.00    +0.000 A 
ATOM     23  C   UNL     1       9.381   9.863  19.270  0.00  0.00    +0.000 A 
ATOM     24  C   UNL     1       8.460   9.377  18.339  0.00  0.00    +0.000 A 
ATOM     25  C   UNL     1       7.865  10.265  17.429  0.00  0.00    +0.000 A 
ATOM     26  C   UNL     1       8.195  11.620  17.444  0.00  0.00    +0.000 A 
BRANCH  21  27
ATOM     27  C   UNL     1       9.552  13.524  18.403  0.00  0.00    +0.000 C 
ATOM     28  O   UNL     1      10.699  13.888  18.202  0.00  0.00    +0.000 OA
BRANCH  27  30
ATOM     29  C   UNL     1       8.565  15.598  18.000  0.00  0.00    +0.000 C 
ATOM     30  O   UNL     1       8.497  14.337  18.665  0.00  0.00    +0.000 OA
ENDBRANCH  27  30
ENDBRANCH  21  27
ENDBRANCH  20  24
ENDBRANCH  19  20
ENDBRANCH   1  19
TORSDOF 7
ENDMDL
MODEL 3
REMARK VINA RESULT:      -7.9      6.758      9.789
REMARK  Name = 
REMARK  8 active torsions:
REMARK  status: ('A' for Active; 'I' for Inactive)
REMARK    1  A    between atoms: C_1  and  O_2
REMARK    2  A    between atoms: O_2  and  C_3
REMARK    3  A    between atoms: C_3  and  C_5
REMARK    4  A    between atoms: C_8  and  C_9
REMARK    5  A    between atoms: C_9  and  O_10
REMARK    6  A    between atoms: O_10  and  C_11
REMARK    7  A    between atoms: C_14  and  C_15
REMARK    8  A    between atoms: C_24  and  N_25
REMARK                            x       y       z     vdW  Elec       q    Type
REMARK                         _______ _______ _______ _____ _____    ______ ____
ROOT
ATOM      1  C   UNL     1       0.707   9.754  19.492  0.00  0.00    +0.000 A 
ATOM      2  C   UNL     1       1.266   9.439  18.245  0.00  0.00    +0.000 A 
ATOM      3  C   UNL     1       2.060   8.298  18.071  0.00  0.00    +0.000 A 
ATOM      4  C   UNL     1       2.321   7.447  19.149  0.00  0.00    +0.000 A 
ATOM      5  C   UNL     1       1.780   7.743  20.399  0.00  0.00    +0.000 A 
ATOM      6  C   UNL     1       0.961   8.875  20.550  0.00  0.00    +0.000 A 
ENDROOT
BRANCH   4   7
ATOM      7  C   UNL     1       3.112   6.234  18.951  0.00  0.00    +0.000 C 
ATOM      8  C   UNL     1       2.961   5.090  19.628  0.00  0.00    +0.000 C 
ATOM      9  S   UNL     1       1.815   4.725  20.861  0.00  0.00    +0.000 S 
ATOM     10  C   UNL     1       2.487   3.126  21.118  0.00  0.00    +0.000 C 
ATOM     11  O   UNL     1       2.080   2.334  21.950  0.00  0.00    +0.000 OA
ATOM     12  N   UNL     1       3.518   2.917  20.260  0.00  0.00    +0.000 N 
ATOM     13  C   UNL     1       3.853   3.922  19.404  0.00  0.00    +0.000 C 
ATOM     14  O   UNL     1       4.758   3.873  18.589  0.00  0.00    +0.000 OA
ATOM     15  H   UNL     1       4.031   2.051  20.273  0.00  0.00    +0.000 HD
ENDBRANCH   4   7
BRANCH   6  16
ATOM     16  N   UNL     1       0.326   9.021  21.841  0.00  0.00    +0.000 N 
ATOM     17  O   UNL     1      -0.680   8.336  22.064  0.00  0.00    +0.000 OA
ATOM     18  O   UNL     1       0.834   9.834  22.624  0.00  0.00    +0.000 OA
ENDBRANCH   6  16
BRANCH   1  19
ATOM     19  O   UNL     1      -0.065  10.878  19.461  0.00  0.00    +0.000 OA
BRANCH  19  20
ATOM     20  C   UNL     1      -0.460  11.422  18.202  0.00  0.00    +0.000 C 
BRANCH  20  24
ATOM     21  C   UNL     1      -4.770  11.532  18.058  0.00  0.00    +0.000 A 
ATOM     22  C   UNL     1      -4.042  10.987  16.990  0.00  0.00    +0.000 A 
ATOM     23  C   UNL     1      -2.648  10.961  17.027  0.00  0.00    +0.000 A 
ATOM     24  C   UNL     1      -1.965  11.480  18.129  0.00  0.00    +0.000 A 
ATOM     25  C   UNL     1      -2.694  12.037  19.192  0.00  0.00    +0.000 A 
ATOM     26  C   UNL     1      -4.087  12.066  19.157  0.00  0.00    +0.000 A 
BRANCH  21  27
ATOM     27  C   UNL     1      -6.251  11.494  17.983  0.00  0.00    +0.000 C 
ATOM     28  O   UNL     1      -6.916  12.337  17.402  0.00  0.00    +0.000 OA
BRANCH  27  30
ATOM     29  C   UNL     1      -7.323  10.697  19.895  0.00  0.00    +0.000 C 
ATOM     30  O   UNL     1      -6.741  10.403  18.625  0.00  0.00    +0.000 OA
ENDBRANCH  27  30
ENDBRANCH  21  27
ENDBRANCH  20  24
ENDBRANCH  19  20
ENDBRANCH   1  19
TORSDOF 7
ENDMDL
MODEL 4
REMARK VINA RESULT:      -7.8      6.521      9.795
REMARK  Name = 
REMARK  8 active torsions:
REMARK  status: ('A' for Active; 'I' for Inactive)
REMARK    1  A    between atoms: C_1  and  O_2
REMARK    2  A    between atoms: O_2  and  C_3
REMARK    3  A    between atoms: C_3  and  C_5
REMARK    4  A    between atoms: C_8  and  C_9
REMARK    5  A    between atoms: C_9  and  O_10
REMARK    6  A    between atoms: O_10  and  C_11
REMARK    7  A    between atoms: C_14  and  C_15
REMARK    8  A    between atoms: C_24  and  N_25
REMARK                            x       y       z     vdW  Elec       q    Type
REMARK                         _______ _______ _______ _____ _____    ______ ____
ROOT
ATOM      1  C   UNL     1       1.067   9.745  19.408  0.00  0.00    +0.000 A 
ATOM      2  C   UNL     1       1.417   9.489  18.074  0.00  0.00    +0.000 A 
ATOM      3  C   UNL     1       2.013   8.277  17.698  0.00  0.00    +0.000 A 
ATOM      4  C   UNL     1       2.280   7.295  18.656  0.00  0.00    +0.000 A 
ATOM      5  C   UNL     1       1.945   7.530  19.988  0.00  0.00    +0.000 A 
ATOM      6  C   UNL     1       1.321   8.738  20.344  0.00  0.00    +0.000 A 
ENDROOT
BRANCH   4   7
ATOM      7  C   UNL     1       2.859   6.015  18.251  0.00  0.00    +0.000 C 
ATOM      8  C   UNL     1       4.070   5.850  17.703  0.00  0.00    +0.000 C 
ATOM      9  S   UNL     1       5.256   7.049  17.357  0.00  0.00    +0.000 S 
ATOM     10  C   UNL     1       6.337   5.878  16.627  0.00  0.00    +0.000 C 
ATOM     11  O   UNL     1       7.417   6.153  16.133  0.00  0.00    +0.000 OA
ATOM     12  N   UNL     1       5.785   4.639  16.692  0.00  0.00    +0.000 N 
ATOM     13  C   UNL     1       4.555   4.515  17.264  0.00  0.00    +0.000 C 
ATOM     14  O   UNL     1       3.943   3.468  17.381  0.00  0.00    +0.000 OA
ATOM     15  H   UNL     1       6.266   3.841  16.309  0.00  0.00    +0.000 HD
ENDBRANCH   4   7
BRANCH   6  16
ATOM     16  N   UNL     1       0.878   8.833  21.716  0.00  0.00    +0.000 N 
ATOM     17  O   UNL     1       1.673   9.295  22.544  0.00  0.00    +0.000 OA
ATOM     18  O   UNL     1      -0.268   8.432  21.962  0.00  0.00    +0.000 OA
ENDBRANCH   6  16
BRANCH   1  19
ATOM     19  O   UNL     1       0.466  10.958  19.577  0.00  0.00    +0.000 OA
BRANCH  19  20
ATOM     20  C   UNL     1       0.031  11.690  18.431  0.00  0.00    +0.000 C 
BRANCH  20  24
ATOM     21  C   UNL     1      -4.271  11.447  18.214  0.00  0.00    +0.000 A 
ATOM     22  C   UNL     1      -3.480  10.882  17.202  0.00  0.00    +0.000 A 
ATOM     23  C   UNL     1      -2.089  10.969  17.262  0.00  0.00    +0.000 A 
ATOM     24  C   UNL     1      -1.472  11.623  18.331  0.00  0.00    +0.000 A 
ATOM     25  C   UNL     1      -2.264  12.200  19.337  0.00  0.00    +0.000 A 
ATOM     26  C   UNL     1      -3.654  12.115  19.279  0.00  0.00    +0.000 A 
BRANCH  21  27
ATOM     27  C   UNL     1      -5.742  11.287  18.121  0.00  0.00    +0.000 C 
ATOM     28  O   UNL     1      -6.456  12.016  17.451  0.00  0.00    +0.000 OA
BRANCH  27  30
ATOM     29  C   UNL     1      -7.089  10.575  19.886  0.00  0.00    +0.000 C 
ATOM     30  O   UNL     1      -6.162  10.228  18.858  0.00  0.00    +0.000 OA
ENDBRANCH  27  30
ENDBRANCH  21  27
ENDBRANCH  20  24
ENDBRANCH  19  20
ENDBRANCH   1  19
TORSDOF 7
ENDMDL
MODEL 5
REMARK VINA RESULT:      -7.8      5.839      8.496
REMARK  Name = 
REMARK  8 active torsions:
REMARK  status: ('A' for Active; 'I' for Inactive)
REMARK    1  A    between atoms: C_1  and  O_2
REMARK    2  A    between atoms: O_2  and  C_3
REMARK    3  A    between atoms: C_3  and  C_5
REMARK    4  A    between atoms: C_8  and  C_9
REMARK    5  A    between atoms: C_9  and  O_10
REMARK    6  A    between atoms: O_10  and  C_11
REMARK    7  A    between atoms: C_14  and  C_15
REMARK    8  A    between atoms: C_24  and  N_25
REMARK                            x       y       z     vdW  Elec       q    Type
REMARK                         _______ _______ _______ _____ _____    ______ ____
ROOT
ATOM      1  C   UNL     1       1.678   7.142  20.036  0.00  0.00    +0.000 A 
ATOM      2  C   UNL     1       2.060   8.111  19.097  0.00  0.00    +0.000 A 
ATOM      3  C   UNL     1       2.921   7.797  18.037  0.00  0.00    +0.000 A 
ATOM      4  C   UNL     1       3.429   6.502  17.899  0.00  0.00    +0.000 A 
ATOM      5  C   UNL     1       3.067   5.524  18.823  0.00  0.00    +0.000 A 
ATOM      6  C   UNL     1       2.179   5.847  19.863  0.00  0.00    +0.000 A 
ENDROOT
BRANCH   4   7
ATOM      7  C   UNL     1       4.290   6.170  16.765  0.00  0.00    +0.000 C 
ATOM      8  C   UNL     1       5.481   5.564  16.848  0.00  0.00    +0.000 C 
ATOM      9  S   UNL     1       6.295   5.000  18.257  0.00  0.00    +0.000 S 
ATOM     10  C   UNL     1       7.700   4.498  17.336  0.00  0.00    +0.000 C 
ATOM     11  O   UNL     1       8.703   4.006  17.825  0.00  0.00    +0.000 OA
ATOM     12  N   UNL     1       7.498   4.745  16.016  0.00  0.00    +0.000 N 
ATOM     13  C   UNL     1       6.321   5.319  15.645  0.00  0.00    +0.000 C 
ATOM     14  O   UNL     1       6.012   5.602  14.501  0.00  0.00    +0.000 OA
ATOM     15  H   UNL     1       8.210   4.528  15.338  0.00  0.00    +0.000 HD
ENDBRANCH   4   7
BRANCH   6  16
ATOM     16  N   UNL     1       1.745   4.739  20.684  0.00  0.00    +0.000 N 
ATOM     17  O   UNL     1       2.442   4.444  21.662  0.00  0.00    +0.000 OA
ATOM     18  O   UNL     1       0.708   4.158  20.335  0.00  0.00    +0.000 OA
ENDBRANCH   6  16
BRANCH   1  19
ATOM     19  O   UNL     1       0.808   7.620  20.971  0.00  0.00    +0.000 OA
BRANCH  19  20
ATOM     20  C   UNL     1       1.232   8.654  21.858  0.00  0.00    +0.000 C 
BRANCH  20  24
ATOM     21  C   UNL     1      -1.649  11.865  21.892  0.00  0.00    +0.000 A 
ATOM     22  C   UNL     1      -1.355  11.168  23.074  0.00  0.00    +0.000 A 
ATOM     23  C   UNL     1      -0.434  10.121  23.065  0.00  0.00    +0.000 A 
ATOM     24  C   UNL     1       0.203   9.757  21.876  0.00  0.00    +0.000 A 
ATOM     25  C   UNL     1      -0.101  10.445  20.691  0.00  0.00    +0.000 A 
ATOM     26  C   UNL     1      -1.023  11.491  20.697  0.00  0.00    +0.000 A 
BRANCH  21  27
ATOM     27  C   UNL     1      -2.605  12.996  21.969  0.00  0.00    +0.000 C 
ATOM     28  O   UNL     1      -2.838  13.743  21.033  0.00  0.00    +0.000 OA
BRANCH  27  30
ATOM     29  C   UNL     1      -4.371  13.848  23.231  0.00  0.00    +0.000 C 
ATOM     30  O   UNL     1      -3.179  13.063  23.197  0.00  0.00    +0.000 OA
ENDBRANCH  27  30
ENDBRANCH  21  27
ENDBRANCH  20  24
ENDBRANCH  19  20
ENDBRANCH   1  19
TORSDOF 7
ENDMDL
MODEL 6
REMARK VINA RESULT:      -7.8      7.224      9.505
REMARK  Name = 
REMARK  8 active torsions:
REMARK  status: ('A' for Active; 'I' for Inactive)
REMARK    1  A    between atoms: C_1  and  O_2
REMARK    2  A    between atoms: O_2  and  C_3
REMARK    3  A    between atoms: C_3  and  C_5
REMARK    4  A    between atoms: C_8  and  C_9
REMARK    5  A    between atoms: C_9  and  O_10
REMARK    6  A    between atoms: O_10  and  C_11
REMARK    7  A    between atoms: C_14  and  C_15
REMARK    8  A    between atoms: C_24  and  N_25
REMARK                            x       y       z     vdW  Elec       q    Type
REMARK                         _______ _______ _______ _____ _____    ______ ____
ROOT
ATOM      1  C   UNL     1       0.608   9.613  19.298  0.00  0.00    +0.000 A 
ATOM      2  C   UNL     1       1.133   9.550  17.999  0.00  0.00    +0.000 A 
ATOM      3  C   UNL     1       2.114   8.610  17.656  0.00  0.00    +0.000 A 
ATOM      4  C   UNL     1       2.599   7.714  18.612  0.00  0.00    +0.000 A 
ATOM      5  C   UNL     1       2.096   7.762  19.911  0.00  0.00    +0.000 A 
ATOM      6  C   UNL     1       1.091   8.691  20.232  0.00  0.00    +0.000 A 
ENDROOT
BRANCH   4   7
ATOM      7  C   UNL     1       3.589   6.706  18.237  0.00  0.00    +0.000 C 
ATOM      8  C   UNL     1       3.325   5.421  17.970  0.00  0.00    +0.000 C 
ATOM      9  S   UNL     1       1.798   4.625  17.967  0.00  0.00    +0.000 S 
ATOM     10  C   UNL     1       2.524   3.069  17.612  0.00  0.00    +0.000 C 
ATOM     11  O   UNL     1       1.901   2.027  17.504  0.00  0.00    +0.000 OA
ATOM     12  N   UNL     1       3.869   3.207  17.485  0.00  0.00    +0.000 N 
ATOM     13  C   UNL     1       4.405   4.448  17.656  0.00  0.00    +0.000 C 
ATOM     14  O   UNL     1       5.592   4.713  17.578  0.00  0.00    +0.000 OA
ATOM     15  H   UNL     1       4.452   2.410  17.289  0.00  0.00    +0.000 HD
ENDBRANCH   4   7
BRANCH   6  16
ATOM     16  N   UNL     1       0.527   8.570  21.557  0.00  0.00    +0.000 N 
ATOM     17  O   UNL     1      -0.594   8.056  21.657  0.00  0.00    +0.000 OA
ATOM     18  O   UNL     1       1.207   9.006  22.496  0.00  0.00    +0.000 OA
ENDBRANCH   6  16
BRANCH   1  19
ATOM     19  O   UNL     1      -0.361  10.563  19.435  0.00  0.00    +0.000 OA
BRANCH  19  20
ATOM     20  C   UNL     1      -0.092  11.732  20.208  0.00  0.00    +0.000 C 
BRANCH  20  24
ATOM     21  C   UNL     1      -3.500  12.525  22.732  0.00  0.00    +0.000 A 
ATOM     22  C   UNL     1      -3.515  12.910  21.383  0.00  0.00    +0.000 A 
ATOM     23  C   UNL     1      -2.411  12.667  20.567  0.00  0.00    +0.000 A 
ATOM     24  C   UNL     1      -1.278  12.039  21.088  0.00  0.00    +0.000 A 
ATOM     25  C   UNL     1      -1.257  11.664  22.441  0.00  0.00    +0.000 A 
ATOM     26  C   UNL     1      -2.359  11.908  23.259  0.00  0.00    +0.000 A 
BRANCH  21  27
ATOM     27  C   UNL     1      -4.718  12.770  23.541  0.00  0.00    +0.000 C 
ATOM     28  O   UNL     1      -4.930  12.230  24.615  0.00  0.00    +0.000 OA
BRANCH  27  30
ATOM     29  C   UNL     1      -5.876  14.782  23.763  0.00  0.00    +0.000 C 
ATOM     30  O   UNL     1      -5.530  13.672  22.935  0.00  0.00    +0.000 OA
ENDBRANCH  27  30
ENDBRANCH  21  27
ENDBRANCH  20  24
ENDBRANCH  19  20
ENDBRANCH   1  19
TORSDOF 7
ENDMDL
MODEL 7
REMARK VINA RESULT:      -7.7      7.320      9.582
REMARK  Name = 
REMARK  8 active torsions:
REMARK  status: ('A' for Active; 'I' for Inactive)
REMARK    1  A    between atoms: C_1  and  O_2
REMARK    2  A    between atoms: O_2  and  C_3
REMARK    3  A    between atoms: C_3  and  C_5
REMARK    4  A    between atoms: C_8  and  C_9
REMARK    5  A    between atoms: C_9  and  O_10
REMARK    6  A    between atoms: O_10  and  C_11
REMARK    7  A    between atoms: C_14  and  C_15
REMARK    8  A    between atoms: C_24  and  N_25
REMARK                            x       y       z     vdW  Elec       q    Type
REMARK                         _______ _______ _______ _____ _____    ______ ____
ROOT
ATOM      1  C   UNL     1       0.449   9.642  19.320  0.00  0.00    +0.000 A 
ATOM      2  C   UNL     1       0.928   9.527  18.007  0.00  0.00    +0.000 A 
ATOM      3  C   UNL     1       1.937   8.612  17.679  0.00  0.00    +0.000 A 
ATOM      4  C   UNL     1       2.497   7.794  18.664  0.00  0.00    +0.000 A 
ATOM      5  C   UNL     1       2.040   7.894  19.976  0.00  0.00    +0.000 A 
ATOM      6  C   UNL     1       1.007   8.796  20.284  0.00  0.00    +0.000 A 
ENDROOT
BRANCH   4   7
ATOM      7  C   UNL     1       3.517   6.809  18.306  0.00  0.00    +0.000 C 
ATOM      8  C   UNL     1       3.287   5.520  18.027  0.00  0.00    +0.000 C 
ATOM      9  S   UNL     1       1.777   4.692  17.985  0.00  0.00    +0.000 S 
ATOM     10  C   UNL     1       2.545   3.154  17.640  0.00  0.00    +0.000 C 
ATOM     11  O   UNL     1       1.947   2.100  17.513  0.00  0.00    +0.000 OA
ATOM     12  N   UNL     1       3.889   3.322  17.544  0.00  0.00    +0.000 N 
ATOM     13  C   UNL     1       4.394   4.572  17.733  0.00  0.00    +0.000 C 
ATOM     14  O   UNL     1       5.576   4.863  17.684  0.00  0.00    +0.000 OA
ATOM     15  H   UNL     1       4.493   2.538  17.358  0.00  0.00    +0.000 HD
ENDBRANCH   4   7
BRANCH   6  16
ATOM     16  N   UNL     1       0.497   8.728  21.635  0.00  0.00    +0.000 N 
ATOM     17  O   UNL     1       1.172   9.253  22.529  0.00  0.00    +0.000 OA
ATOM     18  O   UNL     1      -0.577   8.134  21.797  0.00  0.00    +0.000 OA
ENDBRANCH   6  16
BRANCH   1  19
ATOM     19  O   UNL     1      -0.556  10.557  19.442  0.00  0.00    +0.000 OA
BRANCH  19  20
ATOM     20  C   UNL     1      -0.316  11.770  20.154  0.00  0.00    +0.000 C 
BRANCH  20  24
ATOM     21  C   UNL     1      -3.604  12.637  22.809  0.00  0.00    +0.000 A 
ATOM     22  C   UNL     1      -2.416  12.087  23.313  0.00  0.00    +0.000 A 
ATOM     23  C   UNL     1      -1.355  11.794  22.456  0.00  0.00    +0.000 A 
ATOM     24  C   UNL     1      -1.469  12.044  21.087  0.00  0.00    +0.000 A 
ATOM     25  C   UNL     1      -2.663  12.582  20.581  0.00  0.00    +0.000 A 
ATOM     26  C   UNL     1      -3.725  12.875  21.435  0.00  0.00    +0.000 A 
BRANCH  21  27
ATOM     27  C   UNL     1      -4.682  12.969  23.771  0.00  0.00    +0.000 C 
ATOM     28  O   UNL     1      -5.576  12.194  24.071  0.00  0.00    +0.000 OA
BRANCH  27  30
ATOM     29  C   UNL     1      -5.440  15.174  23.734  0.00  0.00    +0.000 C 
ATOM     30  O   UNL     1      -4.521  14.222  24.268  0.00  0.00    +0.000 OA
ENDBRANCH  27  30
ENDBRANCH  21  27
ENDBRANCH  20  24
ENDBRANCH  19  20
ENDBRANCH   1  19
TORSDOF 7
ENDMDL
MODEL 8
REMARK VINA RESULT:      -7.7      6.678      9.826
REMARK  Name = 
REMARK  8 active torsions:
REMARK  status: ('A' for Active; 'I' for Inactive)
REMARK    1  A    between atoms: C_1  and  O_2
REMARK    2  A    between atoms: O_2  and  C_3
REMARK    3  A    between atoms: C_3  and  C_5
REMARK    4  A    between atoms: C_8  and  C_9
REMARK    5  A    between atoms: C_9  and  O_10
REMARK    6  A    between atoms: O_10  and  C_11
REMARK    7  A    between atoms: C_14  and  C_15
REMARK    8  A    between atoms: C_24  and  N_25
REMARK                            x       y       z     vdW  Elec       q    Type
REMARK                         _______ _______ _______ _____ _____    ______ ____
ROOT
ATOM      1  C   UNL     1       0.808   9.744  19.395  0.00  0.00    +0.000 A 
ATOM      2  C   UNL     1       1.250   9.584  18.073  0.00  0.00    +0.000 A 
ATOM      3  C   UNL     1       2.090   8.523  17.711  0.00  0.00    +0.000 A 
ATOM      4  C   UNL     1       2.514   7.598  18.669  0.00  0.00    +0.000 A 
ATOM      5  C   UNL     1       2.092   7.741  19.990  0.00  0.00    +0.000 A 
ATOM      6  C   UNL     1       1.226   8.794  20.332  0.00  0.00    +0.000 A 
ENDROOT
BRANCH   4   7
ATOM      7  C   UNL     1       3.353   6.467  18.276  0.00  0.00    +0.000 C 
ATOM      8  C   UNL     1       3.009   5.177  18.371  0.00  0.00    +0.000 C 
ATOM      9  S   UNL     1       1.527   4.507  18.938  0.00  0.00    +0.000 S 
ATOM     10  C   UNL     1       2.109   2.865  18.750  0.00  0.00    +0.000 C 
ATOM     11  O   UNL     1       1.466   1.870  19.036  0.00  0.00    +0.000 OA
ATOM     12  N   UNL     1       3.372   2.878  18.251  0.00  0.00    +0.000 N 
ATOM     13  C   UNL     1       3.951   4.086  18.004  0.00  0.00    +0.000 C 
ATOM     14  O   UNL     1       5.076   4.245  17.564  0.00  0.00    +0.000 OA
ATOM     15  H   UNL     1       3.870   2.018  18.087  0.00  0.00    +0.000 HD
ENDBRANCH   4   7
BRANCH   6  16
ATOM     16  N   UNL     1       0.724   8.777  21.687  0.00  0.00    +0.000 N 
ATOM     17  O   UNL     1      -0.405   8.307  21.873  0.00  0.00    +0.000 OA
ATOM     18  O   UNL     1       1.463   9.248  22.562  0.00  0.00    +0.000 OA
ENDBRANCH   6  16
BRANCH   1  19
ATOM     19  O   UNL     1      -0.030  10.810  19.551  0.00  0.00    +0.000 OA
BRANCH  19  20
ATOM     20  C   UNL     1      -0.555  11.462  18.396  0.00  0.00    +0.000 C 
BRANCH  20  24
ATOM     21  C   UNL     1      -4.869  11.393  18.439  0.00  0.00    +0.000 A 
ATOM     22  C   UNL     1      -4.165  12.131  19.403  0.00  0.00    +0.000 A 
ATOM     23  C   UNL     1      -2.770  12.146  19.400  0.00  0.00    +0.000 A 
ATOM     24  C   UNL     1      -2.062  11.423  18.437  0.00  0.00    +0.000 A 
ATOM     25  C   UNL     1      -2.766  10.674  17.481  0.00  0.00    +0.000 A 
ATOM     26  C   UNL     1      -4.160  10.656  17.483  0.00  0.00    +0.000 A 
BRANCH  21  27
ATOM     27  C   UNL     1      -6.350  11.447  18.464  0.00  0.00    +0.000 C 
ATOM     28  O   UNL     1      -7.019  11.954  17.577  0.00  0.00    +0.000 OA
BRANCH  27  30
ATOM     29  C   UNL     1      -7.044   9.444  19.437  0.00  0.00    +0.000 C 
ATOM     30  O   UNL     1      -6.839  10.850  19.581  0.00  0.00    +0.000 OA
ENDBRANCH  27  30
ENDBRANCH  21  27
ENDBRANCH  20  24
ENDBRANCH  19  20
ENDBRANCH   1  19
TORSDOF 7
ENDMDL
MODEL 9
REMARK VINA RESULT:      -7.7      6.964      9.091
REMARK  Name = 
REMARK  8 active torsions:
REMARK  status: ('A' for Active; 'I' for Inactive)
REMARK    1  A    between atoms: C_1  and  O_2
REMARK    2  A    between atoms: O_2  and  C_3
REMARK    3  A    between atoms: C_3  and  C_5
REMARK    4  A    between atoms: C_8  and  C_9
REMARK    5  A    between atoms: C_9  and  O_10
REMARK    6  A    between atoms: O_10  and  C_11
REMARK    7  A    between atoms: C_14  and  C_15
REMARK    8  A    between atoms: C_24  and  N_25
REMARK                            x       y       z     vdW  Elec       q    Type
REMARK                         _______ _______ _______ _____ _____    ______ ____
ROOT
ATOM      1  C   UNL     1       1.137   9.788  19.148  0.00  0.00    +0.000 A 
ATOM      2  C   UNL     1       1.698   9.394  17.924  0.00  0.00    +0.000 A 
ATOM      3  C   UNL     1       2.355   8.164  17.788  0.00  0.00    +0.000 A 
ATOM      4  C   UNL     1       2.474   7.302  18.882  0.00  0.00    +0.000 A 
ATOM      5  C   UNL     1       1.929   7.675  20.109  0.00  0.00    +0.000 A 
ATOM      6  C   UNL     1       1.247   8.899  20.222  0.00  0.00    +0.000 A 
ENDROOT
BRANCH   4   7
ATOM      7  C   UNL     1       3.121   6.000  18.722  0.00  0.00    +0.000 C 
ATOM      8  C   UNL     1       2.894   4.923  19.483  0.00  0.00    +0.000 C 
ATOM      9  S   UNL     1       1.799   4.761  20.802  0.00  0.00    +0.000 S 
ATOM     10  C   UNL     1       2.315   3.118  21.128  0.00  0.00    +0.000 C 
ATOM     11  O   UNL     1       1.882   2.427  22.034  0.00  0.00    +0.000 OA
ATOM     12  N   UNL     1       3.263   2.746  20.229  0.00  0.00    +0.000 N 
ATOM     13  C   UNL     1       3.645   3.654  19.289  0.00  0.00    +0.000 C 
ATOM     14  O   UNL     1       4.486   3.457  18.429  0.00  0.00    +0.000 OA
ATOM     15  H   UNL     1       3.682   1.832  20.272  0.00  0.00    +0.000 HD
ENDBRANCH   4   7
BRANCH   6  16
ATOM     16  N   UNL     1       0.589   9.135  21.487  0.00  0.00    +0.000 N 
ATOM     17  O   UNL     1      -0.515   8.608  21.665  0.00  0.00    +0.000 OA
ATOM     18  O   UNL     1       1.180   9.862  22.296  0.00  0.00    +0.000 OA
ENDBRANCH   6  16
BRANCH   1  19
ATOM     19  O   UNL     1       0.507  10.997  19.081  0.00  0.00    +0.000 OA
BRANCH  19  20
ATOM     20  C   UNL     1      -0.818  11.067  18.554  0.00  0.00    +0.000 C 
BRANCH  20  24
ATOM     21  C   UNL     1      -3.420  12.853  21.495  0.00  0.00    +0.000 A 
ATOM     22  C   UNL     1      -3.895  12.585  20.203  0.00  0.00    +0.000 A 
ATOM     23  C   UNL     1      -3.053  12.019  19.245  0.00  0.00    +0.000 A 
ATOM     24  C   UNL     1      -1.728  11.717  19.566  0.00  0.00    +0.000 A 
ATOM     25  C   UNL     1      -1.249  11.997  20.856  0.00  0.00    +0.000 A 
ATOM     26  C   UNL     1      -2.088  12.564  21.814  0.00  0.00    +0.000 A 
BRANCH  21  27
ATOM     27  C   UNL     1      -4.370  13.416  22.485  0.00  0.00    +0.000 C 
ATOM     28  O   UNL     1      -4.640  14.604  22.558  0.00  0.00    +0.000 OA
BRANCH  27  30
ATOM     29  C   UNL     1      -4.436  12.471  24.616  0.00  0.00    +0.000 C 
ATOM     30  O   UNL     1      -4.895  12.436  23.264  0.00  0.00    +0.000 OA
ENDBRANCH  27  30
ENDBRANCH  21  27
ENDBRANCH  20  24
ENDBRANCH  19  20
ENDBRANCH   1  19
TORSDOF 7
ENDMDL
