MODEL 1
REMARK VINA RESULT:      -9.4      0.000      0.000
REMARK  Name = 
REMARK  4 active torsions:
REMARK  status: ('A' for Active; 'I' for Inactive)
REMARK    1  A    between atoms: C_1  and  C_2
REMARK    2  A    between atoms: N_4  and  C_5
REMARK    3  A    between atoms: C_14  and  N_15
REMARK    4  A    between atoms: N_16  and  C_17
REMARK                            x       y       z     vdW  Elec       q    Type
REMARK                         _______ _______ _______ _____ _____    ______ ____
ROOT
ATOM      1  C   UNL     1       0.875  11.118  20.139  0.00  0.00    +0.000 A 
ATOM      2  N   UNL     1       1.031  11.869  19.040  0.00  0.00    +0.000 NA
ATOM      3  N   UNL     1       1.489  10.980  18.131  0.00  0.00    +0.000 N 
ATOM      4  C   UNL     1       1.635   9.712  18.620  0.00  0.00    +0.000 A 
ATOM      5  N   UNL     1       2.094   8.640  17.949  0.00  0.00    +0.000 NA
ATOM      6  C   UNL     1       2.141   7.508  18.678  0.00  0.00    +0.000 A 
ATOM      7  C   UNL     1       2.620   6.348  18.081  0.00  0.00    +0.000 A 
ATOM      8  C   UNL     1       2.710   5.120  18.774  0.00  0.00    +0.000 A 
ATOM      9  C   UNL     1       3.202   3.952  18.167  0.00  0.00    +0.000 A 
ATOM     10  C   UNL     1       3.279   2.752  18.879  0.00  0.00    +0.000 A 
ATOM     11  C   UNL     1       2.865   2.700  20.207  0.00  0.00    +0.000 A 
ATOM     12  C   UNL     1       2.376   3.850  20.824  0.00  0.00    +0.000 A 
ATOM     13  C   UNL     1       2.296   5.061  20.119  0.00  0.00    +0.000 A 
ATOM     14  C   UNL     1       1.809   6.220  20.733  0.00  0.00    +0.000 A 
ATOM     15  C   UNL     1       1.735   7.431  20.032  0.00  0.00    +0.000 A 
ATOM     16  C   UNL     1       1.258   8.581  20.677  0.00  0.00    +0.000 A 
ATOM     17  C   UNL     1       1.219   9.766  19.938  0.00  0.00    +0.000 A 
ATOM     18  H   UNL     1       1.693  11.294  17.190  0.00  0.00    +0.000 HD
ENDROOT
BRANCH   1  20
ATOM     19  N   UNL     1      -0.344  12.587  21.272  0.00  0.00    +0.000 NA
ATOM     20  N   UNL     1       0.420  11.606  21.379  0.00  0.00    +0.000 NA
BRANCH  19  27
ATOM     21  C   UNL     1      -0.523  15.627  22.060  0.00  0.00    +0.000 C 
ATOM     22  C   UNL     1      -1.398  14.447  22.315  0.00  0.00    +0.000 C 
ATOM     23  N   UNL     1      -2.693  14.511  22.361  0.00  0.00    +0.000 NA
ATOM     24  N   UNL     1      -3.128  13.243  22.706  0.00  0.00    +0.000 N 
ATOM     25  C   UNL     1      -2.083  12.328  22.940  0.00  0.00    +0.000 C 
ATOM     26  O   UNL     1      -2.113  11.175  23.344  0.00  0.00    +0.000 OA
ATOM     27  C   UNL     1      -0.834  13.081  22.560  0.00  0.00    +0.000 C 
BRANCH  24  28
ATOM     28  C   UNL     1      -4.523  13.007  22.789  0.00  0.00    +0.000 A 
ATOM     29  C   UNL     1      -5.200  13.002  24.017  0.00  0.00    +0.000 A 
ATOM     30  C   UNL     1      -6.571  12.737  24.085  0.00  0.00    +0.000 A 
ATOM     31  C   UNL     1      -7.285  12.456  22.924  0.00  0.00    +0.000 A 
ATOM     32  C   UNL     1      -6.626  12.454  21.698  0.00  0.00    +0.000 A 
ATOM     33 CL   UNL     1      -7.501  12.083  20.264  0.00  0.00    +0.000 Cl
ATOM     34  C   UNL     1      -5.261  12.738  21.626  0.00  0.00    +0.000 A 
ENDBRANCH  24  28
ENDBRANCH  19  27
ENDBRANCH   1  20
TORSDOF 3
ENDMDL
MODEL 2
REMARK VINA RESULT:      -9.3      2.922      4.021
REMARK  Name = 
REMARK  4 active torsions:
REMARK  status: ('A' for Active; 'I' for Inactive)
REMARK    1  A    between atoms: C_1  and  C_2
REMARK    2  A    between atoms: N_4  and  C_5
REMARK    3  A    between atoms: C_14  and  N_15
REMARK    4  A    between atoms: N_16  and  C_17
REMARK                            x       y       z     vdW  Elec       q    Type
REMARK                         _______ _______ _______ _____ _____    ______ ____
ROOT
ATOM      1  C   UNL     1       0.378   9.513  19.971  0.00  0.00    +0.000 A 
ATOM      2  N   UNL     1       0.025   9.122  21.203  0.00  0.00    +0.000 NA
ATOM      3  N   UNL     1       0.798   8.032  21.405  0.00  0.00    +0.000 N 
ATOM      4  C   UNL     1       1.607   7.722  20.348  0.00  0.00    +0.000 A 
ATOM      5  N   UNL     1       2.456   6.682  20.262  0.00  0.00    +0.000 NA
ATOM      6  C   UNL     1       3.129   6.609  19.098  0.00  0.00    +0.000 A 
ATOM      7  C   UNL     1       4.016   5.557  18.903  0.00  0.00    +0.000 A 
ATOM      8  C   UNL     1       4.758   5.402  17.711  0.00  0.00    +0.000 A 
ATOM      9  C   UNL     1       5.649   4.332  17.517  0.00  0.00    +0.000 A 
ATOM     10  C   UNL     1       6.369   4.205  16.326  0.00  0.00    +0.000 A 
ATOM     11  C   UNL     1       6.210   5.144  15.312  0.00  0.00    +0.000 A 
ATOM     12  C   UNL     1       5.330   6.210  15.487  0.00  0.00    +0.000 A 
ATOM     13  C   UNL     1       4.600   6.347  16.678  0.00  0.00    +0.000 A 
ATOM     14  C   UNL     1       3.713   7.412  16.860  0.00  0.00    +0.000 A 
ATOM     15  C   UNL     1       2.979   7.546  18.047  0.00  0.00    +0.000 A 
ATOM     16  C   UNL     1       2.084   8.614  18.196  0.00  0.00    +0.000 A 
ATOM     17  C   UNL     1       1.367   8.692  19.392  0.00  0.00    +0.000 A 
ATOM     18  H   UNL     1       0.729   7.531  22.282  0.00  0.00    +0.000 HD
ENDROOT
BRANCH   1  20
ATOM     19  N   UNL     1      -1.342  10.429  18.907  0.00  0.00    +0.000 NA
ATOM     20  N   UNL     1      -0.173  10.622  19.300  0.00  0.00    +0.000 NA
BRANCH  19  27
ATOM     21  C   UNL     1      -2.570  10.368  16.012  0.00  0.00    +0.000 C 
ATOM     22  C   UNL     1      -2.951  11.065  17.274  0.00  0.00    +0.000 C 
ATOM     23  N   UNL     1      -4.179  11.284  17.630  0.00  0.00    +0.000 NA
ATOM     24  N   UNL     1      -4.113  12.025  18.797  0.00  0.00    +0.000 N 
ATOM     25  C   UNL     1      -2.800  12.344  19.195  0.00  0.00    +0.000 C 
ATOM     26  O   UNL     1      -2.397  13.049  20.108  0.00  0.00    +0.000 OA
ATOM     27  C   UNL     1      -1.923  11.589  18.230  0.00  0.00    +0.000 C 
BRANCH  24  28
ATOM     28  C   UNL     1      -5.325  12.376  19.443  0.00  0.00    +0.000 A 
ATOM     29  C   UNL     1      -6.452  12.796  18.721  0.00  0.00    +0.000 A 
ATOM     30  C   UNL     1      -7.631  13.168  19.374  0.00  0.00    +0.000 A 
ATOM     31  C   UNL     1      -7.696  13.141  20.764  0.00  0.00    +0.000 A 
ATOM     32  C   UNL     1      -6.585  12.729  21.494  0.00  0.00    +0.000 A 
ATOM     33 CL   UNL     1      -6.654  12.719  23.213  0.00  0.00    +0.000 Cl
ATOM     34  C   UNL     1      -5.413  12.339  20.843  0.00  0.00    +0.000 A 
ENDBRANCH  24  28
ENDBRANCH  19  27
ENDBRANCH   1  20
TORSDOF 3
ENDMDL
MODEL 3
REMARK VINA RESULT:      -9.3      3.930     10.318
REMARK  Name = 
REMARK  4 active torsions:
REMARK  status: ('A' for Active; 'I' for Inactive)
REMARK    1  A    between atoms: C_1  and  C_2
REMARK    2  A    between atoms: N_4  and  C_5
REMARK    3  A    between atoms: C_14  and  N_15
REMARK    4  A    between atoms: N_16  and  C_17
REMARK                            x       y       z     vdW  Elec       q    Type
REMARK                         _______ _______ _______ _____ _____    ______ ____
ROOT
ATOM      1  C   UNL     1      -1.570  10.763  17.915  0.00  0.00    +0.000 A 
ATOM      2  N   UNL     1      -2.087  10.249  16.791  0.00  0.00    +0.000 NA
ATOM      3  N   UNL     1      -3.381  10.635  16.850  0.00  0.00    +0.000 N 
ATOM      4  C   UNL     1      -3.693  11.356  17.968  0.00  0.00    +0.000 A 
ATOM      5  N   UNL     1      -4.903  11.843  18.299  0.00  0.00    +0.000 NA
ATOM      6  C   UNL     1      -4.931  12.515  19.466  0.00  0.00    +0.000 A 
ATOM      7  C   UNL     1      -6.140  13.040  19.907  0.00  0.00    +0.000 A 
ATOM      8  C   UNL     1      -6.260  13.752  21.121  0.00  0.00    +0.000 A 
ATOM      9  C   UNL     1      -7.487  14.275  21.565  0.00  0.00    +0.000 A 
ATOM     10  C   UNL     1      -7.574  14.974  22.771  0.00  0.00    +0.000 A 
ATOM     11  C   UNL     1      -6.437  15.163  23.552  0.00  0.00    +0.000 A 
ATOM     12  C   UNL     1      -5.213  14.651  23.127  0.00  0.00    +0.000 A 
ATOM     13  C   UNL     1      -5.114  13.944  21.918  0.00  0.00    +0.000 A 
ATOM     14  C   UNL     1      -3.890  13.424  21.487  0.00  0.00    +0.000 A 
ATOM     15  C   UNL     1      -3.791  12.713  20.283  0.00  0.00    +0.000 A 
ATOM     16  C   UNL     1      -2.555  12.188  19.883  0.00  0.00    +0.000 A 
ATOM     17  C   UNL     1      -2.515  11.475  18.683  0.00  0.00    +0.000 A 
ATOM     18  H   UNL     1      -4.011  10.372  16.103  0.00  0.00    +0.000 HD
ENDROOT
BRANCH   1  20
ATOM     19  N   UNL     1      -0.015   9.562  18.948  0.00  0.00    +0.000 NA
ATOM     20  N   UNL     1      -0.228  10.617  18.314  0.00  0.00    +0.000 NA
BRANCH  19  27
ATOM     21  C   UNL     1       0.941   8.878  21.866  0.00  0.00    +0.000 C 
ATOM     22  C   UNL     1       1.400   8.459  20.511  0.00  0.00    +0.000 C 
ATOM     23  N   UNL     1       1.855   7.274  20.242  0.00  0.00    +0.000 NA
ATOM     24  N   UNL     1       2.256   7.309  18.917  0.00  0.00    +0.000 N 
ATOM     25  C   UNL     1       2.102   8.570  18.310  0.00  0.00    +0.000 C 
ATOM     26  O   UNL     1       2.436   8.963  17.202  0.00  0.00    +0.000 OA
ATOM     27  C   UNL     1       1.385   9.399  19.344  0.00  0.00    +0.000 C 
BRANCH  24  28
ATOM     28  C   UNL     1       2.763   6.120  18.335  0.00  0.00    +0.000 A 
ATOM     29  C   UNL     1       1.925   5.045  18.003  0.00  0.00    +0.000 A 
ATOM     30  C   UNL     1       2.444   3.867  17.457  0.00  0.00    +0.000 A 
ATOM     31  C   UNL     1       3.815   3.740  17.249  0.00  0.00    +0.000 A 
ATOM     32  C   UNL     1       4.658   4.797  17.576  0.00  0.00    +0.000 A 
ATOM     33 CL   UNL     1       6.355   4.633  17.344  0.00  0.00    +0.000 Cl
ATOM     34  C   UNL     1       4.140   5.982  18.103  0.00  0.00    +0.000 A 
ENDBRANCH  24  28
ENDBRANCH  19  27
ENDBRANCH   1  20
TORSDOF 3
ENDMDL
MODEL 4
REMARK VINA RESULT:      -9.3      3.710     10.263
REMARK  Name = 
REMARK  4 active torsions:
REMARK  status: ('A' for Active; 'I' for Inactive)
REMARK    1  A    between atoms: C_1  and  C_2
REMARK    2  A    between atoms: N_4  and  C_5
REMARK    3  A    between atoms: C_14  and  N_15
REMARK    4  A    between atoms: N_16  and  C_17
REMARK                            x       y       z     vdW  Elec       q    Type
REMARK                         _______ _______ _______ _____ _____    ______ ____
ROOT
ATOM      1  C   UNL     1      -1.654  10.646  17.816  0.00  0.00    +0.000 A 
ATOM      2  N   UNL     1      -2.130  10.056  16.711  0.00  0.00    +0.000 NA
ATOM      3  N   UNL     1      -3.440  10.385  16.733  0.00  0.00    +0.000 N 
ATOM      4  C   UNL     1      -3.802  11.144  17.811  0.00  0.00    +0.000 A 
ATOM      5  N   UNL     1      -5.038  11.591  18.101  0.00  0.00    +0.000 NA
ATOM      6  C   UNL     1      -5.114  12.314  19.234  0.00  0.00    +0.000 A 
ATOM      7  C   UNL     1      -6.352  12.805  19.633  0.00  0.00    +0.000 A 
ATOM      8  C   UNL     1      -6.523  13.567  20.810  0.00  0.00    +0.000 A 
ATOM      9  C   UNL     1      -7.779  14.054  21.211  0.00  0.00    +0.000 A 
ATOM     10  C   UNL     1      -7.916  14.805  22.381  0.00  0.00    +0.000 A 
ATOM     11  C   UNL     1      -6.802  15.082  23.168  0.00  0.00    +0.000 A 
ATOM     12  C   UNL     1      -5.549  14.606  22.785  0.00  0.00    +0.000 A 
ATOM     13  C   UNL     1      -5.400  13.848  21.613  0.00  0.00    +0.000 A 
ATOM     14  C   UNL     1      -4.147  13.364  21.224  0.00  0.00    +0.000 A 
ATOM     15  C   UNL     1      -3.997  12.603  20.057  0.00  0.00    +0.000 A 
ATOM     16  C   UNL     1      -2.733  12.116  19.700  0.00  0.00    +0.000 A 
ATOM     17  C   UNL     1      -2.642  11.349  18.535  0.00  0.00    +0.000 A 
ATOM     18  H   UNL     1      -4.046  10.059  15.991  0.00  0.00    +0.000 HD
ENDROOT
BRANCH   1  20
ATOM     19  N   UNL     1      -0.056   9.551  18.901  0.00  0.00    +0.000 NA
ATOM     20  N   UNL     1      -0.313  10.579  18.240  0.00  0.00    +0.000 NA
BRANCH  19  27
ATOM     21  C   UNL     1       0.884   8.864  21.822  0.00  0.00    +0.000 C 
ATOM     22  C   UNL     1       1.396   8.507  20.469  0.00  0.00    +0.000 C 
ATOM     23  N   UNL     1       1.934   7.361  20.185  0.00  0.00    +0.000 NA
ATOM     24  N   UNL     1       2.358   7.451  18.870  0.00  0.00    +0.000 N 
ATOM     25  C   UNL     1       2.133   8.713  18.286  0.00  0.00    +0.000 C 
ATOM     26  O   UNL     1       2.463   9.153  17.194  0.00  0.00    +0.000 OA
ATOM     27  C   UNL     1       1.343   9.470  19.322  0.00  0.00    +0.000 C 
BRANCH  24  28
ATOM     28  C   UNL     1       2.953   6.312  18.273  0.00  0.00    +0.000 A 
ATOM     29  C   UNL     1       4.155   6.398  17.555  0.00  0.00    +0.000 A 
ATOM     30  C   UNL     1       4.714   5.270  16.946  0.00  0.00    +0.000 A 
ATOM     31  C   UNL     1       4.069   4.039  17.032  0.00  0.00    +0.000 A 
ATOM     32  C   UNL     1       2.875   3.940  17.739  0.00  0.00    +0.000 A 
ATOM     33 CL   UNL     1       2.063   2.426  17.827  0.00  0.00    +0.000 Cl
ATOM     34  C   UNL     1       2.325   5.060  18.365  0.00  0.00    +0.000 A 
ENDBRANCH  24  28
ENDBRANCH  19  27
ENDBRANCH   1  20
TORSDOF 3
ENDMDL
MODEL 5
REMARK VINA RESULT:      -9.2      2.809      3.865
REMARK  Name = 
REMARK  4 active torsions:
REMARK  status: ('A' for Active; 'I' for Inactive)
REMARK    1  A    between atoms: C_1  and  C_2
REMARK    2  A    between atoms: N_4  and  C_5
REMARK    3  A    between atoms: C_14  and  N_15
REMARK    4  A    between atoms: N_16  and  C_17
REMARK                            x       y       z     vdW  Elec       q    Type
REMARK                         _______ _______ _______ _____ _____    ______ ____
ROOT
ATOM      1  C   UNL     1       0.985   9.203  19.997  0.00  0.00    +0.000 A 
ATOM      2  N   UNL     1       0.642   8.721  21.199  0.00  0.00    +0.000 NA
ATOM      3  N   UNL     1       1.336   7.563  21.268  0.00  0.00    +0.000 N 
ATOM      4  C   UNL     1       2.085   7.299  20.156  0.00  0.00    +0.000 A 
ATOM      5  N   UNL     1       2.849   6.213  19.940  0.00  0.00    +0.000 NA
ATOM      6  C   UNL     1       3.478   6.204  18.750  0.00  0.00    +0.000 A 
ATOM      7  C   UNL     1       4.276   5.114  18.423  0.00  0.00    +0.000 A 
ATOM      8  C   UNL     1       4.966   5.021  17.194  0.00  0.00    +0.000 A 
ATOM      9  C   UNL     1       5.766   3.913  16.866  0.00  0.00    +0.000 A 
ATOM     10  C   UNL     1       6.437   3.849  15.641  0.00  0.00    +0.000 A 
ATOM     11  C   UNL     1       6.319   4.891  14.727  0.00  0.00    +0.000 A 
ATOM     12  C   UNL     1       5.528   5.996  15.035  0.00  0.00    +0.000 A 
ATOM     13  C   UNL     1       4.849   6.070  16.261  0.00  0.00    +0.000 A 
ATOM     14  C   UNL     1       4.051   7.175  16.577  0.00  0.00    +0.000 A 
ATOM     15  C   UNL     1       3.367   7.247  17.798  0.00  0.00    +0.000 A 
ATOM     16  C   UNL     1       2.562   8.358  18.081  0.00  0.00    +0.000 A 
ATOM     17  C   UNL     1       1.890   8.372  19.306  0.00  0.00    +0.000 A 
ATOM     18  H   UNL     1       1.255   6.986  22.096  0.00  0.00    +0.000 HD
ENDROOT
BRANCH   1  20
ATOM     19  N   UNL     1      -0.746  10.454  19.391  0.00  0.00    +0.000 NA
ATOM     20  N   UNL     1       0.500  10.409  19.455  0.00  0.00    +0.000 NA
BRANCH  19  27
ATOM     21  C   UNL     1      -2.569  10.691  16.839  0.00  0.00    +0.000 C 
ATOM     22  C   UNL     1      -2.538  11.404  18.148  0.00  0.00    +0.000 C 
ATOM     23  N   UNL     1      -3.602  11.818  18.765  0.00  0.00    +0.000 NA
ATOM     24  N   UNL     1      -3.155  12.503  19.882  0.00  0.00    +0.000 N 
ATOM     25  C   UNL     1      -1.752  12.580  19.978  0.00  0.00    +0.000 C 
ATOM     26  O   UNL     1      -1.042  13.178  20.773  0.00  0.00    +0.000 OA
ATOM     27  C   UNL     1      -1.251  11.716  18.849  0.00  0.00    +0.000 C 
BRANCH  24  28
ATOM     28  C   UNL     1      -4.117  13.035  20.777  0.00  0.00    +0.000 A 
ATOM     29  C   UNL     1      -5.018  14.034  20.382  0.00  0.00    +0.000 A 
ATOM     30  C   UNL     1      -5.941  14.572  21.284  0.00  0.00    +0.000 A 
ATOM     31  C   UNL     1      -5.966  14.128  22.604  0.00  0.00    +0.000 A 
ATOM     32  C   UNL     1      -5.075  13.139  23.010  0.00  0.00    +0.000 A 
ATOM     33 CL   UNL     1      -5.087  12.606  24.646  0.00  0.00    +0.000 Cl
ATOM     34  C   UNL     1      -4.166  12.587  22.106  0.00  0.00    +0.000 A 
ENDBRANCH  24  28
ENDBRANCH  19  27
ENDBRANCH   1  20
TORSDOF 3
ENDMDL
MODEL 6
REMARK VINA RESULT:      -9.2      2.638      3.806
REMARK  Name = 
REMARK  4 active torsions:
REMARK  status: ('A' for Active; 'I' for Inactive)
REMARK    1  A    between atoms: C_1  and  C_2
REMARK    2  A    between atoms: N_4  and  C_5
REMARK    3  A    between atoms: C_14  and  N_15
REMARK    4  A    between atoms: N_16  and  C_17
REMARK                            x       y       z     vdW  Elec       q    Type
REMARK                         _______ _______ _______ _____ _____    ______ ____
ROOT
ATOM      1  C   UNL     1       1.341   8.510  20.272  0.00  0.00    +0.000 A 
ATOM      2  N   UNL     1       0.854   7.810  21.305  0.00  0.00    +0.000 NA
ATOM      3  N   UNL     1       1.389   6.583  21.117  0.00  0.00    +0.000 N 
ATOM      4  C   UNL     1       2.178   6.488  20.005  0.00  0.00    +0.000 A 
ATOM      5  N   UNL     1       2.813   5.387  19.561  0.00  0.00    +0.000 NA
ATOM      6  C   UNL     1       3.522   5.574  18.431  0.00  0.00    +0.000 A 
ATOM      7  C   UNL     1       4.198   4.492  17.880  0.00  0.00    +0.000 A 
ATOM      8  C   UNL     1       4.959   4.597  16.695  0.00  0.00    +0.000 A 
ATOM      9  C   UNL     1       5.635   3.497  16.139  0.00  0.00    +0.000 A 
ATOM     10  C   UNL     1       6.380   3.632  14.964  0.00  0.00    +0.000 A 
ATOM     11  C   UNL     1       6.461   4.867  14.328  0.00  0.00    +0.000 A 
ATOM     12  C   UNL     1       5.796   5.967  14.866  0.00  0.00    +0.000 A 
ATOM     13  C   UNL     1       5.043   5.843  16.044  0.00  0.00    +0.000 A 
ATOM     14  C   UNL     1       4.370   6.941  16.587  0.00  0.00    +0.000 A 
ATOM     15  C   UNL     1       3.613   6.817  17.760  0.00  0.00    +0.000 A 
ATOM     16  C   UNL     1       2.935   7.931  18.273  0.00  0.00    +0.000 A 
ATOM     17  C   UNL     1       2.183   7.748  19.436  0.00  0.00    +0.000 A 
ATOM     18  H   UNL     1       1.176   5.843  21.774  0.00  0.00    +0.000 HD
ENDROOT
BRANCH   1  20
ATOM     19  N   UNL     1      -0.166  10.128  20.078  0.00  0.00    +0.000 NA
ATOM     20  N   UNL     1       1.053   9.865  20.023  0.00  0.00    +0.000 NA
BRANCH  19  27
ATOM     21  C   UNL     1      -1.893  11.203  17.679  0.00  0.00    +0.000 C 
ATOM     22  C   UNL     1      -1.773  11.593  19.113  0.00  0.00    +0.000 C 
ATOM     23  N   UNL     1      -2.770  12.016  19.828  0.00  0.00    +0.000 NA
ATOM     24  N   UNL     1      -2.241  12.357  21.061  0.00  0.00    +0.000 N 
ATOM     25  C   UNL     1      -0.844  12.196  21.144  0.00  0.00    +0.000 C 
ATOM     26  O   UNL     1      -0.064  12.487  22.039  0.00  0.00    +0.000 OA
ATOM     27  C   UNL     1      -0.464  11.541  19.841  0.00  0.00    +0.000 C 
BRANCH  24  28
ATOM     28  C   UNL     1      -3.124  12.816  22.070  0.00  0.00    +0.000 A 
ATOM     29  C   UNL     1      -3.117  12.270  23.362  0.00  0.00    +0.000 A 
ATOM     30  C   UNL     1      -4.015  12.713  24.338  0.00  0.00    +0.000 A 
ATOM     31  C   UNL     1      -4.947  13.701  24.031  0.00  0.00    +0.000 A 
ATOM     32  C   UNL     1      -4.966  14.250  22.753  0.00  0.00    +0.000 A 
ATOM     33 CL   UNL     1      -6.133  15.454  22.364  0.00  0.00    +0.000 Cl
ATOM     34  C   UNL     1      -4.058  13.824  21.783  0.00  0.00    +0.000 A 
ENDBRANCH  24  28
ENDBRANCH  19  27
ENDBRANCH   1  20
TORSDOF 3
ENDMDL
MODEL 7
REMARK VINA RESULT:      -9.1      2.710      3.842
REMARK  Name = 
REMARK  4 active torsions:
REMARK  status: ('A' for Active; 'I' for Inactive)
REMARK    1  A    between atoms: C_1  and  C_2
REMARK    2  A    between atoms: N_4  and  C_5
REMARK    3  A    between atoms: C_14  and  N_15
REMARK    4  A    between atoms: N_16  and  C_17
REMARK                            x       y       z     vdW  Elec       q    Type
REMARK                         _______ _______ _______ _____ _____    ______ ____
ROOT
ATOM      1  C   UNL     1       1.097   8.966  20.018  0.00  0.00    +0.000 A 
ATOM      2  N   UNL     1       0.730   8.429  21.190  0.00  0.00    +0.000 NA
ATOM      3  N   UNL     1       1.398   7.253  21.204  0.00  0.00    +0.000 N 
ATOM      4  C   UNL     1       2.154   7.032  20.087  0.00  0.00    +0.000 A 
ATOM      5  N   UNL     1       2.896   5.942  19.822  0.00  0.00    +0.000 NA
ATOM      6  C   UNL     1       3.538   5.982  18.639  0.00  0.00    +0.000 A 
ATOM      7  C   UNL     1       4.316   4.894  18.262  0.00  0.00    +0.000 A 
ATOM      8  C   UNL     1       5.018   4.850  17.037  0.00  0.00    +0.000 A 
ATOM      9  C   UNL     1       5.797   3.743  16.659  0.00  0.00    +0.000 A 
ATOM     10  C   UNL     1       6.480   3.729  15.440  0.00  0.00    +0.000 A 
ATOM     11  C   UNL     1       6.395   4.821  14.580  0.00  0.00    +0.000 A 
ATOM     12  C   UNL     1       5.625   5.925  14.939  0.00  0.00    +0.000 A 
ATOM     13  C   UNL     1       4.934   5.949  16.161  0.00  0.00    +0.000 A 
ATOM     14  C   UNL     1       4.157   7.053  16.526  0.00  0.00    +0.000 A 
ATOM     15  C   UNL     1       3.461   7.076  17.742  0.00  0.00    +0.000 A 
ATOM     16  C   UNL     1       2.676   8.188  18.076  0.00  0.00    +0.000 A 
ATOM     17  C   UNL     1       1.991   8.153  19.293  0.00  0.00    +0.000 A 
ATOM     18  H   UNL     1       1.296   6.636  21.999  0.00  0.00    +0.000 HD
ENDROOT
BRANCH   1  20
ATOM     19  N   UNL     1      -0.550  10.190  19.170  0.00  0.00    +0.000 NA
ATOM     20  N   UNL     1       0.644  10.209  19.536  0.00  0.00    +0.000 NA
BRANCH  19  27
ATOM     21  C   UNL     1      -2.294  10.599  16.585  0.00  0.00    +0.000 C 
ATOM     22  C   UNL     1      -2.295  11.232  17.934  0.00  0.00    +0.000 C 
ATOM     23  N   UNL     1      -3.373  11.620  18.544  0.00  0.00    +0.000 NA
ATOM     24  N   UNL     1      -2.953  12.231  19.713  0.00  0.00    +0.000 N 
ATOM     25  C   UNL     1      -1.553  12.288  19.854  0.00  0.00    +0.000 C 
ATOM     26  O   UNL     1      -0.862  12.830  20.704  0.00  0.00    +0.000 OA
ATOM     27  C   UNL     1      -1.027  11.488  18.690  0.00  0.00    +0.000 C 
BRANCH  24  28
ATOM     28  C   UNL     1      -3.936  12.720  20.610  0.00  0.00    +0.000 A 
ATOM     29  C   UNL     1      -3.738  12.713  21.998  0.00  0.00    +0.000 A 
ATOM     30  C   UNL     1      -4.730  13.170  22.871  0.00  0.00    +0.000 A 
ATOM     31  C   UNL     1      -5.945  13.628  22.368  0.00  0.00    +0.000 A 
ATOM     32  C   UNL     1      -6.156  13.639  20.993  0.00  0.00    +0.000 A 
ATOM     33 CL   UNL     1      -7.665  14.181  20.369  0.00  0.00    +0.000 Cl
ATOM     34  C   UNL     1      -5.160  13.201  20.118  0.00  0.00    +0.000 A 
ENDBRANCH  24  28
ENDBRANCH  19  27
ENDBRANCH   1  20
TORSDOF 3
ENDMDL
MODEL 8
REMARK VINA RESULT:      -9.0      1.019      1.306
REMARK  Name = 
REMARK  4 active torsions:
REMARK  status: ('A' for Active; 'I' for Inactive)
REMARK    1  A    between atoms: C_1  and  C_2
REMARK    2  A    between atoms: N_4  and  C_5
REMARK    3  A    between atoms: C_14  and  N_15
REMARK    4  A    between atoms: N_16  and  C_17
REMARK                            x       y       z     vdW  Elec       q    Type
REMARK                         _______ _______ _______ _____ _____    ______ ____
ROOT
ATOM      1  C   UNL     1       0.960  11.343  19.759  0.00  0.00    +0.000 A 
ATOM      2  N   UNL     1       1.254  11.993  18.626  0.00  0.00    +0.000 NA
ATOM      3  N   UNL     1       1.751  11.015  17.837  0.00  0.00    +0.000 N 
ATOM      4  C   UNL     1       1.788   9.787  18.435  0.00  0.00    +0.000 A 
ATOM      5  N   UNL     1       2.255   8.644  17.898  0.00  0.00    +0.000 NA
ATOM      6  C   UNL     1       2.179   7.576  18.715  0.00  0.00    +0.000 A 
ATOM      7  C   UNL     1       2.654   6.352  18.260  0.00  0.00    +0.000 A 
ATOM      8  C   UNL     1       2.619   5.183  19.052  0.00  0.00    +0.000 A 
ATOM      9  C   UNL     1       3.107   3.949  18.589  0.00  0.00    +0.000 A 
ATOM     10  C   UNL     1       3.059   2.809  19.396  0.00  0.00    +0.000 A 
ATOM     11  C   UNL     1       2.521   2.885  20.678  0.00  0.00    +0.000 A 
ATOM     12  C   UNL     1       2.033   4.101  21.153  0.00  0.00    +0.000 A 
ATOM     13  C   UNL     1       2.079   5.252  20.351  0.00  0.00    +0.000 A 
ATOM     14  C   UNL     1       1.594   6.476  20.822  0.00  0.00    +0.000 A 
ATOM     15  C   UNL     1       1.645   7.628  20.026  0.00  0.00    +0.000 A 
ATOM     16  C   UNL     1       1.167   8.845  20.529  0.00  0.00    +0.000 A 
ATOM     17  C   UNL     1       1.255   9.966  19.699  0.00  0.00    +0.000 A 
ATOM     18  H   UNL     1       2.057  11.242  16.899  0.00  0.00    +0.000 HD
ENDROOT
BRANCH   1  20
ATOM     19  N   UNL     1      -0.463  12.797  20.648  0.00  0.00    +0.000 NA
ATOM     20  N   UNL     1       0.417  11.950  20.908  0.00  0.00    +0.000 NA
BRANCH  19  27
ATOM     21  C   UNL     1      -0.919  15.888  21.015  0.00  0.00    +0.000 C 
ATOM     22  C   UNL     1      -1.706  14.682  21.399  0.00  0.00    +0.000 C 
ATOM     23  N   UNL     1      -3.002  14.640  21.398  0.00  0.00    +0.000 NA
ATOM     24  N   UNL     1      -3.347  13.396  21.897  0.00  0.00    +0.000 N 
ATOM     25  C   UNL     1      -2.242  12.612  22.283  0.00  0.00    +0.000 C 
ATOM     26  O   UNL     1      -2.196  11.524  22.837  0.00  0.00    +0.000 OA
ATOM     27  C   UNL     1      -1.043  13.412  21.842  0.00  0.00    +0.000 C 
BRANCH  24  28
ATOM     28  C   UNL     1      -4.721  13.054  21.969  0.00  0.00    +0.000 A 
ATOM     29  C   UNL     1      -5.371  12.387  20.921  0.00  0.00    +0.000 A 
ATOM     30  C   UNL     1      -6.734  12.084  20.994  0.00  0.00    +0.000 A 
ATOM     31  C   UNL     1      -7.473  12.460  22.112  0.00  0.00    +0.000 A 
ATOM     32  C   UNL     1      -6.842  13.126  23.158  0.00  0.00    +0.000 A 
ATOM     33 CL   UNL     1      -7.758  13.614  24.530  0.00  0.00    +0.000 Cl
ATOM     34  C   UNL     1      -5.477  13.411  23.096  0.00  0.00    +0.000 A 
ENDBRANCH  24  28
ENDBRANCH  19  27
ENDBRANCH   1  20
TORSDOF 3
ENDMDL
MODEL 9
REMARK VINA RESULT:      -8.9      2.911      4.120
REMARK  Name = 
REMARK  4 active torsions:
REMARK  status: ('A' for Active; 'I' for Inactive)
REMARK    1  A    between atoms: C_1  and  C_2
REMARK    2  A    between atoms: N_4  and  C_5
REMARK    3  A    between atoms: C_14  and  N_15
REMARK    4  A    between atoms: N_16  and  C_17
REMARK                            x       y       z     vdW  Elec       q    Type
REMARK                         _______ _______ _______ _____ _____    ______ ____
ROOT
ATOM      1  C   UNL     1       1.313   8.615  20.296  0.00  0.00    +0.000 A 
ATOM      2  N   UNL     1       0.818   7.924  21.332  0.00  0.00    +0.000 NA
ATOM      3  N   UNL     1       1.340   6.691  21.149  0.00  0.00    +0.000 N 
ATOM      4  C   UNL     1       2.129   6.583  20.038  0.00  0.00    +0.000 A 
ATOM      5  N   UNL     1       2.753   5.474  19.599  0.00  0.00    +0.000 NA
ATOM      6  C   UNL     1       3.464   5.648  18.469  0.00  0.00    +0.000 A 
ATOM      7  C   UNL     1       4.129   4.557  17.922  0.00  0.00    +0.000 A 
ATOM      8  C   UNL     1       4.891   4.649  16.736  0.00  0.00    +0.000 A 
ATOM      9  C   UNL     1       5.556   3.540  16.185  0.00  0.00    +0.000 A 
ATOM     10  C   UNL     1       6.303   3.663  15.010  0.00  0.00    +0.000 A 
ATOM     11  C   UNL     1       6.398   4.895  14.369  0.00  0.00    +0.000 A 
ATOM     12  C   UNL     1       5.744   6.004  14.902  0.00  0.00    +0.000 A 
ATOM     13  C   UNL     1       4.989   5.892  16.080  0.00  0.00    +0.000 A 
ATOM     14  C   UNL     1       4.328   7.000  16.619  0.00  0.00    +0.000 A 
ATOM     15  C   UNL     1       3.569   6.888  17.792  0.00  0.00    +0.000 A 
ATOM     16  C   UNL     1       2.902   8.011  18.300  0.00  0.00    +0.000 A 
ATOM     17  C   UNL     1       2.147   7.841  19.464  0.00  0.00    +0.000 A 
ATOM     18  H   UNL     1       1.120   5.956  21.809  0.00  0.00    +0.000 HD
ENDROOT
BRANCH   1  20
ATOM     19  N   UNL     1      -0.174  10.205  19.865  0.00  0.00    +0.000 NA
ATOM     20  N   UNL     1       1.040   9.972  20.041  0.00  0.00    +0.000 NA
BRANCH  19  27
ATOM     21  C   UNL     1      -2.418  11.257  17.927  0.00  0.00    +0.000 C 
ATOM     22  C   UNL     1      -1.912  11.711  19.254  0.00  0.00    +0.000 C 
ATOM     23  N   UNL     1      -2.668  12.228  20.172  0.00  0.00    +0.000 NA
ATOM     24  N   UNL     1      -1.822  12.599  21.203  0.00  0.00    +0.000 N 
ATOM     25  C   UNL     1      -0.460  12.361  20.933  0.00  0.00    +0.000 C 
ATOM     26  O   UNL     1       0.538  12.650  21.577  0.00  0.00    +0.000 OA
ATOM     27  C   UNL     1      -0.462  11.619  19.622  0.00  0.00    +0.000 C 
BRANCH  24  28
ATOM     28  C   UNL     1      -2.391  13.161  22.373  0.00  0.00    +0.000 A 
ATOM     29  C   UNL     1      -3.187  12.403  23.244  0.00  0.00    +0.000 A 
ATOM     30  C   UNL     1      -3.766  12.979  24.379  0.00  0.00    +0.000 A 
ATOM     31  C   UNL     1      -3.570  14.330  24.652  0.00  0.00    +0.000 A 
ATOM     32  C   UNL     1      -2.784  15.094  23.796  0.00  0.00    +0.000 A 
ATOM     33 CL   UNL     1      -2.560  16.770  24.118  0.00  0.00    +0.000 Cl
ATOM     34  C   UNL     1      -2.189  14.517  22.673  0.00  0.00    +0.000 A 
ENDBRANCH  24  28
ENDBRANCH  19  27
ENDBRANCH   1  20
TORSDOF 3
ENDMDL
