MODEL 1
REMARK VINA RESULT:      -6.5      0.000      0.000
REMARK  Name = 
REMARK  11 active torsions:
REMARK  status: ('A' for Active; 'I' for Inactive)
REMARK    1  A    between atoms: C_1  and  C_2
REMARK    2  A    between atoms: C_2  and  O_3
REMARK    3  A    between atoms: O_3  and  C_4
REMARK    4  A    between atoms: C_4  and  C_6
REMARK    5  A    between atoms: C_7  and  C_8
REMARK    6  A    between atoms: C_10  and  C_11
REMARK    7  A    between atoms: C_11  and  C_13
REMARK    8  A    between atoms: C_13  and  N_14
REMARK    9  A    between atoms: N_17  and  C_18
REMARK   10  A    between atoms: C_18  and  C_19
REMARK   11  A    between atoms: C_22  and  C_23
REMARK                            x       y       z     vdW  Elec       q    Type
REMARK                         _______ _______ _______ _____ _____    ______ ____
ROOT
ATOM      1  C   UNL     1       3.626   5.232  18.932  0.00  0.00    +0.000 A 
ATOM      2  C   UNL     1       2.784   5.111  20.032  0.00  0.00    +0.000 A 
ATOM      3  C   UNL     1       2.485   3.978  20.948  0.00  0.00    +0.000 C 
ATOM      4  N   UNL     1       2.130   6.302  20.183  0.00  0.00    +0.000 N 
ATOM      5  C   UNL     1       2.421   7.161  19.148  0.00  0.00    +0.000 A 
ATOM      6  C   UNL     1       3.432   6.559  18.402  0.00  0.00    +0.000 A 
ATOM      7  C   UNL     1       4.156   7.143  17.233  0.00  0.00    +0.000 C 
ATOM      8  H   UNL     1       1.478   6.521  20.928  0.00  0.00    +0.000 HD
ENDROOT
BRANCH   1   9
ATOM      9  C   UNL     1       4.451   4.165  18.368  0.00  0.00    +0.000 C 
ATOM     10  O   UNL     1       4.080   3.472  17.427  0.00  0.00    +0.000 OA
BRANCH   9  11
ATOM     11  O   UNL     1       5.592   3.950  19.082  0.00  0.00    +0.000 OA
BRANCH  11  13
ATOM     12  C   UNL     1       7.448   4.722  17.741  0.00  0.00    +0.000 C 
ATOM     13  C   UNL     1       6.606   4.954  18.977  0.00  0.00    +0.000 C 
ENDBRANCH  11  13
ENDBRANCH   9  11
ENDBRANCH   1   9
BRANCH   5  14
ATOM     14  C   UNL     1       1.755   8.442  18.960  0.00  0.00    +0.000 C 
ATOM     15  O   UNL     1       1.407   8.869  17.861  0.00  0.00    +0.000 OA
BRANCH  14  16
ATOM     16  C   UNL     1       1.432   9.269  20.210  0.00  0.00    +0.000 C 
BRANCH  16  17
ATOM     17  N   UNL     1      -0.029   9.360  20.457  0.00  0.00    +0.000 NA
ATOM     18  C   UNL     1      -0.388   8.810  21.795  0.00  0.00    +0.000 C 
ATOM     19  C   UNL     1       0.027   9.682  23.008  0.00  0.00    +0.000 C 
ATOM     20  N   UNL     1      -0.381  11.105  22.917  0.00  0.00    +0.000 NA
ATOM     21  C   UNL     1       0.024  11.632  21.600  0.00  0.00    +0.000 C 
ATOM     22  C   UNL     1      -0.463  10.778  20.407  0.00  0.00    +0.000 C 
BRANCH  20  23
ATOM     23  C   UNL     1      -1.821  11.246  23.188  0.00  0.00    +0.000 C 
ATOM     24  C   UNL     1      -2.336  12.674  23.033  0.00  0.00    +0.000 C 
ENDBRANCH  20  23
ENDBRANCH  16  17
ENDBRANCH  14  16
ENDBRANCH   5  14
TORSDOF 7
ENDMDL
MODEL 2
REMARK VINA RESULT:      -6.3      4.714      7.484
REMARK  Name = 
REMARK  11 active torsions:
REMARK  status: ('A' for Active; 'I' for Inactive)
REMARK    1  A    between atoms: C_1  and  C_2
REMARK    2  A    between atoms: C_2  and  O_3
REMARK    3  A    between atoms: O_3  and  C_4
REMARK    4  A    between atoms: C_4  and  C_6
REMARK    5  A    between atoms: C_7  and  C_8
REMARK    6  A    between atoms: C_10  and  C_11
REMARK    7  A    between atoms: C_11  and  C_13
REMARK    8  A    between atoms: C_13  and  N_14
REMARK    9  A    between atoms: N_17  and  C_18
REMARK   10  A    between atoms: C_18  and  C_19
REMARK   11  A    between atoms: C_22  and  C_23
REMARK                            x       y       z     vdW  Elec       q    Type
REMARK                         _______ _______ _______ _____ _____    ______ ____
ROOT
ATOM      1  C   UNL     1       6.435   4.212  13.710  0.00  0.00    +0.000 A 
ATOM      2  C   UNL     1       7.460   5.148  13.796  0.00  0.00    +0.000 A 
ATOM      3  C   UNL     1       8.399   5.704  12.785  0.00  0.00    +0.000 C 
ATOM      4  N   UNL     1       7.561   5.530  15.105  0.00  0.00    +0.000 N 
ATOM      5  C   UNL     1       6.720   4.789  15.903  0.00  0.00    +0.000 A 
ATOM      6  C   UNL     1       5.929   4.024  15.048  0.00  0.00    +0.000 A 
ATOM      7  C   UNL     1       4.796   3.129  15.432  0.00  0.00    +0.000 C 
ATOM      8  H   UNL     1       8.199   6.233  15.461  0.00  0.00    +0.000 HD
ENDROOT
BRANCH   1   9
ATOM      9  C   UNL     1       6.044   3.483  12.506  0.00  0.00    +0.000 C 
ATOM     10  O   UNL     1       6.844   2.838  11.836  0.00  0.00    +0.000 OA
BRANCH   9  11
ATOM     11  O   UNL     1       4.748   3.713  12.150  0.00  0.00    +0.000 OA
BRANCH  11  13
ATOM     12  C   UNL     1       3.289   3.723  10.223  0.00  0.00    +0.000 C 
ATOM     13  C   UNL     1       4.231   2.909  11.085  0.00  0.00    +0.000 C 
ENDBRANCH  11  13
ENDBRANCH   9  11
ENDBRANCH   1   9
BRANCH   5  14
ATOM     14  C   UNL     1       6.722   4.867  17.357  0.00  0.00    +0.000 C 
ATOM     15  O   UNL     1       7.601   4.372  18.060  0.00  0.00    +0.000 OA
BRANCH  14  16
ATOM     16  C   UNL     1       5.590   5.651  18.031  0.00  0.00    +0.000 C 
BRANCH  16  17
ATOM     17  N   UNL     1       4.960   4.885  19.135  0.00  0.00    +0.000 NA
ATOM     18  C   UNL     1       3.922   5.694  19.834  0.00  0.00    +0.000 C 
ATOM     19  C   UNL     1       2.610   5.925  19.040  0.00  0.00    +0.000 C 
ATOM     20  N   UNL     1       2.002   4.696  18.477  0.00  0.00    +0.000 NA
ATOM     21  C   UNL     1       3.043   3.938  17.757  0.00  0.00    +0.000 C 
ATOM     22  C   UNL     1       4.312   3.664  18.598  0.00  0.00    +0.000 C 
BRANCH  20  23
ATOM     23  C   UNL     1       1.336   3.918  19.535  0.00  0.00    +0.000 C 
ATOM     24  C   UNL     1       0.812   2.566  19.064  0.00  0.00    +0.000 C 
ENDBRANCH  20  23
ENDBRANCH  16  17
ENDBRANCH  14  16
ENDBRANCH   5  14
TORSDOF 7
ENDMDL
MODEL 3
REMARK VINA RESULT:      -6.2      1.182      1.927
REMARK  Name = 
REMARK  11 active torsions:
REMARK  status: ('A' for Active; 'I' for Inactive)
REMARK    1  A    between atoms: C_1  and  C_2
REMARK    2  A    between atoms: C_2  and  O_3
REMARK    3  A    between atoms: O_3  and  C_4
REMARK    4  A    between atoms: C_4  and  C_6
REMARK    5  A    between atoms: C_7  and  C_8
REMARK    6  A    between atoms: C_10  and  C_11
REMARK    7  A    between atoms: C_11  and  C_13
REMARK    8  A    between atoms: C_13  and  N_14
REMARK    9  A    between atoms: N_17  and  C_18
REMARK   10  A    between atoms: C_18  and  C_19
REMARK   11  A    between atoms: C_22  and  C_23
REMARK                            x       y       z     vdW  Elec       q    Type
REMARK                         _______ _______ _______ _____ _____    ______ ____
ROOT
ATOM      1  C   UNL     1       3.649   5.190  19.117  0.00  0.00    +0.000 A 
ATOM      2  C   UNL     1       2.713   5.313  20.138  0.00  0.00    +0.000 A 
ATOM      3  C   UNL     1       2.243   4.371  21.189  0.00  0.00    +0.000 C 
ATOM      4  N   UNL     1       2.157   6.558  20.038  0.00  0.00    +0.000 N 
ATOM      5  C   UNL     1       2.605   7.212  18.914  0.00  0.00    +0.000 A 
ATOM      6  C   UNL     1       3.616   6.423  18.369  0.00  0.00    +0.000 A 
ATOM      7  C   UNL     1       4.481   6.753  17.197  0.00  0.00    +0.000 C 
ATOM      8  H   UNL     1       1.468   6.944  20.675  0.00  0.00    +0.000 HD
ENDROOT
BRANCH   1   9
ATOM      9  C   UNL     1       4.421   3.988  18.808  0.00  0.00    +0.000 C 
ATOM     10  O   UNL     1       5.493   3.735  19.346  0.00  0.00    +0.000 OA
BRANCH   9  11
ATOM     11  O   UNL     1       3.888   3.272  17.777  0.00  0.00    +0.000 OA
BRANCH  11  13
ATOM     12  C   UNL     1       1.809   2.141  18.267  0.00  0.00    +0.000 C 
ATOM     13  C   UNL     1       3.309   2.008  18.116  0.00  0.00    +0.000 C 
ENDBRANCH  11  13
ENDBRANCH   9  11
ENDBRANCH   1   9
BRANCH   5  14
ATOM     14  C   UNL     1       2.070   8.490  18.465  0.00  0.00    +0.000 C 
ATOM     15  O   UNL     1       1.804   8.737  17.290  0.00  0.00    +0.000 OA
BRANCH  14  16
ATOM     16  C   UNL     1       1.785   9.557  19.528  0.00  0.00    +0.000 C 
BRANCH  16  17
ATOM     17  N   UNL     1       0.383  10.040  19.472  0.00  0.00    +0.000 NA
ATOM     18  C   UNL     1      -0.403   9.559  20.643  0.00  0.00    +0.000 C 
ATOM     19  C   UNL     1      -0.063  10.235  21.998  0.00  0.00    +0.000 C 
ATOM     20  N   UNL     1      -0.054  11.717  21.966  0.00  0.00    +0.000 NA
ATOM     21  C   UNL     1       0.765  12.162  20.822  0.00  0.00    +0.000 C 
ATOM     22  C   UNL     1       0.358  11.523  19.474  0.00  0.00    +0.000 C 
BRANCH  20  23
ATOM     23  C   UNL     1      -1.429  12.242  21.942  0.00  0.00    +0.000 C 
ATOM     24  C   UNL     1      -2.210  11.970  23.224  0.00  0.00    +0.000 C 
ENDBRANCH  20  23
ENDBRANCH  16  17
ENDBRANCH  14  16
ENDBRANCH   5  14
TORSDOF 7
ENDMDL
MODEL 4
REMARK VINA RESULT:      -6.2      0.878      1.186
REMARK  Name = 
REMARK  11 active torsions:
REMARK  status: ('A' for Active; 'I' for Inactive)
REMARK    1  A    between atoms: C_1  and  C_2
REMARK    2  A    between atoms: C_2  and  O_3
REMARK    3  A    between atoms: O_3  and  C_4
REMARK    4  A    between atoms: C_4  and  C_6
REMARK    5  A    between atoms: C_7  and  C_8
REMARK    6  A    between atoms: C_10  and  C_11
REMARK    7  A    between atoms: C_11  and  C_13
REMARK    8  A    between atoms: C_13  and  N_14
REMARK    9  A    between atoms: N_17  and  C_18
REMARK   10  A    between atoms: C_18  and  C_19
REMARK   11  A    between atoms: C_22  and  C_23
REMARK                            x       y       z     vdW  Elec       q    Type
REMARK                         _______ _______ _______ _____ _____    ______ ____
ROOT
ATOM      1  C   UNL     1       3.823   5.352  18.866  0.00  0.00    +0.000 A 
ATOM      2  C   UNL     1       2.942   5.130  19.919  0.00  0.00    +0.000 A 
ATOM      3  C   UNL     1       2.678   3.943  20.776  0.00  0.00    +0.000 C 
ATOM      4  N   UNL     1       2.205   6.269  20.086  0.00  0.00    +0.000 N 
ATOM      5  C   UNL     1       2.484   7.188  19.100  0.00  0.00    +0.000 A 
ATOM      6  C   UNL     1       3.565   6.685  18.379  0.00  0.00    +0.000 A 
ATOM      7  C   UNL     1       4.300   7.363  17.270  0.00  0.00    +0.000 C 
ATOM      8  H   UNL     1       1.507   6.414  20.808  0.00  0.00    +0.000 HD
ENDROOT
BRANCH   1   9
ATOM      9  C   UNL     1       4.741   4.365  18.301  0.00  0.00    +0.000 C 
ATOM     10  O   UNL     1       5.757   4.000  18.883  0.00  0.00    +0.000 OA
BRANCH   9  11
ATOM     11  O   UNL     1       4.415   4.014  17.025  0.00  0.00    +0.000 OA
BRANCH  11  13
ATOM     12  C   UNL     1       5.603   4.868  15.101  0.00  0.00    +0.000 C 
ATOM     13  C   UNL     1       5.509   3.767  16.135  0.00  0.00    +0.000 C 
ENDBRANCH  11  13
ENDBRANCH   9  11
ENDBRANCH   1   9
BRANCH   5  14
ATOM     14  C   UNL     1       1.742   8.430  18.931  0.00  0.00    +0.000 C 
ATOM     15  O   UNL     1       1.325   8.826  17.844  0.00  0.00    +0.000 OA
BRANCH  14  16
ATOM     16  C   UNL     1       1.432   9.253  20.187  0.00  0.00    +0.000 C 
BRANCH  16  17
ATOM     17  N   UNL     1      -0.025   9.338  20.452  0.00  0.00    +0.000 NA
ATOM     18  C   UNL     1      -0.363   8.801  21.801  0.00  0.00    +0.000 C 
ATOM     19  C   UNL     1       0.063   9.690  22.999  0.00  0.00    +0.000 C 
ATOM     20  N   UNL     1      -0.356  11.109  22.897  0.00  0.00    +0.000 NA
ATOM     21  C   UNL     1       0.029  11.623  21.569  0.00  0.00    +0.000 C 
ATOM     22  C   UNL     1      -0.469  10.752  20.392  0.00  0.00    +0.000 C 
BRANCH  20  23
ATOM     23  C   UNL     1      -1.793  11.245  23.186  0.00  0.00    +0.000 C 
ATOM     24  C   UNL     1      -2.296  12.683  23.126  0.00  0.00    +0.000 C 
ENDBRANCH  20  23
ENDBRANCH  16  17
ENDBRANCH  14  16
ENDBRANCH   5  14
TORSDOF 7
ENDMDL
MODEL 5
REMARK VINA RESULT:      -6.1      2.306      7.933
REMARK  Name = 
REMARK  11 active torsions:
REMARK  status: ('A' for Active; 'I' for Inactive)
REMARK    1  A    between atoms: C_1  and  C_2
REMARK    2  A    between atoms: C_2  and  O_3
REMARK    3  A    between atoms: O_3  and  C_4
REMARK    4  A    between atoms: C_4  and  C_6
REMARK    5  A    between atoms: C_7  and  C_8
REMARK    6  A    between atoms: C_10  and  C_11
REMARK    7  A    between atoms: C_11  and  C_13
REMARK    8  A    between atoms: C_13  and  N_14
REMARK    9  A    between atoms: N_17  and  C_18
REMARK   10  A    between atoms: C_18  and  C_19
REMARK   11  A    between atoms: C_22  and  C_23
REMARK                            x       y       z     vdW  Elec       q    Type
REMARK                         _______ _______ _______ _____ _____    ______ ____
ROOT
ATOM      1  C   UNL     1       1.215   9.409  20.017  0.00  0.00    +0.000 A 
ATOM      2  C   UNL     1       1.000   8.882  21.286  0.00  0.00    +0.000 A 
ATOM      3  C   UNL     1       0.531   9.490  22.560  0.00  0.00    +0.000 C 
ATOM      4  N   UNL     1       1.355   7.563  21.250  0.00  0.00    +0.000 N 
ATOM      5  C   UNL     1       1.912   7.233  20.035  0.00  0.00    +0.000 A 
ATOM      6  C   UNL     1       1.747   8.341  19.207  0.00  0.00    +0.000 A 
ATOM      7  C   UNL     1       2.099   8.441  17.758  0.00  0.00    +0.000 C 
ATOM      8  H   UNL     1       1.269   6.912  22.023  0.00  0.00    +0.000 HD
ENDROOT
BRANCH   1   9
ATOM      9  C   UNL     1       1.041  10.809  19.634  0.00  0.00    +0.000 C 
ATOM     10  O   UNL     1       1.595  11.729  20.227  0.00  0.00    +0.000 OA
BRANCH   9  11
ATOM     11  O   UNL     1       0.109  10.974  18.654  0.00  0.00    +0.000 OA
BRANCH  11  13
ATOM     12  C   UNL     1      -2.033  10.066  17.998  0.00  0.00    +0.000 C 
ATOM     13  C   UNL     1      -1.259  10.832  19.050  0.00  0.00    +0.000 C 
ENDBRANCH  11  13
ENDBRANCH   9  11
ENDBRANCH   1   9
BRANCH   5  14
ATOM     14  C   UNL     1       2.523   5.940  19.760  0.00  0.00    +0.000 C 
ATOM     15  O   UNL     1       1.898   4.881  19.769  0.00  0.00    +0.000 OA
BRANCH  14  16
ATOM     16  C   UNL     1       4.011   5.918  19.393  0.00  0.00    +0.000 C 
BRANCH  16  17
ATOM     17  N   UNL     1       4.342   4.802  18.473  0.00  0.00    +0.000 NA
ATOM     18  C   UNL     1       4.201   5.214  17.047  0.00  0.00    +0.000 C 
ATOM     19  C   UNL     1       5.296   6.178  16.520  0.00  0.00    +0.000 C 
ATOM     20  N   UNL     1       6.687   5.740  16.787  0.00  0.00    +0.000 NA
ATOM     21  C   UNL     1       6.806   5.378  18.212  0.00  0.00    +0.000 C 
ATOM     22  C   UNL     1       5.742   4.363  18.692  0.00  0.00    +0.000 C 
BRANCH  20  23
ATOM     23  C   UNL     1       7.071   4.652  15.872  0.00  0.00    +0.000 C 
ATOM     24  C   UNL     1       6.700   4.918  14.416  0.00  0.00    +0.000 C 
ENDBRANCH  20  23
ENDBRANCH  16  17
ENDBRANCH  14  16
ENDBRANCH   5  14
TORSDOF 7
ENDMDL
MODEL 6
REMARK VINA RESULT:      -6.1      1.351      2.036
REMARK  Name = 
REMARK  11 active torsions:
REMARK  status: ('A' for Active; 'I' for Inactive)
REMARK    1  A    between atoms: C_1  and  C_2
REMARK    2  A    between atoms: C_2  and  O_3
REMARK    3  A    between atoms: O_3  and  C_4
REMARK    4  A    between atoms: C_4  and  C_6
REMARK    5  A    between atoms: C_7  and  C_8
REMARK    6  A    between atoms: C_10  and  C_11
REMARK    7  A    between atoms: C_11  and  C_13
REMARK    8  A    between atoms: C_13  and  N_14
REMARK    9  A    between atoms: N_17  and  C_18
REMARK   10  A    between atoms: C_18  and  C_19
REMARK   11  A    between atoms: C_22  and  C_23
REMARK                            x       y       z     vdW  Elec       q    Type
REMARK                         _______ _______ _______ _____ _____    ______ ____
ROOT
ATOM      1  C   UNL     1       3.300   4.059  20.100  0.00  0.00    +0.000 A 
ATOM      2  C   UNL     1       2.202   4.113  20.952  0.00  0.00    +0.000 A 
ATOM      3  C   UNL     1       1.492   3.072  21.743  0.00  0.00    +0.000 C 
ATOM      4  N   UNL     1       1.748   5.402  20.958  0.00  0.00    +0.000 N 
ATOM      5  C   UNL     1       2.432   6.172  20.046  0.00  0.00    +0.000 A 
ATOM      6  C   UNL     1       3.477   5.386  19.564  0.00  0.00    +0.000 A 
ATOM      7  C   UNL     1       4.559   5.808  18.625  0.00  0.00    +0.000 C 
ATOM      8  H   UNL     1       0.978   5.749  21.521  0.00  0.00    +0.000 HD
ENDROOT
BRANCH   1   9
ATOM      9  C   UNL     1       4.042   2.853  19.739  0.00  0.00    +0.000 C 
ATOM     10  O   UNL     1       5.238   2.719  19.975  0.00  0.00    +0.000 OA
BRANCH   9  11
ATOM     11  O   UNL     1       3.297   1.977  19.007  0.00  0.00    +0.000 OA
BRANCH  11  13
ATOM     12  C   UNL     1       2.318   3.135  17.125  0.00  0.00    +0.000 C 
ATOM     13  C   UNL     1       3.353   2.131  17.585  0.00  0.00    +0.000 C 
ENDBRANCH  11  13
ENDBRANCH   9  11
ENDBRANCH   1   9
BRANCH   5  14
ATOM     14  C   UNL     1       2.065   7.544  19.722  0.00  0.00    +0.000 C 
ATOM     15  O   UNL     1       2.052   7.988  18.575  0.00  0.00    +0.000 OA
BRANCH  14  16
ATOM     16  C   UNL     1       1.629   8.457  20.873  0.00  0.00    +0.000 C 
BRANCH  16  17
ATOM     17  N   UNL     1       0.199   8.840  20.771  0.00  0.00    +0.000 NA
ATOM     18  C   UNL     1      -0.494   8.701  22.083  0.00  0.00    +0.000 C 
ATOM     19  C   UNL     1      -0.126   9.766  23.148  0.00  0.00    +0.000 C 
ATOM     20  N   UNL     1      -0.209  11.169  22.676  0.00  0.00    +0.000 NA
ATOM     21  C   UNL     1       0.520  11.284  21.399  0.00  0.00    +0.000 C 
ATOM     22  C   UNL     1       0.083  10.252  20.333  0.00  0.00    +0.000 C 
BRANCH  20  23
ATOM     23  C   UNL     1      -1.614  11.603  22.591  0.00  0.00    +0.000 C 
ATOM     24  C   UNL     1      -1.897  12.908  23.328  0.00  0.00    +0.000 C 
ENDBRANCH  20  23
ENDBRANCH  16  17
ENDBRANCH  14  16
ENDBRANCH   5  14
TORSDOF 7
ENDMDL
MODEL 7
REMARK VINA RESULT:      -6.1      1.216      2.504
REMARK  Name = 
REMARK  11 active torsions:
REMARK  status: ('A' for Active; 'I' for Inactive)
REMARK    1  A    between atoms: C_1  and  C_2
REMARK    2  A    between atoms: C_2  and  O_3
REMARK    3  A    between atoms: O_3  and  C_4
REMARK    4  A    between atoms: C_4  and  C_6
REMARK    5  A    between atoms: C_7  and  C_8
REMARK    6  A    between atoms: C_10  and  C_11
REMARK    7  A    between atoms: C_11  and  C_13
REMARK    8  A    between atoms: C_13  and  N_14
REMARK    9  A    between atoms: N_17  and  C_18
REMARK   10  A    between atoms: C_18  and  C_19
REMARK   11  A    between atoms: C_22  and  C_23
REMARK                            x       y       z     vdW  Elec       q    Type
REMARK                         _______ _______ _______ _____ _____    ______ ____
ROOT
ATOM      1  C   UNL     1       3.855   5.526  18.401  0.00  0.00    +0.000 A 
ATOM      2  C   UNL     1       4.302   6.378  17.397  0.00  0.00    +0.000 A 
ATOM      3  C   UNL     1       5.433   6.291  16.435  0.00  0.00    +0.000 C 
ATOM      4  N   UNL     1       3.504   7.488  17.414  0.00  0.00    +0.000 N 
ATOM      5  C   UNL     1       2.626   7.451  18.473  0.00  0.00    +0.000 A 
ATOM      6  C   UNL     1       2.752   6.190  19.052  0.00  0.00    +0.000 A 
ATOM      7  C   UNL     1       1.939   5.630  20.173  0.00  0.00    +0.000 C 
ATOM      8  H   UNL     1       3.570   8.266  16.766  0.00  0.00    +0.000 HD
ENDROOT
BRANCH   1   9
ATOM      9  C   UNL     1       4.476   4.260  18.784  0.00  0.00    +0.000 C 
ATOM     10  O   UNL     1       5.493   4.203  19.466  0.00  0.00    +0.000 OA
BRANCH   9  11
ATOM     11  O   UNL     1       3.883   3.184  18.192  0.00  0.00    +0.000 OA
BRANCH  11  13
ATOM     12  C   UNL     1       1.882   2.107  19.014  0.00  0.00    +0.000 C 
ATOM     13  C   UNL     1       3.393   2.167  19.071  0.00  0.00    +0.000 C 
ENDBRANCH  11  13
ENDBRANCH   9  11
ENDBRANCH   1   9
BRANCH   5  14
ATOM     14  C   UNL     1       1.760   8.565  18.835  0.00  0.00    +0.000 C 
ATOM     15  O   UNL     1       1.245   9.317  18.009  0.00  0.00    +0.000 OA
BRANCH  14  16
ATOM     16  C   UNL     1       1.444   8.770  20.320  0.00  0.00    +0.000 C 
BRANCH  16  17
ATOM     17  N   UNL     1      -0.001   9.013  20.555  0.00  0.00    +0.000 NA
ATOM     18  C   UNL     1      -0.408   8.588  21.924  0.00  0.00    +0.000 C 
ATOM     19  C   UNL     1       0.090   9.494  23.080  0.00  0.00    +0.000 C 
ATOM     20  N   UNL     1      -0.183  10.940  22.895  0.00  0.00    +0.000 NA
ATOM     21  C   UNL     1       0.267  11.340  21.549  0.00  0.00    +0.000 C 
ATOM     22  C   UNL     1      -0.301  10.459  20.411  0.00  0.00    +0.000 C 
BRANCH  20  23
ATOM     23  C   UNL     1      -1.603  11.233  23.151  0.00  0.00    +0.000 C 
ATOM     24  C   UNL     1      -2.021  12.641  22.740  0.00  0.00    +0.000 C 
ENDBRANCH  20  23
ENDBRANCH  16  17
ENDBRANCH  14  16
ENDBRANCH   5  14
TORSDOF 7
ENDMDL
MODEL 8
REMARK VINA RESULT:      -6.1      2.384      7.994
REMARK  Name = 
REMARK  11 active torsions:
REMARK  status: ('A' for Active; 'I' for Inactive)
REMARK    1  A    between atoms: C_1  and  C_2
REMARK    2  A    between atoms: C_2  and  O_3
REMARK    3  A    between atoms: O_3  and  C_4
REMARK    4  A    between atoms: C_4  and  C_6
REMARK    5  A    between atoms: C_7  and  C_8
REMARK    6  A    between atoms: C_10  and  C_11
REMARK    7  A    between atoms: C_11  and  C_13
REMARK    8  A    between atoms: C_13  and  N_14
REMARK    9  A    between atoms: N_17  and  C_18
REMARK   10  A    between atoms: C_18  and  C_19
REMARK   11  A    between atoms: C_22  and  C_23
REMARK                            x       y       z     vdW  Elec       q    Type
REMARK                         _______ _______ _______ _____ _____    ______ ____
ROOT
ATOM      1  C   UNL     1       1.319   9.187  19.873  0.00  0.00    +0.000 A 
ATOM      2  C   UNL     1       1.252   8.583  21.124  0.00  0.00    +0.000 A 
ATOM      3  C   UNL     1       0.837   9.085  22.461  0.00  0.00    +0.000 C 
ATOM      4  N   UNL     1       1.713   7.303  20.988  0.00  0.00    +0.000 N 
ATOM      5  C   UNL     1       2.196   7.082  19.719  0.00  0.00    +0.000 A 
ATOM      6  C   UNL     1       1.873   8.210  18.967  0.00  0.00    +0.000 A 
ATOM      7  C   UNL     1       2.097   8.410  17.504  0.00  0.00    +0.000 C 
ATOM      8  H   UNL     1       1.744   6.611  21.729  0.00  0.00    +0.000 HD
ENDROOT
BRANCH   1   9
ATOM      9  C   UNL     1       0.998  10.582  19.581  0.00  0.00    +0.000 C 
ATOM     10  O   UNL     1       1.354  11.506  20.306  0.00  0.00    +0.000 OA
BRANCH   9  11
ATOM     11  O   UNL     1       0.163  10.717  18.513  0.00  0.00    +0.000 OA
BRANCH  11  13
ATOM     12  C   UNL     1      -1.958  10.004  17.600  0.00  0.00    +0.000 C 
ATOM     13  C   UNL     1      -1.238  10.611  18.785  0.00  0.00    +0.000 C 
ENDBRANCH  11  13
ENDBRANCH   9  11
ENDBRANCH   1   9
BRANCH   5  14
ATOM     14  C   UNL     1       2.889   5.863  19.327  0.00  0.00    +0.000 C 
ATOM     15  O   UNL     1       2.309   4.819  19.034  0.00  0.00    +0.000 OA
BRANCH  14  16
ATOM     16  C   UNL     1       4.419   5.910  19.233  0.00  0.00    +0.000 C 
BRANCH  16  17
ATOM     17  N   UNL     1       4.881   6.413  17.916  0.00  0.00    +0.000 NA
ATOM     18  C   UNL     1       6.369   6.446  17.839  0.00  0.00    +0.000 C 
ATOM     19  C   UNL     1       7.061   5.062  17.726  0.00  0.00    +0.000 C 
ATOM     20  N   UNL     1       6.517   4.182  16.664  0.00  0.00    +0.000 NA
ATOM     21  C   UNL     1       5.048   4.138  16.791  0.00  0.00    +0.000 C 
ATOM     22  C   UNL     1       4.380   5.532  16.832  0.00  0.00    +0.000 C 
BRANCH  20  23
ATOM     23  C   UNL     1       6.978   4.626  15.339  0.00  0.00    +0.000 C 
ATOM     24  C   UNL     1       6.273   3.929  14.180  0.00  0.00    +0.000 C 
ENDBRANCH  20  23
ENDBRANCH  16  17
ENDBRANCH  14  16
ENDBRANCH   5  14
TORSDOF 7
ENDMDL
MODEL 9
REMARK VINA RESULT:      -6.0      1.761      2.478
REMARK  Name = 
REMARK  11 active torsions:
REMARK  status: ('A' for Active; 'I' for Inactive)
REMARK    1  A    between atoms: C_1  and  C_2
REMARK    2  A    between atoms: C_2  and  O_3
REMARK    3  A    between atoms: O_3  and  C_4
REMARK    4  A    between atoms: C_4  and  C_6
REMARK    5  A    between atoms: C_7  and  C_8
REMARK    6  A    between atoms: C_10  and  C_11
REMARK    7  A    between atoms: C_11  and  C_13
REMARK    8  A    between atoms: C_13  and  N_14
REMARK    9  A    between atoms: N_17  and  C_18
REMARK   10  A    between atoms: C_18  and  C_19
REMARK   11  A    between atoms: C_22  and  C_23
REMARK                            x       y       z     vdW  Elec       q    Type
REMARK                         _______ _______ _______ _____ _____    ______ ____
ROOT
ATOM      1  C   UNL     1       3.635   5.193  19.161  0.00  0.00    +0.000 A 
ATOM      2  C   UNL     1       2.703   5.382  20.176  0.00  0.00    +0.000 A 
ATOM      3  C   UNL     1       2.222   4.504  21.276  0.00  0.00    +0.000 C 
ATOM      4  N   UNL     1       2.164   6.628  20.012  0.00  0.00    +0.000 N 
ATOM      5  C   UNL     1       2.618   7.216  18.854  0.00  0.00    +0.000 A 
ATOM      6  C   UNL     1       3.617   6.385  18.350  0.00  0.00    +0.000 A 
ATOM      7  C   UNL     1       4.483   6.641  17.160  0.00  0.00    +0.000 C 
ATOM      8  H   UNL     1       1.482   7.056  20.629  0.00  0.00    +0.000 HD
ENDROOT
BRANCH   1   9
ATOM      9  C   UNL     1       4.389   3.965  18.914  0.00  0.00    +0.000 C 
ATOM     10  O   UNL     1       5.470   3.737  19.445  0.00  0.00    +0.000 OA
BRANCH   9  11
ATOM     11  O   UNL     1       3.827   3.191  17.943  0.00  0.00    +0.000 OA
BRANCH  11  13
ATOM     12  C   UNL     1       1.697   2.159  18.431  0.00  0.00    +0.000 C 
ATOM     13  C   UNL     1       3.199   1.981  18.381  0.00  0.00    +0.000 C 
ENDBRANCH  11  13
ENDBRANCH   9  11
ENDBRANCH   1   9
BRANCH   5  14
ATOM     14  C   UNL     1       2.100   8.476  18.340  0.00  0.00    +0.000 C 
ATOM     15  O   UNL     1       2.251   8.845  17.177  0.00  0.00    +0.000 OA
BRANCH  14  16
ATOM     16  C   UNL     1       1.286   9.356  19.295  0.00  0.00    +0.000 C 
BRANCH  16  17
ATOM     17  N   UNL     1       0.776  10.579  18.629  0.00  0.00    +0.000 NA
ATOM     18  C   UNL     1      -0.694  10.732  18.827  0.00  0.00    +0.000 C 
ATOM     19  C   UNL     1      -1.134  11.142  20.257  0.00  0.00    +0.000 C 
ATOM     20  N   UNL     1      -0.421  12.317  20.812  0.00  0.00    +0.000 NA
ATOM     21  C   UNL     1       1.030  12.118  20.639  0.00  0.00    +0.000 C 
ATOM     22  C   UNL     1       1.446  11.778  19.188  0.00  0.00    +0.000 C 
BRANCH  20  23
ATOM     23  C   UNL     1      -0.921  13.560  20.201  0.00  0.00    +0.000 C 
ATOM     24  C   UNL     1      -1.967  14.280  21.045  0.00  0.00    +0.000 C 
ENDBRANCH  20  23
ENDBRANCH  16  17
ENDBRANCH  14  16
ENDBRANCH   5  14
TORSDOF 7
ENDMDL
