MODEL 1
REMARK VINA RESULT:      -7.3      0.000      0.000
REMARK  Name = 
REMARK  6 active torsions:
REMARK  status: ('A' for Active; 'I' for Inactive)
REMARK    1  A    between atoms: C_1  and  C_2
REMARK    2  A    between atoms: C_5  and  N_6
REMARK    3  A    between atoms: N_9  and  C_10
REMARK    4  A    between atoms: C_10  and  C_11
REMARK    5  A    between atoms: C_13  and  C_14
REMARK    6  A    between atoms: C_22  and  C_23
REMARK                            x       y       z     vdW  Elec       q    Type
REMARK                         _______ _______ _______ _____ _____    ______ ____
ROOT
ATOM      1  N   UNL     1       5.318   5.618  18.581  0.00  0.00    +0.000 N 
ATOM      2  C   UNL     1       6.552   5.194  19.242  0.00  0.00    +0.000 C 
ATOM      3  C   UNL     1       7.741   5.293  18.274  0.00  0.00    +0.000 C 
ATOM      4  N   UNL     1       7.834   6.629  17.646  0.00  0.00    +0.000 NA
ATOM      5  C   UNL     1       6.572   6.922  16.929  0.00  0.00    +0.000 C 
ATOM      6  C   UNL     1       5.374   6.908  17.895  0.00  0.00    +0.000 C 
ENDROOT
BRANCH   1  11
ATOM      7  C   UNL     1       0.460   2.474  18.766  0.00  0.00    +0.000 C 
ATOM      8  C   UNL     1       1.711   3.293  18.694  0.00  0.00    +0.000 A 
ATOM      9  C   UNL     1       2.072   4.129  19.748  0.00  0.00    +0.000 A 
ATOM     10  C   UNL     1       3.237   4.881  19.684  0.00  0.00    +0.000 A 
ATOM     11  C   UNL     1       4.106   4.828  18.566  0.00  0.00    +0.000 A 
ATOM     12  C   UNL     1       3.729   3.961  17.478  0.00  0.00    +0.000 A 
ATOM     13  C   UNL     1       4.537   3.676  16.231  0.00  0.00    +0.000 C 
ATOM     14  C   UNL     1       2.529   3.222  17.567  0.00  0.00    +0.000 A 
ENDBRANCH   1  11
BRANCH   4  15
ATOM     15  C   UNL     1       8.206   7.738  18.561  0.00  0.00    +0.000 C 
BRANCH  15  16
ATOM     16  C   UNL     1       8.655   9.011  17.825  0.00  0.00    +0.000 C 
ATOM     17  C   UNL     1       7.586  10.098  17.797  0.00  0.00    +0.000 C 
ATOM     18  C   UNL     1       8.799  10.233  18.729  0.00  0.00    +0.000 C 
BRANCH  18  19
ATOM     19  C   UNL     1       9.624  11.405  18.284  0.00  0.00    +0.000 A 
ATOM     20  C   UNL     1      10.990  11.231  18.008  0.00  0.00    +0.000 A 
ATOM     21  C   UNL     1      11.761  12.309  17.564  0.00  0.00    +0.000 A 
ATOM     22  C   UNL     1      11.174  13.565  17.397  0.00  0.00    +0.000 A 
ATOM     23  C   UNL     1       9.815  13.744  17.670  0.00  0.00    +0.000 A 
ATOM     24  C   UNL     1       9.038  12.667  18.108  0.00  0.00    +0.000 A 
ENDBRANCH  18  19
ENDBRANCH  15  16
ENDBRANCH   4  15
TORSDOF 4
ENDMDL
MODEL 2
REMARK VINA RESULT:      -7.2      4.273      7.270
REMARK  Name = 
REMARK  6 active torsions:
REMARK  status: ('A' for Active; 'I' for Inactive)
REMARK    1  A    between atoms: C_1  and  C_2
REMARK    2  A    between atoms: C_5  and  N_6
REMARK    3  A    between atoms: N_9  and  C_10
REMARK    4  A    between atoms: C_10  and  C_11
REMARK    5  A    between atoms: C_13  and  C_14
REMARK    6  A    between atoms: C_22  and  C_23
REMARK                            x       y       z     vdW  Elec       q    Type
REMARK                         _______ _______ _______ _____ _____    ______ ____
ROOT
ATOM      1  N   UNL     1       4.461   3.869  17.476  0.00  0.00    +0.000 N 
ATOM      2  C   UNL     1       3.036   3.579  17.309  0.00  0.00    +0.000 C 
ATOM      3  C   UNL     1       2.695   2.204  17.905  0.00  0.00    +0.000 C 
ATOM      4  N   UNL     1       3.168   2.072  19.300  0.00  0.00    +0.000 NA
ATOM      5  C   UNL     1       4.631   2.295  19.345  0.00  0.00    +0.000 C 
ATOM      6  C   UNL     1       4.991   3.698  18.828  0.00  0.00    +0.000 C 
ENDROOT
BRANCH   1  11
ATOM      7  C   UNL     1       7.926   5.277  13.057  0.00  0.00    +0.000 C 
ATOM      8  C   UNL     1       7.022   4.936  14.201  0.00  0.00    +0.000 A 
ATOM      9  C   UNL     1       6.261   3.771  14.180  0.00  0.00    +0.000 A 
ATOM     10  C   UNL     1       5.429   3.452  15.245  0.00  0.00    +0.000 A 
ATOM     11  C   UNL     1       5.325   4.279  16.392  0.00  0.00    +0.000 A 
ATOM     12  C   UNL     1       6.116   5.483  16.410  0.00  0.00    +0.000 A 
ATOM     13  C   UNL     1       6.236   6.465  17.555  0.00  0.00    +0.000 C 
ATOM     14  C   UNL     1       6.939   5.788  15.303  0.00  0.00    +0.000 A 
ENDBRANCH   1  11
BRANCH   4  15
ATOM     15  C   UNL     1       2.462   2.921  20.294  0.00  0.00    +0.000 C 
BRANCH  15  16
ATOM     16  C   UNL     1       1.855   4.195  19.683  0.00  0.00    +0.000 C 
ATOM     17  C   UNL     1       0.862   4.890  20.609  0.00  0.00    +0.000 C 
ATOM     18  C   UNL     1       2.264   5.481  20.397  0.00  0.00    +0.000 C 
BRANCH  18  19
ATOM     19  C   UNL     1       2.132   6.804  19.700  0.00  0.00    +0.000 A 
ATOM     20  C   UNL     1       2.559   6.935  18.367  0.00  0.00    +0.000 A 
ATOM     21  C   UNL     1       2.414   8.152  17.698  0.00  0.00    +0.000 A 
ATOM     22  C   UNL     1       1.845   9.246  18.355  0.00  0.00    +0.000 A 
ATOM     23  C   UNL     1       1.418   9.122  19.681  0.00  0.00    +0.000 A 
ATOM     24  C   UNL     1       1.555   7.903  20.352  0.00  0.00    +0.000 A 
ENDBRANCH  18  19
ENDBRANCH  15  16
ENDBRANCH   4  15
TORSDOF 4
ENDMDL
MODEL 3
REMARK VINA RESULT:      -7.1      6.467      9.843
REMARK  Name = 
REMARK  6 active torsions:
REMARK  status: ('A' for Active; 'I' for Inactive)
REMARK    1  A    between atoms: C_1  and  C_2
REMARK    2  A    between atoms: C_5  and  N_6
REMARK    3  A    between atoms: N_9  and  C_10
REMARK    4  A    between atoms: C_10  and  C_11
REMARK    5  A    between atoms: C_13  and  C_14
REMARK    6  A    between atoms: C_22  and  C_23
REMARK                            x       y       z     vdW  Elec       q    Type
REMARK                         _______ _______ _______ _____ _____    ______ ____
ROOT
ATOM      1  N   UNL     1       0.067  10.890  20.354  0.00  0.00    +0.000 N 
ATOM      2  C   UNL     1      -0.194   9.611  19.691  0.00  0.00    +0.000 C 
ATOM      3  C   UNL     1       0.050   9.730  18.179  0.00  0.00    +0.000 C 
ATOM      4  N   UNL     1       1.383  10.294  17.875  0.00  0.00    +0.000 NA
ATOM      5  C   UNL     1       1.510  11.623  18.515  0.00  0.00    +0.000 C 
ATOM      6  C   UNL     1       1.350  11.517  20.042  0.00  0.00    +0.000 C 
ENDROOT
BRANCH   1  11
ATOM      7  C   UNL     1      -3.663  13.670  23.800  0.00  0.00    +0.000 C 
ATOM      8  C   UNL     1      -2.708  12.930  22.916  0.00  0.00    +0.000 A 
ATOM      9  C   UNL     1      -2.449  13.375  21.622  0.00  0.00    +0.000 A 
ATOM     10  C   UNL     1      -1.556  12.691  20.807  0.00  0.00    +0.000 A 
ATOM     11  C   UNL     1      -0.870  11.533  21.248  0.00  0.00    +0.000 A 
ATOM     12  C   UNL     1      -1.140  11.077  22.588  0.00  0.00    +0.000 A 
ATOM     13  C   UNL     1      -0.465   9.926  23.301  0.00  0.00    +0.000 C 
ATOM     14  C   UNL     1      -2.066  11.784  23.387  0.00  0.00    +0.000 A 
ENDBRANCH   1  11
BRANCH   4  15
ATOM     15  C   UNL     1       2.535   9.419  18.213  0.00  0.00    +0.000 C 
BRANCH  15  16
ATOM     16  C   UNL     1       2.269   7.930  17.937  0.00  0.00    +0.000 C 
ATOM     17  C   UNL     1       3.546   7.110  17.782  0.00  0.00    +0.000 C 
ATOM     18  C   UNL     1       2.710   7.001  19.066  0.00  0.00    +0.000 C 
BRANCH  18  19
ATOM     19  C   UNL     1       2.148   5.612  19.161  0.00  0.00    +0.000 A 
ATOM     20  C   UNL     1       1.834   5.072  20.419  0.00  0.00    +0.000 A 
ATOM     21  C   UNL     1       1.284   3.792  20.518  0.00  0.00    +0.000 A 
ATOM     22  C   UNL     1       1.044   3.044  19.363  0.00  0.00    +0.000 A 
ATOM     23  C   UNL     1       1.353   3.577  18.108  0.00  0.00    +0.000 A 
ATOM     24  C   UNL     1       1.899   4.860  18.004  0.00  0.00    +0.000 A 
ENDBRANCH  18  19
ENDBRANCH  15  16
ENDBRANCH   4  15
TORSDOF 4
ENDMDL
MODEL 4
REMARK VINA RESULT:      -7.1      0.554      1.412
REMARK  Name = 
REMARK  6 active torsions:
REMARK  status: ('A' for Active; 'I' for Inactive)
REMARK    1  A    between atoms: C_1  and  C_2
REMARK    2  A    between atoms: C_5  and  N_6
REMARK    3  A    between atoms: N_9  and  C_10
REMARK    4  A    between atoms: C_10  and  C_11
REMARK    5  A    between atoms: C_13  and  C_14
REMARK    6  A    between atoms: C_22  and  C_23
REMARK                            x       y       z     vdW  Elec       q    Type
REMARK                         _______ _______ _______ _____ _____    ______ ____
ROOT
ATOM      1  N   UNL     1       5.232   5.413  18.618  0.00  0.00    +0.000 N 
ATOM      2  C   UNL     1       6.507   4.970  19.184  0.00  0.00    +0.000 C 
ATOM      3  C   UNL     1       7.629   5.100  18.143  0.00  0.00    +0.000 C 
ATOM      4  N   UNL     1       7.682   6.454  17.550  0.00  0.00    +0.000 NA
ATOM      5  C   UNL     1       6.375   6.767  16.928  0.00  0.00    +0.000 C 
ATOM      6  C   UNL     1       5.244   6.723  17.969  0.00  0.00    +0.000 C 
ENDROOT
BRANCH   1  11
ATOM      7  C   UNL     1       0.472   2.118  18.593  0.00  0.00    +0.000 C 
ATOM      8  C   UNL     1       1.698   2.975  18.623  0.00  0.00    +0.000 A 
ATOM      9  C   UNL     1       2.881   2.542  18.029  0.00  0.00    +0.000 A 
ATOM     10  C   UNL     1       4.015   3.343  18.051  0.00  0.00    +0.000 A 
ATOM     11  C   UNL     1       4.021   4.623  18.659  0.00  0.00    +0.000 A 
ATOM     12  C   UNL     1       2.795   5.067  19.271  0.00  0.00    +0.000 A 
ATOM     13  C   UNL     1       2.540   6.421  19.897  0.00  0.00    +0.000 C 
ATOM     14  C   UNL     1       1.663   4.222  19.247  0.00  0.00    +0.000 A 
ENDBRANCH   1  11
BRANCH   4  15
ATOM     15  C   UNL     1       8.114   7.535  18.472  0.00  0.00    +0.000 C 
BRANCH  15  16
ATOM     16  C   UNL     1       8.561   8.814  17.744  0.00  0.00    +0.000 C 
ATOM     17  C   UNL     1       7.487   9.897  17.719  0.00  0.00    +0.000 C 
ATOM     18  C   UNL     1       8.697  10.032  18.655  0.00  0.00    +0.000 C 
BRANCH  18  19
ATOM     19  C   UNL     1       9.519  11.210  18.219  0.00  0.00    +0.000 A 
ATOM     20  C   UNL     1      10.905  11.065  18.039  0.00  0.00    +0.000 A 
ATOM     21  C   UNL     1      11.675  12.146  17.605  0.00  0.00    +0.000 A 
ATOM     22  C   UNL     1      11.068  13.378  17.349  0.00  0.00    +0.000 A 
ATOM     23  C   UNL     1       9.689  13.528  17.525  0.00  0.00    +0.000 A 
ATOM     24  C   UNL     1       8.913  12.447  17.954  0.00  0.00    +0.000 A 
ENDBRANCH  18  19
ENDBRANCH  15  16
ENDBRANCH   4  15
TORSDOF 4
ENDMDL
MODEL 5
REMARK VINA RESULT:      -7.0      4.169      7.192
REMARK  Name = 
REMARK  6 active torsions:
REMARK  status: ('A' for Active; 'I' for Inactive)
REMARK    1  A    between atoms: C_1  and  C_2
REMARK    2  A    between atoms: C_5  and  N_6
REMARK    3  A    between atoms: N_9  and  C_10
REMARK    4  A    between atoms: C_10  and  C_11
REMARK    5  A    between atoms: C_13  and  C_14
REMARK    6  A    between atoms: C_22  and  C_23
REMARK                            x       y       z     vdW  Elec       q    Type
REMARK                         _______ _______ _______ _____ _____    ______ ____
ROOT
ATOM      1  N   UNL     1       4.913   4.642  18.095  0.00  0.00    +0.000 N 
ATOM      2  C   UNL     1       4.500   4.994  16.736  0.00  0.00    +0.000 C 
ATOM      3  C   UNL     1       5.040   6.381  16.353  0.00  0.00    +0.000 C 
ATOM      4  N   UNL     1       6.499   6.488  16.576  0.00  0.00    +0.000 NA
ATOM      5  C   UNL     1       6.799   6.202  17.997  0.00  0.00    +0.000 C 
ATOM      6  C   UNL     1       6.339   4.786  18.384  0.00  0.00    +0.000 C 
ENDROOT
BRANCH   1  11
ATOM      7  C   UNL     1       1.270   2.635  22.122  0.00  0.00    +0.000 C 
ATOM      8  C   UNL     1       2.216   3.174  21.095  0.00  0.00    +0.000 A 
ATOM      9  C   UNL     1       3.153   2.342  20.488  0.00  0.00    +0.000 A 
ATOM     10  C   UNL     1       4.024   2.842  19.529  0.00  0.00    +0.000 A 
ATOM     11  C   UNL     1       3.995   4.199  19.120  0.00  0.00    +0.000 A 
ATOM     12  C   UNL     1       3.022   5.056  19.750  0.00  0.00    +0.000 A 
ATOM     13  C   UNL     1       2.748   6.505  19.414  0.00  0.00    +0.000 C 
ATOM     14  C   UNL     1       2.162   4.521  20.734  0.00  0.00    +0.000 A 
ENDBRANCH   1  11
BRANCH   4  15
ATOM     15  C   UNL     1       7.342   5.667  15.669  0.00  0.00    +0.000 C 
BRANCH  15  16
ATOM     16  C   UNL     1       6.667   5.361  14.322  0.00  0.00    +0.000 C 
ATOM     17  C   UNL     1       7.659   5.216  13.173  0.00  0.00    +0.000 C 
ATOM     18  C   UNL     1       6.985   3.972  13.771  0.00  0.00    +0.000 C 
BRANCH  18  19
ATOM     19  C   UNL     1       6.097   3.355  12.730  0.00  0.00    +0.000 A 
ATOM     20  C   UNL     1       4.848   3.935  12.446  0.00  0.00    +0.000 A 
ATOM     21  C   UNL     1       4.026   3.386  11.459  0.00  0.00    +0.000 A 
ATOM     22  C   UNL     1       4.443   2.257  10.751  0.00  0.00    +0.000 A 
ATOM     23  C   UNL     1       5.685   1.677  11.028  0.00  0.00    +0.000 A 
ATOM     24  C   UNL     1       6.514   2.226  12.011  0.00  0.00    +0.000 A 
ENDBRANCH  18  19
ENDBRANCH  15  16
ENDBRANCH   4  15
TORSDOF 4
ENDMDL
MODEL 6
REMARK VINA RESULT:      -7.0      4.816      7.281
REMARK  Name = 
REMARK  6 active torsions:
REMARK  status: ('A' for Active; 'I' for Inactive)
REMARK    1  A    between atoms: C_1  and  C_2
REMARK    2  A    between atoms: C_5  and  N_6
REMARK    3  A    between atoms: N_9  and  C_10
REMARK    4  A    between atoms: C_10  and  C_11
REMARK    5  A    between atoms: C_13  and  C_14
REMARK    6  A    between atoms: C_22  and  C_23
REMARK                            x       y       z     vdW  Elec       q    Type
REMARK                         _______ _______ _______ _____ _____    ______ ____
ROOT
ATOM      1  N   UNL     1       4.527   3.833  17.566  0.00  0.00    +0.000 N 
ATOM      2  C   UNL     1       3.108   3.504  17.419  0.00  0.00    +0.000 C 
ATOM      3  C   UNL     1       2.794   2.166  18.105  0.00  0.00    +0.000 C 
ATOM      4  N   UNL     1       3.267   2.137  19.507  0.00  0.00    +0.000 NA
ATOM      5  C   UNL     1       4.726   2.391  19.536  0.00  0.00    +0.000 C 
ATOM      6  C   UNL     1       5.058   3.764  18.926  0.00  0.00    +0.000 C 
ENDROOT
BRANCH   1  11
ATOM      7  C   UNL     1       7.821   5.110  12.980  0.00  0.00    +0.000 C 
ATOM      8  C   UNL     1       6.977   4.800  14.177  0.00  0.00    +0.000 A 
ATOM      9  C   UNL     1       5.673   4.337  14.024  0.00  0.00    +0.000 A 
ATOM     10  C   UNL     1       4.894   4.043  15.135  0.00  0.00    +0.000 A 
ATOM     11  C   UNL     1       5.385   4.186  16.457  0.00  0.00    +0.000 A 
ATOM     12  C   UNL     1       6.736   4.663  16.610  0.00  0.00    +0.000 A 
ATOM     13  C   UNL     1       7.498   4.809  17.909  0.00  0.00    +0.000 C 
ATOM     14  C   UNL     1       7.496   4.971  15.460  0.00  0.00    +0.000 A 
ENDBRANCH   1  11
BRANCH   4  15
ATOM     15  C   UNL     1       2.543   3.036  20.441  0.00  0.00    +0.000 C 
BRANCH  15  16
ATOM     16  C   UNL     1       1.920   4.259  19.747  0.00  0.00    +0.000 C 
ATOM     17  C   UNL     1       0.823   4.924  20.573  0.00  0.00    +0.000 C 
ATOM     18  C   UNL     1       2.205   5.584  20.452  0.00  0.00    +0.000 C 
BRANCH  18  19
ATOM     19  C   UNL     1       2.059   6.879  19.706  0.00  0.00    +0.000 A 
ATOM     20  C   UNL     1       1.460   7.983  20.337  0.00  0.00    +0.000 A 
ATOM     21  C   UNL     1       1.346   9.201  19.664  0.00  0.00    +0.000 A 
ATOM     22  C   UNL     1       1.826   9.325  18.359  0.00  0.00    +0.000 A 
ATOM     23  C   UNL     1       2.424   8.231  17.726  0.00  0.00    +0.000 A 
ATOM     24  C   UNL     1       2.546   7.011  18.398  0.00  0.00    +0.000 A 
ENDBRANCH  18  19
ENDBRANCH  15  16
ENDBRANCH   4  15
TORSDOF 4
ENDMDL
MODEL 7
REMARK VINA RESULT:      -7.0      5.180      7.117
REMARK  Name = 
REMARK  6 active torsions:
REMARK  status: ('A' for Active; 'I' for Inactive)
REMARK    1  A    between atoms: C_1  and  C_2
REMARK    2  A    between atoms: C_5  and  N_6
REMARK    3  A    between atoms: N_9  and  C_10
REMARK    4  A    between atoms: C_10  and  C_11
REMARK    5  A    between atoms: C_13  and  C_14
REMARK    6  A    between atoms: C_22  and  C_23
REMARK                            x       y       z     vdW  Elec       q    Type
REMARK                         _______ _______ _______ _____ _____    ______ ____
ROOT
ATOM      1  N   UNL     1       2.550   6.648  19.402  0.00  0.00    +0.000 N 
ATOM      2  C   UNL     1       3.279   5.706  20.253  0.00  0.00    +0.000 C 
ATOM      3  C   UNL     1       2.921   4.259  19.880  0.00  0.00    +0.000 C 
ATOM      4  N   UNL     1       3.087   4.002  18.433  0.00  0.00    +0.000 NA
ATOM      5  C   UNL     1       2.241   4.946  17.668  0.00  0.00    +0.000 C 
ATOM      6  C   UNL     1       2.635   6.404  17.963  0.00  0.00    +0.000 C 
ENDROOT
BRANCH   1  11
ATOM      7  C   UNL     1      -0.699  10.896  21.619  0.00  0.00    +0.000 C 
ATOM      8  C   UNL     1       0.158   9.815  21.039  0.00  0.00    +0.000 A 
ATOM      9  C   UNL     1       0.369   8.628  21.735  0.00  0.00    +0.000 A 
ATOM     10  C   UNL     1       1.158   7.622  21.191  0.00  0.00    +0.000 A 
ATOM     11  C   UNL     1       1.766   7.748  19.918  0.00  0.00    +0.000 A 
ATOM     12  C   UNL     1       1.543   8.978  19.200  0.00  0.00    +0.000 A 
ATOM     13  C   UNL     1       2.012   9.301  17.798  0.00  0.00    +0.000 C 
ATOM     14  C   UNL     1       0.750   9.989  19.788  0.00  0.00    +0.000 A 
ENDBRANCH   1  11
BRANCH   4  15
ATOM     15  C   UNL     1       4.489   4.013  17.942  0.00  0.00    +0.000 C 
BRANCH  15  16
ATOM     16  C   UNL     1       4.606   4.339  16.443  0.00  0.00    +0.000 C 
ATOM     17  C   UNL     1       5.201   5.716  16.173  0.00  0.00    +0.000 C 
ATOM     18  C   UNL     1       6.045   4.453  15.944  0.00  0.00    +0.000 C 
BRANCH  18  19
ATOM     19  C   UNL     1       6.345   4.330  14.478  0.00  0.00    +0.000 A 
ATOM     20  C   UNL     1       7.425   5.038  13.926  0.00  0.00    +0.000 A 
ATOM     21  C   UNL     1       7.732   4.909  12.569  0.00  0.00    +0.000 A 
ATOM     22  C   UNL     1       6.962   4.074  11.756  0.00  0.00    +0.000 A 
ATOM     23  C   UNL     1       5.886   3.365  12.301  0.00  0.00    +0.000 A 
ATOM     24  C   UNL     1       5.579   3.488  13.659  0.00  0.00    +0.000 A 
ENDBRANCH  18  19
ENDBRANCH  15  16
ENDBRANCH   4  15
TORSDOF 4
ENDMDL
MODEL 8
REMARK VINA RESULT:      -6.9      7.370     10.102
REMARK  Name = 
REMARK  6 active torsions:
REMARK  status: ('A' for Active; 'I' for Inactive)
REMARK    1  A    between atoms: C_1  and  C_2
REMARK    2  A    between atoms: C_5  and  N_6
REMARK    3  A    between atoms: N_9  and  C_10
REMARK    4  A    between atoms: C_10  and  C_11
REMARK    5  A    between atoms: C_13  and  C_14
REMARK    6  A    between atoms: C_22  and  C_23
REMARK                            x       y       z     vdW  Elec       q    Type
REMARK                         _______ _______ _______ _____ _____    ______ ____
ROOT
ATOM      1  N   UNL     1       1.764   8.376  19.742  0.00  0.00    +0.000 N 
ATOM      2  C   UNL     1       1.316   9.607  19.090  0.00  0.00    +0.000 C 
ATOM      3  C   UNL     1      -0.169   9.863  19.389  0.00  0.00    +0.000 C 
ATOM      4  N   UNL     1      -0.458   9.820  20.839  0.00  0.00    +0.000 NA
ATOM      5  C   UNL     1      -0.051   8.504  21.381  0.00  0.00    +0.000 C 
ATOM      6  C   UNL     1       1.452   8.260  21.165  0.00  0.00    +0.000 C 
ENDROOT
BRANCH   1  11
ATOM      7  C   UNL     1       4.540   4.254  16.772  0.00  0.00    +0.000 C 
ATOM      8  C   UNL     1       3.830   5.309  17.561  0.00  0.00    +0.000 A 
ATOM      9  C   UNL     1       3.900   6.647  17.180  0.00  0.00    +0.000 A 
ATOM     10  C   UNL     1       3.234   7.623  17.909  0.00  0.00    +0.000 A 
ATOM     11  C   UNL     1       2.454   7.310  19.050  0.00  0.00    +0.000 A 
ATOM     12  C   UNL     1       2.382   5.924  19.439  0.00  0.00    +0.000 A 
ATOM     13  C   UNL     1       1.547   5.345  20.559  0.00  0.00    +0.000 C 
ATOM     14  C   UNL     1       3.086   4.957  18.687  0.00  0.00    +0.000 A 
ENDBRANCH   1  11
BRANCH   4  15
ATOM     15  C   UNL     1       0.119  10.934  21.634  0.00  0.00    +0.000 C 
BRANCH  15  16
ATOM     16  C   UNL     1      -0.899  11.603  22.573  0.00  0.00    +0.000 C 
ATOM     17  C   UNL     1      -0.975  13.116  22.397  0.00  0.00    +0.000 C 
ATOM     18  C   UNL     1      -2.097  12.219  21.853  0.00  0.00    +0.000 C 
BRANCH  18  19
ATOM     19  C   UNL     1      -3.360  12.511  22.609  0.00  0.00    +0.000 A 
ATOM     20  C   UNL     1      -4.468  13.050  21.932  0.00  0.00    +0.000 A 
ATOM     21  C   UNL     1      -5.659  13.299  22.619  0.00  0.00    +0.000 A 
ATOM     22  C   UNL     1      -5.751  13.013  23.983  0.00  0.00    +0.000 A 
ATOM     23  C   UNL     1      -4.652  12.476  24.661  0.00  0.00    +0.000 A 
ATOM     24  C   UNL     1      -3.460  12.220  23.977  0.00  0.00    +0.000 A 
ENDBRANCH  18  19
ENDBRANCH  15  16
ENDBRANCH   4  15
TORSDOF 4
ENDMDL
MODEL 9
REMARK VINA RESULT:      -6.9      0.788      1.545
REMARK  Name = 
REMARK  6 active torsions:
REMARK  status: ('A' for Active; 'I' for Inactive)
REMARK    1  A    between atoms: C_1  and  C_2
REMARK    2  A    between atoms: C_5  and  N_6
REMARK    3  A    between atoms: N_9  and  C_10
REMARK    4  A    between atoms: C_10  and  C_11
REMARK    5  A    between atoms: C_13  and  C_14
REMARK    6  A    between atoms: C_22  and  C_23
REMARK                            x       y       z     vdW  Elec       q    Type
REMARK                         _______ _______ _______ _____ _____    ______ ____
ROOT
ATOM      1  N   UNL     1       5.298   5.488  18.612  0.00  0.00    +0.000 N 
ATOM      2  C   UNL     1       6.561   5.054  19.212  0.00  0.00    +0.000 C 
ATOM      3  C   UNL     1       7.703   5.161  18.190  0.00  0.00    +0.000 C 
ATOM      4  N   UNL     1       7.771   6.503  17.572  0.00  0.00    +0.000 NA
ATOM      5  C   UNL     1       6.477   6.807  16.919  0.00  0.00    +0.000 C 
ATOM      6  C   UNL     1       5.326   6.785  17.939  0.00  0.00    +0.000 C 
ENDROOT
BRANCH   1  11
ATOM      7  C   UNL     1       0.576   2.139  18.687  0.00  0.00    +0.000 C 
ATOM      8  C   UNL     1       1.785   3.021  18.683  0.00  0.00    +0.000 A 
ATOM      9  C   UNL     1       3.060   2.478  18.818  0.00  0.00    +0.000 A 
ATOM     10  C   UNL     1       4.181   3.297  18.806  0.00  0.00    +0.000 A 
ATOM     11  C   UNL     1       4.085   4.701  18.645  0.00  0.00    +0.000 A 
ATOM     12  C   UNL     1       2.764   5.260  18.503  0.00  0.00    +0.000 A 
ATOM     13  C   UNL     1       2.423   6.709  18.233  0.00  0.00    +0.000 C 
ATOM     14  C   UNL     1       1.642   4.401  18.538  0.00  0.00    +0.000 A 
ENDBRANCH   1  11
BRANCH   4  15
ATOM     15  C   UNL     1       8.188   7.601  18.482  0.00  0.00    +0.000 C 
BRANCH  15  16
ATOM     16  C   UNL     1       8.596   8.885  17.739  0.00  0.00    +0.000 C 
ATOM     17  C   UNL     1       7.509   9.955  17.748  0.00  0.00    +0.000 C 
ATOM     18  C   UNL     1       8.747  10.104  18.645  0.00  0.00    +0.000 C 
BRANCH  18  19
ATOM     19  C   UNL     1       9.540  11.292  18.182  0.00  0.00    +0.000 A 
ATOM     20  C   UNL     1       8.924  12.553  18.101  0.00  0.00    +0.000 A 
ATOM     21  C   UNL     1       9.660  13.670  17.699  0.00  0.00    +0.000 A 
ATOM     22  C   UNL     1      11.012  13.537  17.376  0.00  0.00    +0.000 A 
ATOM     23  C   UNL     1      11.630  12.285  17.456  0.00  0.00    +0.000 A 
ATOM     24  C   UNL     1      10.899  11.165  17.862  0.00  0.00    +0.000 A 
ENDBRANCH  18  19
ENDBRANCH  15  16
ENDBRANCH   4  15
TORSDOF 4
ENDMDL
