MODEL 1
REMARK VINA RESULT:      -8.6      0.000      0.000
REMARK  Name = 
REMARK  7 active torsions:
REMARK  status: ('A' for Active; 'I' for Inactive)
REMARK    1  A    between atoms: C_2  and  O_3
REMARK    2  A    between atoms: C_2  and  C_4
REMARK    3  A    between atoms: C_9  and  C_10
REMARK    4  A    between atoms: C_13  and  C_14
REMARK    5  A    between atoms: C_14  and  C_15
REMARK    6  A    between atoms: C_15  and  C_16
REMARK    7  A    between atoms: C_19  and  C_20
REMARK                            x       y       z     vdW  Elec       q    Type
REMARK                         _______ _______ _______ _____ _____    ______ ____
ROOT
ATOM      1  C   UNL     1       9.484  12.059  19.317  0.00  0.00    +0.000 A 
ATOM      2  C   UNL     1       8.698  12.107  18.148  0.00  0.00    +0.000 A 
ATOM      3  C   UNL     1       8.157  10.954  17.571  0.00  0.00    +0.000 A 
ATOM      4  C   UNL     1       8.425   9.696  18.114  0.00  0.00    +0.000 A 
ATOM      5  C   UNL     1       9.179   9.626  19.286  0.00  0.00    +0.000 A 
ATOM      6  C   UNL     1       9.674  10.791  19.889  0.00  0.00    +0.000 A 
ENDROOT
BRANCH   1  12
ATOM      7  C   UNL     1      10.957  14.182  19.273  0.00  0.00    +0.000 A 
ATOM      8  C   UNL     1      11.427  15.345  19.923  0.00  0.00    +0.000 A 
ATOM      9  C   UNL     1      11.017  15.654  21.215  0.00  0.00    +0.000 A 
ATOM     10  C   UNL     1      10.124  14.818  21.864  0.00  0.00    +0.000 A 
ATOM     11  C   UNL     1       9.654  13.666  21.225  0.00  0.00    +0.000 A 
ATOM     12  C   UNL     1      10.046  13.306  19.912  0.00  0.00    +0.000 A 
BRANCH   7  14
ATOM     13  O   UNL     1      12.333  13.265  17.537  0.00  0.00    +0.000 OA
ATOM     14  C   UNL     1      11.420  13.997  17.872  0.00  0.00    +0.000 C 
BRANCH  14  15
ATOM     15  O   UNL     1      10.710  14.736  16.990  0.00  0.00    +0.000 OA
ATOM     16  H   UNL     1      10.502  15.644  17.282  0.00  0.00    +0.000 HD
ENDBRANCH  14  15
ENDBRANCH   7  14
ENDBRANCH   1  12
BRANCH   4  17
ATOM     17  C   UNL     1       7.913   8.444  17.448  0.00  0.00    +0.000 C 
BRANCH  17  18
ATOM     18  C   UNL     1       7.911   7.244  18.400  0.00  0.00    +0.000 C 
BRANCH  18  19
ATOM     19  C   UNL     1       7.128   6.114  17.836  0.00  0.00    +0.000 A 
ATOM     20  N   UNL     1       7.527   5.259  16.920  0.00  0.00    +0.000 NA
ATOM     21  C   UNL     1       6.476   4.395  16.744  0.00  0.00    +0.000 A 
ATOM     22  C   UNL     1       5.405   4.729  17.551  0.00  0.00    +0.000 A 
ATOM     23  N   UNL     1       5.849   5.832  18.242  0.00  0.00    +0.000 N 
ATOM     24  H   UNL     1       5.337   6.331  18.955  0.00  0.00    +0.000 HD
BRANCH  22  25
ATOM     25  C   UNL     1       4.096   4.119  17.744  0.00  0.00    +0.000 A 
ATOM     26  C   UNL     1       3.980   2.733  17.897  0.00  0.00    +0.000 A 
ATOM     27  C   UNL     1       2.731   2.141  18.102  0.00  0.00    +0.000 A 
ATOM     28  C   UNL     1       1.584   2.929  18.150  0.00  0.00    +0.000 A 
ATOM     29  C   UNL     1       1.683   4.310  17.989  0.00  0.00    +0.000 A 
ATOM     30  C   UNL     1       2.932   4.903  17.787  0.00  0.00    +0.000 A 
ENDBRANCH  22  25
ENDBRANCH  18  19
ENDBRANCH  17  18
ENDBRANCH   4  17
TORSDOF 7
ENDMDL
MODEL 2
REMARK VINA RESULT:      -8.6      5.970      9.330
REMARK  Name = 
REMARK  7 active torsions:
REMARK  status: ('A' for Active; 'I' for Inactive)
REMARK    1  A    between atoms: C_2  and  O_3
REMARK    2  A    between atoms: C_2  and  C_4
REMARK    3  A    between atoms: C_9  and  C_10
REMARK    4  A    between atoms: C_13  and  C_14
REMARK    5  A    between atoms: C_14  and  C_15
REMARK    6  A    between atoms: C_15  and  C_16
REMARK    7  A    between atoms: C_19  and  C_20
REMARK                            x       y       z     vdW  Elec       q    Type
REMARK                         _______ _______ _______ _____ _____    ______ ____
ROOT
ATOM      1  C   UNL     1       4.156   6.053  17.731  0.00  0.00    +0.000 A 
ATOM      2  C   UNL     1       3.823   5.312  18.882  0.00  0.00    +0.000 A 
ATOM      3  C   UNL     1       2.902   5.781  19.825  0.00  0.00    +0.000 A 
ATOM      4  C   UNL     1       2.315   7.038  19.678  0.00  0.00    +0.000 A 
ATOM      5  C   UNL     1       2.609   7.778  18.532  0.00  0.00    +0.000 A 
ATOM      6  C   UNL     1       3.493   7.279  17.564  0.00  0.00    +0.000 A 
ENDROOT
BRANCH   1  12
ATOM      7  C   UNL     1       6.515   5.864  16.690  0.00  0.00    +0.000 A 
ATOM      8  C   UNL     1       7.367   5.303  15.713  0.00  0.00    +0.000 A 
ATOM      9  C   UNL     1       6.875   4.414  14.764  0.00  0.00    +0.000 A 
ATOM     10  C   UNL     1       5.535   4.063  14.790  0.00  0.00    +0.000 A 
ATOM     11  C   UNL     1       4.687   4.613  15.756  0.00  0.00    +0.000 A 
ATOM     12  C   UNL     1       5.140   5.526  16.740  0.00  0.00    +0.000 A 
BRANCH   7  14
ATOM     13  O   UNL     1       7.606   6.379  18.762  0.00  0.00    +0.000 OA
ATOM     14  C   UNL     1       7.173   6.750  17.687  0.00  0.00    +0.000 C 
BRANCH  14  15
ATOM     15  O   UNL     1       7.243   8.035  17.270  0.00  0.00    +0.000 OA
ATOM     16  H   UNL     1       6.614   8.277  16.565  0.00  0.00    +0.000 HD
ENDBRANCH  14  15
ENDBRANCH   7  14
ENDBRANCH   1  12
BRANCH   4  17
ATOM     17  C   UNL     1       1.385   7.583  20.733  0.00  0.00    +0.000 C 
BRANCH  17  18
ATOM     18  C   UNL     1       1.647   9.064  21.022  0.00  0.00    +0.000 C 
BRANCH  18  19
ATOM     19  C   UNL     1       0.502   9.906  20.586  0.00  0.00    +0.000 A 
ATOM     20  N   UNL     1       0.021  10.962  21.203  0.00  0.00    +0.000 NA
ATOM     21  C   UNL     1      -1.008  11.409  20.414  0.00  0.00    +0.000 A 
ATOM     22  C   UNL     1      -1.177  10.609  19.300  0.00  0.00    +0.000 A 
ATOM     23  N   UNL     1      -0.194   9.655  19.432  0.00  0.00    +0.000 N 
ATOM     24  H   UNL     1       0.005   8.915  18.775  0.00  0.00    +0.000 HD
BRANCH  22  25
ATOM     25  C   UNL     1      -2.098  10.680  18.173  0.00  0.00    +0.000 A 
ATOM     26  C   UNL     1      -1.862   9.922  17.021  0.00  0.00    +0.000 A 
ATOM     27  C   UNL     1      -2.750   9.970  15.943  0.00  0.00    +0.000 A 
ATOM     28  C   UNL     1      -3.880  10.782  16.005  0.00  0.00    +0.000 A 
ATOM     29  C   UNL     1      -4.122  11.550  17.142  0.00  0.00    +0.000 A 
ATOM     30  C   UNL     1      -3.237  11.500  18.221  0.00  0.00    +0.000 A 
ENDBRANCH  22  25
ENDBRANCH  18  19
ENDBRANCH  17  18
ENDBRANCH   4  17
TORSDOF 7
ENDMDL
MODEL 3
REMARK VINA RESULT:      -8.5      7.924     11.177
REMARK  Name = 
REMARK  7 active torsions:
REMARK  status: ('A' for Active; 'I' for Inactive)
REMARK    1  A    between atoms: C_2  and  O_3
REMARK    2  A    between atoms: C_2  and  C_4
REMARK    3  A    between atoms: C_9  and  C_10
REMARK    4  A    between atoms: C_13  and  C_14
REMARK    5  A    between atoms: C_14  and  C_15
REMARK    6  A    between atoms: C_15  and  C_16
REMARK    7  A    between atoms: C_19  and  C_20
REMARK                            x       y       z     vdW  Elec       q    Type
REMARK                         _______ _______ _______ _____ _____    ______ ____
ROOT
ATOM      1  C   UNL     1       2.883   7.122  18.300  0.00  0.00    +0.000 A 
ATOM      2  C   UNL     1       2.489   8.274  17.590  0.00  0.00    +0.000 A 
ATOM      3  C   UNL     1       1.686   9.263  18.168  0.00  0.00    +0.000 A 
ATOM      4  C   UNL     1       1.201   9.113  19.469  0.00  0.00    +0.000 A 
ATOM      5  C   UNL     1       1.600   7.993  20.200  0.00  0.00    +0.000 A 
ATOM      6  C   UNL     1       2.448   7.031  19.632  0.00  0.00    +0.000 A 
ENDROOT
BRANCH   1  12
ATOM      7  C   UNL     1       3.453   4.699  17.605  0.00  0.00    +0.000 A 
ATOM      8  C   UNL     1       4.333   3.797  16.967  0.00  0.00    +0.000 A 
ATOM      9  C   UNL     1       5.514   4.243  16.385  0.00  0.00    +0.000 A 
ATOM     10  C   UNL     1       5.821   5.594  16.420  0.00  0.00    +0.000 A 
ATOM     11  C   UNL     1       4.954   6.492  17.049  0.00  0.00    +0.000 A 
ATOM     12  C   UNL     1       3.742   6.085  17.659  0.00  0.00    +0.000 A 
BRANCH   7  14
ATOM     13  O   UNL     1       2.097   3.529  19.198  0.00  0.00    +0.000 OA
ATOM     14  C   UNL     1       2.194   4.108  18.132  0.00  0.00    +0.000 C 
BRANCH  14  15
ATOM     15  O   UNL     1       1.149   4.281  17.291  0.00  0.00    +0.000 OA
ATOM     16  H   UNL     1       0.884   3.486  16.791  0.00  0.00    +0.000 HD
ENDBRANCH  14  15
ENDBRANCH   7  14
ENDBRANCH   1  12
BRANCH   4  17
ATOM     17  C   UNL     1       0.268  10.135  20.067  0.00  0.00    +0.000 C 
BRANCH  17  18
ATOM     18  C   UNL     1      -0.113  11.226  19.061  0.00  0.00    +0.000 C 
BRANCH  18  19
ATOM     19  C   UNL     1      -1.481  11.006  18.524  0.00  0.00    +0.000 A 
ATOM     20  N   UNL     1      -1.853  10.076  17.673  0.00  0.00    +0.000 NA
ATOM     21  C   UNL     1      -3.201  10.259  17.498  0.00  0.00    +0.000 A 
ATOM     22  C   UNL     1      -3.668  11.327  18.240  0.00  0.00    +0.000 A 
ATOM     23  N   UNL     1      -2.546  11.787  18.891  0.00  0.00    +0.000 N 
ATOM     24  H   UNL     1      -2.516  12.548  19.554  0.00  0.00    +0.000 HD
BRANCH  22  25
ATOM     25  C   UNL     1      -4.999  11.896  18.410  0.00  0.00    +0.000 A 
ATOM     26  C   UNL     1      -5.778  12.212  17.292  0.00  0.00    +0.000 A 
ATOM     27  C   UNL     1      -7.064  12.739  17.445  0.00  0.00    +0.000 A 
ATOM     28  C   UNL     1      -7.579  12.961  18.720  0.00  0.00    +0.000 A 
ATOM     29  C   UNL     1      -6.810  12.660  19.842  0.00  0.00    +0.000 A 
ATOM     30  C   UNL     1      -5.528  12.130  19.689  0.00  0.00    +0.000 A 
ENDBRANCH  22  25
ENDBRANCH  18  19
ENDBRANCH  17  18
ENDBRANCH   4  17
TORSDOF 7
ENDMDL
MODEL 4
REMARK VINA RESULT:      -8.5      4.262     10.893
REMARK  Name = 
REMARK  7 active torsions:
REMARK  status: ('A' for Active; 'I' for Inactive)
REMARK    1  A    between atoms: C_2  and  O_3
REMARK    2  A    between atoms: C_2  and  C_4
REMARK    3  A    between atoms: C_9  and  C_10
REMARK    4  A    between atoms: C_13  and  C_14
REMARK    5  A    between atoms: C_14  and  C_15
REMARK    6  A    between atoms: C_15  and  C_16
REMARK    7  A    between atoms: C_19  and  C_20
REMARK                            x       y       z     vdW  Elec       q    Type
REMARK                         _______ _______ _______ _____ _____    ______ ____
ROOT
ATOM      1  C   UNL     1       4.412   5.166  18.896  0.00  0.00    +0.000 A 
ATOM      2  C   UNL     1       4.344   6.090  17.834  0.00  0.00    +0.000 A 
ATOM      3  C   UNL     1       5.471   6.785  17.383  0.00  0.00    +0.000 A 
ATOM      4  C   UNL     1       6.706   6.620  18.013  0.00  0.00    +0.000 A 
ATOM      5  C   UNL     1       6.803   5.690  19.049  0.00  0.00    +0.000 A 
ATOM      6  C   UNL     1       5.681   4.958  19.462  0.00  0.00    +0.000 A 
ENDROOT
BRANCH   1  12
ATOM      7  C   UNL     1       2.913   3.071  19.101  0.00  0.00    +0.000 A 
ATOM      8  C   UNL     1       1.729   2.471  19.587  0.00  0.00    +0.000 A 
ATOM      9  C   UNL     1       0.803   3.208  20.316  0.00  0.00    +0.000 A 
ATOM     10  C   UNL     1       1.054   4.544  20.581  0.00  0.00    +0.000 A 
ATOM     11  C   UNL     1       2.224   5.144  20.105  0.00  0.00    +0.000 A 
ATOM     12  C   UNL     1       3.195   4.436  19.355  0.00  0.00    +0.000 A 
BRANCH   7  14
ATOM     13  O   UNL     1       3.951   2.082  17.181  0.00  0.00    +0.000 OA
ATOM     14  C   UNL     1       3.852   2.163  18.391  0.00  0.00    +0.000 C 
BRANCH  14  15
ATOM     15  O   UNL     1       4.598   1.422  19.241  0.00  0.00    +0.000 OA
ATOM     16  H   UNL     1       4.905   0.567  18.885  0.00  0.00    +0.000 HD
ENDBRANCH  14  15
ENDBRANCH   7  14
ENDBRANCH   1  12
BRANCH   4  17
ATOM     17  C   UNL     1       7.905   7.428  17.583  0.00  0.00    +0.000 C 
BRANCH  17  18
ATOM     18  C   UNL     1       7.575   8.917  17.442  0.00  0.00    +0.000 C 
BRANCH  18  19
ATOM     19  C   UNL     1       8.514   9.752  18.236  0.00  0.00    +0.000 A 
ATOM     20  N   UNL     1       9.007   9.471  19.423  0.00  0.00    +0.000 NA
ATOM     21  C   UNL     1       9.833  10.521  19.732  0.00  0.00    +0.000 A 
ATOM     22  C   UNL     1       9.840  11.473  18.731  0.00  0.00    +0.000 A 
ATOM     23  N   UNL     1       8.989  10.955  17.782  0.00  0.00    +0.000 N 
ATOM     24  H   UNL     1       8.775  11.370  16.887  0.00  0.00    +0.000 HD
BRANCH  22  25
ATOM     25  C   UNL     1      10.561  12.731  18.579  0.00  0.00    +0.000 A 
ATOM     26  C   UNL     1      10.704  13.313  17.316  0.00  0.00    +0.000 A 
ATOM     27  C   UNL     1      11.377  14.529  17.164  0.00  0.00    +0.000 A 
ATOM     28  C   UNL     1      11.919  15.170  18.275  0.00  0.00    +0.000 A 
ATOM     29  C   UNL     1      11.793  14.596  19.539  0.00  0.00    +0.000 A 
ATOM     30  C   UNL     1      11.118  13.383  19.691  0.00  0.00    +0.000 A 
ENDBRANCH  22  25
ENDBRANCH  18  19
ENDBRANCH  17  18
ENDBRANCH   4  17
TORSDOF 7
ENDMDL
MODEL 5
REMARK VINA RESULT:      -8.5      8.100     11.332
REMARK  Name = 
REMARK  7 active torsions:
REMARK  status: ('A' for Active; 'I' for Inactive)
REMARK    1  A    between atoms: C_2  and  O_3
REMARK    2  A    between atoms: C_2  and  C_4
REMARK    3  A    between atoms: C_9  and  C_10
REMARK    4  A    between atoms: C_13  and  C_14
REMARK    5  A    between atoms: C_14  and  C_15
REMARK    6  A    between atoms: C_15  and  C_16
REMARK    7  A    between atoms: C_19  and  C_20
REMARK                            x       y       z     vdW  Elec       q    Type
REMARK                         _______ _______ _______ _____ _____    ______ ____
ROOT
ATOM      1  C   UNL     1       2.653   7.321  18.401  0.00  0.00    +0.000 A 
ATOM      2  C   UNL     1       2.248   7.368  19.749  0.00  0.00    +0.000 A 
ATOM      3  C   UNL     1       1.425   8.388  20.241  0.00  0.00    +0.000 A 
ATOM      4  C   UNL     1       1.017   9.433  19.410  0.00  0.00    +0.000 A 
ATOM      5  C   UNL     1       1.385   9.392  18.064  0.00  0.00    +0.000 A 
ATOM      6  C   UNL     1       2.165   8.339  17.566  0.00  0.00    +0.000 A 
ENDROOT
BRANCH   1  12
ATOM      7  C   UNL     1       3.168   4.850  17.844  0.00  0.00    +0.000 A 
ATOM      8  C   UNL     1       4.070   3.882  17.348  0.00  0.00    +0.000 A 
ATOM      9  C   UNL     1       5.341   4.246  16.919  0.00  0.00    +0.000 A 
ATOM     10  C   UNL     1       5.719   5.577  16.963  0.00  0.00    +0.000 A 
ATOM     11  C   UNL     1       4.830   6.541  17.450  0.00  0.00    +0.000 A 
ATOM     12  C   UNL     1       3.528   6.219  17.903  0.00  0.00    +0.000 A 
BRANCH   7  14
ATOM     13  O   UNL     1       1.479   4.044  19.341  0.00  0.00    +0.000 OA
ATOM     14  C   UNL     1       1.819   4.345  18.212  0.00  0.00    +0.000 C 
BRANCH  14  15
ATOM     15  O   UNL     1       0.992   4.251  17.146  0.00  0.00    +0.000 OA
ATOM     16  H   UNL     1       1.397   3.885  16.338  0.00  0.00    +0.000 HD
ENDBRANCH  14  15
ENDBRANCH   7  14
ENDBRANCH   1  12
BRANCH   4  17
ATOM     17  C   UNL     1       0.201  10.577  19.954  0.00  0.00    +0.000 C 
BRANCH  17  18
ATOM     18  C   UNL     1      -0.241  11.546  18.853  0.00  0.00    +0.000 C 
BRANCH  18  19
ATOM     19  C   UNL     1      -1.627  11.251  18.405  0.00  0.00    +0.000 A 
ATOM     20  N   UNL     1      -2.015  10.242  17.657  0.00  0.00    +0.000 NA
ATOM     21  C   UNL     1      -3.374  10.381  17.531  0.00  0.00    +0.000 A 
ATOM     22  C   UNL     1      -3.832  11.502  18.198  0.00  0.00    +0.000 A 
ATOM     23  N   UNL     1      -2.693  12.040  18.752  0.00  0.00    +0.000 N 
ATOM     24  H   UNL     1      -2.651  12.857  19.344  0.00  0.00    +0.000 HD
BRANCH  22  25
ATOM     25  C   UNL     1      -5.168  12.055  18.381  0.00  0.00    +0.000 A 
ATOM     26  C   UNL     1      -5.674  12.263  19.668  0.00  0.00    +0.000 A 
ATOM     27  C   UNL     1      -6.946  12.811  19.853  0.00  0.00    +0.000 A 
ATOM     28  C   UNL     1      -7.727  13.151  18.751  0.00  0.00    +0.000 A 
ATOM     29  C   UNL     1      -7.239  12.940  17.463  0.00  0.00    +0.000 A 
ATOM     30  C   UNL     1      -5.966  12.396  17.278  0.00  0.00    +0.000 A 
ENDBRANCH  22  25
ENDBRANCH  18  19
ENDBRANCH  17  18
ENDBRANCH   4  17
TORSDOF 7
ENDMDL
MODEL 6
REMARK VINA RESULT:      -8.4      7.529     10.376
REMARK  Name = 
REMARK  7 active torsions:
REMARK  status: ('A' for Active; 'I' for Inactive)
REMARK    1  A    between atoms: C_2  and  O_3
REMARK    2  A    between atoms: C_2  and  C_4
REMARK    3  A    between atoms: C_9  and  C_10
REMARK    4  A    between atoms: C_13  and  C_14
REMARK    5  A    between atoms: C_14  and  C_15
REMARK    6  A    between atoms: C_15  and  C_16
REMARK    7  A    between atoms: C_19  and  C_20
REMARK                            x       y       z     vdW  Elec       q    Type
REMARK                         _______ _______ _______ _____ _____    ______ ____
ROOT
ATOM      1  C   UNL     1       3.238   6.371  18.544  0.00  0.00    +0.000 A 
ATOM      2  C   UNL     1       2.722   7.659  18.298  0.00  0.00    +0.000 A 
ATOM      3  C   UNL     1       1.913   8.324  19.225  0.00  0.00    +0.000 A 
ATOM      4  C   UNL     1       1.543   7.701  20.419  0.00  0.00    +0.000 A 
ATOM      5  C   UNL     1       2.064   6.437  20.696  0.00  0.00    +0.000 A 
ATOM      6  C   UNL     1       2.918   5.798  19.785  0.00  0.00    +0.000 A 
ENDROOT
BRANCH   1  12
ATOM      7  C   UNL     1       3.936   4.357  17.084  0.00  0.00    +0.000 A 
ATOM      8  C   UNL     1       4.808   3.803  16.120  0.00  0.00    +0.000 A 
ATOM      9  C   UNL     1       5.862   4.546  15.602  0.00  0.00    +0.000 A 
ATOM     10  C   UNL     1       6.048   5.851  16.026  0.00  0.00    +0.000 A 
ATOM     11  C   UNL     1       5.187   6.406  16.978  0.00  0.00    +0.000 A 
ATOM     12  C   UNL     1       4.102   5.688  17.538  0.00  0.00    +0.000 A 
BRANCH   7  14
ATOM     13  O   UNL     1       1.652   3.632  17.168  0.00  0.00    +0.000 OA
ATOM     14  C   UNL     1       2.811   3.484  17.512  0.00  0.00    +0.000 C 
BRANCH  14  15
ATOM     15  O   UNL     1       3.211   2.490  18.337  0.00  0.00    +0.000 OA
ATOM     16  H   UNL     1       2.973   2.609  19.276  0.00  0.00    +0.000 HD
ENDBRANCH  14  15
ENDBRANCH   7  14
ENDBRANCH   1  12
BRANCH   4  17
ATOM     17  C   UNL     1       0.603   8.380  21.383  0.00  0.00    +0.000 C 
BRANCH  17  18
ATOM     18  C   UNL     1       0.865   9.886  21.479  0.00  0.00    +0.000 C 
BRANCH  18  19
ATOM     19  C   UNL     1      -0.182  10.658  20.760  0.00  0.00    +0.000 A 
ATOM     20  N   UNL     1      -0.673  11.829  21.104  0.00  0.00    +0.000 NA
ATOM     21  C   UNL     1      -1.588  12.141  20.130  0.00  0.00    +0.000 A 
ATOM     22  C   UNL     1      -1.676  11.143  19.179  0.00  0.00    +0.000 A 
ATOM     23  N   UNL     1      -0.764  10.205  19.604  0.00  0.00    +0.000 N 
ATOM     24  H   UNL     1      -0.533   9.344  19.129  0.00  0.00    +0.000 HD
BRANCH  22  25
ATOM     25  C   UNL     1      -2.466  11.017  17.961  0.00  0.00    +0.000 A 
ATOM     26  C   UNL     1      -1.962  10.313  16.863  0.00  0.00    +0.000 A 
ATOM     27  C   UNL     1      -2.720  10.171  15.698  0.00  0.00    +0.000 A 
ATOM     28  C   UNL     1      -3.990  10.740  15.618  0.00  0.00    +0.000 A 
ATOM     29  C   UNL     1      -4.501  11.453  16.700  0.00  0.00    +0.000 A 
ATOM     30  C   UNL     1      -3.744  11.591  17.866  0.00  0.00    +0.000 A 
ENDBRANCH  22  25
ENDBRANCH  18  19
ENDBRANCH  17  18
ENDBRANCH   4  17
TORSDOF 7
ENDMDL
MODEL 7
REMARK VINA RESULT:      -8.4      3.872     10.646
REMARK  Name = 
REMARK  7 active torsions:
REMARK  status: ('A' for Active; 'I' for Inactive)
REMARK    1  A    between atoms: C_2  and  O_3
REMARK    2  A    between atoms: C_2  and  C_4
REMARK    3  A    between atoms: C_9  and  C_10
REMARK    4  A    between atoms: C_13  and  C_14
REMARK    5  A    between atoms: C_14  and  C_15
REMARK    6  A    between atoms: C_15  and  C_16
REMARK    7  A    between atoms: C_19  and  C_20
REMARK                            x       y       z     vdW  Elec       q    Type
REMARK                         _______ _______ _______ _____ _____    ______ ____
ROOT
ATOM      1  C   UNL     1       4.710   5.182  18.091  0.00  0.00    +0.000 A 
ATOM      2  C   UNL     1       4.642   6.166  17.085  0.00  0.00    +0.000 A 
ATOM      3  C   UNL     1       5.693   7.059  16.849  0.00  0.00    +0.000 A 
ATOM      4  C   UNL     1       6.836   7.037  17.650  0.00  0.00    +0.000 A 
ATOM      5  C   UNL     1       6.937   6.054  18.635  0.00  0.00    +0.000 A 
ATOM      6  C   UNL     1       5.903   5.127  18.831  0.00  0.00    +0.000 A 
ENDROOT
BRANCH   1  12
ATOM      7  C   UNL     1       2.516   4.438  19.236  0.00  0.00    +0.000 A 
ATOM      8  C   UNL     1       1.482   3.485  19.371  0.00  0.00    +0.000 A 
ATOM      9  C   UNL     1       1.485   2.318  18.615  0.00  0.00    +0.000 A 
ATOM     10  C   UNL     1       2.507   2.099  17.707  0.00  0.00    +0.000 A 
ATOM     11  C   UNL     1       3.533   3.040  17.567  0.00  0.00    +0.000 A 
ATOM     12  C   UNL     1       3.576   4.240  18.317  0.00  0.00    +0.000 A 
BRANCH   7  14
ATOM     13  O   UNL     1       2.234   6.792  19.595  0.00  0.00    +0.000 OA
ATOM     14  C   UNL     1       2.365   5.672  20.053  0.00  0.00    +0.000 C 
BRANCH  14  15
ATOM     15  O   UNL     1       2.390   5.419  21.381  0.00  0.00    +0.000 OA
ATOM     16  H   UNL     1       2.605   4.499  21.625  0.00  0.00    +0.000 HD
ENDBRANCH  14  15
ENDBRANCH   7  14
ENDBRANCH   1  12
BRANCH   4  17
ATOM     17  C   UNL     1       7.935   8.051  17.454  0.00  0.00    +0.000 C 
BRANCH  17  18
ATOM     18  C   UNL     1       8.628   8.411  18.771  0.00  0.00    +0.000 C 
BRANCH  18  19
ATOM     19  C   UNL     1       9.006   9.848  18.802  0.00  0.00    +0.000 A 
ATOM     20  N   UNL     1       9.336  10.599  17.774  0.00  0.00    +0.000 NA
ATOM     21  C   UNL     1       9.578  11.844  18.295  0.00  0.00    +0.000 A 
ATOM     22  C   UNL     1       9.409  11.863  19.666  0.00  0.00    +0.000 A 
ATOM     23  N   UNL     1       9.040  10.572  19.966  0.00  0.00    +0.000 N 
ATOM     24  H   UNL     1       8.799  10.222  20.883  0.00  0.00    +0.000 HD
BRANCH  22  25
ATOM     25  C   UNL     1       9.521  12.929  20.653  0.00  0.00    +0.000 A 
ATOM     26  C   UNL     1       8.776  12.876  21.835  0.00  0.00    +0.000 A 
ATOM     27  C   UNL     1       8.891  13.884  22.796  0.00  0.00    +0.000 A 
ATOM     28  C   UNL     1       9.749  14.960  22.580  0.00  0.00    +0.000 A 
ATOM     29  C   UNL     1      10.490  15.031  21.401  0.00  0.00    +0.000 A 
ATOM     30  C   UNL     1      10.377  14.022  20.443  0.00  0.00    +0.000 A 
ENDBRANCH  22  25
ENDBRANCH  18  19
ENDBRANCH  17  18
ENDBRANCH   4  17
TORSDOF 7
ENDMDL
MODEL 8
REMARK VINA RESULT:      -8.3      8.418     11.438
REMARK  Name = 
REMARK  7 active torsions:
REMARK  status: ('A' for Active; 'I' for Inactive)
REMARK    1  A    between atoms: C_2  and  O_3
REMARK    2  A    between atoms: C_2  and  C_4
REMARK    3  A    between atoms: C_9  and  C_10
REMARK    4  A    between atoms: C_13  and  C_14
REMARK    5  A    between atoms: C_14  and  C_15
REMARK    6  A    between atoms: C_15  and  C_16
REMARK    7  A    between atoms: C_19  and  C_20
REMARK                            x       y       z     vdW  Elec       q    Type
REMARK                         _______ _______ _______ _____ _____    ______ ____
ROOT
ATOM      1  C   UNL     1       2.749   7.207  18.418  0.00  0.00    +0.000 A 
ATOM      2  C   UNL     1       2.188   8.343  17.801  0.00  0.00    +0.000 A 
ATOM      3  C   UNL     1       1.363   9.232  18.497  0.00  0.00    +0.000 A 
ATOM      4  C   UNL     1       1.024   8.991  19.830  0.00  0.00    +0.000 A 
ATOM      5  C   UNL     1       1.590   7.887  20.469  0.00  0.00    +0.000 A 
ATOM      6  C   UNL     1       2.459   7.028  19.780  0.00  0.00    +0.000 A 
ENDROOT
BRANCH   1  12
ATOM      7  C   UNL     1       3.425   4.882  17.515  0.00  0.00    +0.000 A 
ATOM      8  C   UNL     1       4.317   4.087  16.759  0.00  0.00    +0.000 A 
ATOM      9  C   UNL     1       5.426   4.651  16.140  0.00  0.00    +0.000 A 
ATOM     10  C   UNL     1       5.648   6.014  16.254  0.00  0.00    +0.000 A 
ATOM     11  C   UNL     1       4.769   6.806  16.999  0.00  0.00    +0.000 A 
ATOM     12  C   UNL     1       3.629   6.277  17.651  0.00  0.00    +0.000 A 
BRANCH   7  14
ATOM     13  O   UNL     1       2.240   3.562  19.127  0.00  0.00    +0.000 OA
ATOM     14  C   UNL     1       2.244   4.171  18.074  0.00  0.00    +0.000 C 
BRANCH  14  15
ATOM     15  O   UNL     1       1.155   4.272  17.278  0.00  0.00    +0.000 OA
ATOM     16  H   UNL     1       0.734   5.152  17.261  0.00  0.00    +0.000 HD
ENDBRANCH  14  15
ENDBRANCH   7  14
ENDBRANCH   1  12
BRANCH   4  17
ATOM     17  C   UNL     1       0.069   9.902  20.560  0.00  0.00    +0.000 C 
BRANCH  17  18
ATOM     18  C   UNL     1       0.707  11.252  20.901  0.00  0.00    +0.000 C 
BRANCH  18  19
ATOM     19  C   UNL     1      -0.211  12.087  21.718  0.00  0.00    +0.000 A 
ATOM     20  N   UNL     1       0.094  13.190  22.366  0.00  0.00    +0.000 NA
ATOM     21  C   UNL     1      -1.076  13.607  22.948  0.00  0.00    +0.000 A 
ATOM     22  C   UNL     1      -2.117  12.742  22.669  0.00  0.00    +0.000 A 
ATOM     23  N   UNL     1      -1.537  11.778  21.877  0.00  0.00    +0.000 N 
ATOM     24  H   UNL     1      -2.013  10.994  21.453  0.00  0.00    +0.000 HD
BRANCH  22  25
ATOM     25  C   UNL     1      -3.530  12.761  23.027  0.00  0.00    +0.000 A 
ATOM     26  C   UNL     1      -4.501  13.014  22.053  0.00  0.00    +0.000 A 
ATOM     27  C   UNL     1      -5.859  13.015  22.384  0.00  0.00    +0.000 A 
ATOM     28  C   UNL     1      -6.258  12.770  23.696  0.00  0.00    +0.000 A 
ATOM     29  C   UNL     1      -5.300  12.527  24.679  0.00  0.00    +0.000 A 
ATOM     30  C   UNL     1      -3.944  12.522  24.348  0.00  0.00    +0.000 A 
ENDBRANCH  22  25
ENDBRANCH  18  19
ENDBRANCH  17  18
ENDBRANCH   4  17
TORSDOF 7
ENDMDL
MODEL 9
REMARK VINA RESULT:      -8.3      7.500     10.402
REMARK  Name = 
REMARK  7 active torsions:
REMARK  status: ('A' for Active; 'I' for Inactive)
REMARK    1  A    between atoms: C_2  and  O_3
REMARK    2  A    between atoms: C_2  and  C_4
REMARK    3  A    between atoms: C_9  and  C_10
REMARK    4  A    between atoms: C_13  and  C_14
REMARK    5  A    between atoms: C_14  and  C_15
REMARK    6  A    between atoms: C_15  and  C_16
REMARK    7  A    between atoms: C_19  and  C_20
REMARK                            x       y       z     vdW  Elec       q    Type
REMARK                         _______ _______ _______ _____ _____    ______ ____
ROOT
ATOM      1  C   UNL     1       3.190   6.397  18.520  0.00  0.00    +0.000 A 
ATOM      2  C   UNL     1       2.767   5.766  19.707  0.00  0.00    +0.000 A 
ATOM      3  C   UNL     1       1.907   6.394  20.615  0.00  0.00    +0.000 A 
ATOM      4  C   UNL     1       1.477   7.704  20.395  0.00  0.00    +0.000 A 
ATOM      5  C   UNL     1       1.862   8.339  19.214  0.00  0.00    +0.000 A 
ATOM      6  C   UNL     1       2.680   7.684  18.282  0.00  0.00    +0.000 A 
ENDROOT
BRANCH   1  12
ATOM      7  C   UNL     1       3.979   4.354  17.148  0.00  0.00    +0.000 A 
ATOM      8  C   UNL     1       4.897   3.789  16.234  0.00  0.00    +0.000 A 
ATOM      9  C   UNL     1       5.956   4.537  15.734  0.00  0.00    +0.000 A 
ATOM     10  C   UNL     1       6.101   5.858  16.125  0.00  0.00    +0.000 A 
ATOM     11  C   UNL     1       5.195   6.424  17.028  0.00  0.00    +0.000 A 
ATOM     12  C   UNL     1       4.103   5.701  17.568  0.00  0.00    +0.000 A 
BRANCH   7  14
ATOM     13  O   UNL     1       1.709   3.583  17.163  0.00  0.00    +0.000 OA
ATOM     14  C   UNL     1       2.855   3.472  17.560  0.00  0.00    +0.000 C 
BRANCH  14  15
ATOM     15  O   UNL     1       3.240   2.518  18.437  0.00  0.00    +0.000 OA
ATOM     16  H   UNL     1       3.758   1.785  18.051  0.00  0.00    +0.000 HD
ENDBRANCH  14  15
ENDBRANCH   7  14
ENDBRANCH   1  12
BRANCH   4  17
ATOM     17  C   UNL     1       0.619   8.415  21.411  0.00  0.00    +0.000 C 
BRANCH  17  18
ATOM     18  C   UNL     1       0.934   9.912  21.485  0.00  0.00    +0.000 C 
BRANCH  18  19
ATOM     19  C   UNL     1      -0.051  10.705  20.705  0.00  0.00    +0.000 A 
ATOM     20  N   UNL     1      -0.388  11.960  20.907  0.00  0.00    +0.000 NA
ATOM     21  C   UNL     1      -1.307  12.253  19.931  0.00  0.00    +0.000 A 
ATOM     22  C   UNL     1      -1.554  11.160  19.123  0.00  0.00    +0.000 A 
ATOM     23  N   UNL     1      -0.735  10.182  19.639  0.00  0.00    +0.000 N 
ATOM     24  H   UNL     1      -0.626   9.246  19.273  0.00  0.00    +0.000 HD
BRANCH  22  25
ATOM     25  C   UNL     1      -2.410  10.976  17.958  0.00  0.00    +0.000 A 
ATOM     26  C   UNL     1      -3.713  11.484  17.954  0.00  0.00    +0.000 A 
ATOM     27  C   UNL     1      -4.535  11.329  16.835  0.00  0.00    +0.000 A 
ATOM     28  C   UNL     1      -4.063  10.657  15.710  0.00  0.00    +0.000 A 
ATOM     29  C   UNL     1      -2.770  10.137  15.704  0.00  0.00    +0.000 A 
ATOM     30  C   UNL     1      -1.947  10.295  16.821  0.00  0.00    +0.000 A 
ENDBRANCH  22  25
ENDBRANCH  18  19
ENDBRANCH  17  18
ENDBRANCH   4  17
TORSDOF 7
ENDMDL
