MODEL 1
REMARK VINA RESULT:      -7.8      0.000      0.000
REMARK  Name = 
REMARK  10 active torsions:
REMARK  status: ('A' for Active; 'I' for Inactive)
REMARK    1  A    between atoms: C_1  and  C_2
REMARK    2  A    between atoms: C_2  and  C_3
REMARK    3  A    between atoms: C_2  and  C_5
REMARK    4  A    between atoms: C_2  and  N_19
REMARK    5  A    between atoms: C_5  and  O_6
REMARK    6  A    between atoms: O_6  and  C_7
REMARK    7  A    between atoms: C_9  and  C_10
REMARK    8  A    between atoms: C_14  and  C_15
REMARK    9  A    between atoms: C_20  and  C_22
REMARK   10  A    between atoms: C_25  and  C_26
REMARK                            x       y       z     vdW  Elec       q    Type
REMARK                         _______ _______ _______ _____ _____    ______ ____
ROOT
ATOM      1  C   UNL     1       2.202   2.360  17.751  0.00  0.00    +0.000 C 
ATOM      2  C   UNL     1       3.193   3.304  18.452  0.00  0.00    +0.000 C 
ENDROOT
BRANCH   2   3
ATOM      3  N   UNL     1       2.609   4.658  18.573  0.00  0.00    +0.000 N 
ATOM      4  C   UNL     1       3.219   5.690  19.256  0.00  0.00    +0.000 C 
ATOM      5  O   UNL     1       4.320   5.613  19.784  0.00  0.00    +0.000 OA
ATOM      6  H   UNL     1       1.654   4.768  18.254  0.00  0.00    +0.000 HD
BRANCH   4   7
ATOM      7  C   UNL     1       2.492   6.978  19.289  0.00  0.00    +0.000 A 
ATOM      8  C   UNL     1       2.403   7.782  18.150  0.00  0.00    +0.000 A 
ATOM      9  C   UNL     1       1.708   8.990  18.207  0.00  0.00    +0.000 A 
ATOM     10  C   UNL     1       1.082   9.404  19.393  0.00  0.00    +0.000 A 
ATOM     11  C   UNL     1       1.169   8.584  20.532  0.00  0.00    +0.000 A 
ATOM     12  C   UNL     1       1.866   7.374  20.478  0.00  0.00    +0.000 A 
BRANCH  10  13
ATOM     13  C   UNL     1       0.309  10.700  19.445  0.00  0.00    +0.000 C 
ATOM     14  F   UNL     1       0.631  11.475  20.518  0.00  0.00    +0.000 F 
ATOM     15  F   UNL     1       0.523  11.477  18.347  0.00  0.00    +0.000 F 
ATOM     16  F   UNL     1      -1.036  10.506  19.514  0.00  0.00    +0.000 F 
ENDBRANCH  10  13
ENDBRANCH   4   7
ENDBRANCH   2   3
BRANCH   2  17
ATOM     17  C   UNL     1       3.576   2.726  19.772  0.00  0.00    +0.000 C 
ATOM     18  N   UNL     1       3.926   2.322  20.800  0.00  0.00    +0.000 NA
ENDBRANCH   2  17
BRANCH   2  19
ATOM     19  C   UNL     1       4.513   3.389  17.627  0.00  0.00    +0.000 C 
BRANCH  19  20
ATOM     20  O   UNL     1       4.505   4.531  16.756  0.00  0.00    +0.000 OA
BRANCH  20  21
ATOM     21  C   UNL     1       5.394   4.536  15.712  0.00  0.00    +0.000 A 
ATOM     22  C   UNL     1       5.241   3.754  14.557  0.00  0.00    +0.000 A 
ATOM     23  C   UNL     1       6.151   3.851  13.495  0.00  0.00    +0.000 A 
ATOM     24  C   UNL     1       7.211   4.752  13.572  0.00  0.00    +0.000 A 
ATOM     25  C   UNL     1       7.369   5.536  14.716  0.00  0.00    +0.000 A 
ATOM     26  C   UNL     1       6.474   5.429  15.802  0.00  0.00    +0.000 A 
BRANCH  26  27
ATOM     27  C   UNL     1       6.751   6.263  17.035  0.00  0.00    +0.000 C 
ATOM     28  F   UNL     1       7.036   5.568  18.174  0.00  0.00    +0.000 F 
ATOM     29  F   UNL     1       7.823   7.087  16.850  0.00  0.00    +0.000 F 
ATOM     30  F   UNL     1       5.710   7.081  17.350  0.00  0.00    +0.000 F 
ENDBRANCH  26  27
BRANCH  23  31
ATOM     31  C   UNL     1       5.989   3.022  12.333  0.00  0.00    +0.000 C 
ATOM     32  N   UNL     1       5.862   2.354  11.397  0.00  0.00    +0.000 NA
ENDBRANCH  23  31
ENDBRANCH  20  21
ENDBRANCH  19  20
ENDBRANCH   2  19
TORSDOF 9
ENDMDL
MODEL 2
REMARK VINA RESULT:      -7.8      0.983      1.373
REMARK  Name = 
REMARK  10 active torsions:
REMARK  status: ('A' for Active; 'I' for Inactive)
REMARK    1  A    between atoms: C_1  and  C_2
REMARK    2  A    between atoms: C_2  and  C_3
REMARK    3  A    between atoms: C_2  and  C_5
REMARK    4  A    between atoms: C_2  and  N_19
REMARK    5  A    between atoms: C_5  and  O_6
REMARK    6  A    between atoms: O_6  and  C_7
REMARK    7  A    between atoms: C_9  and  C_10
REMARK    8  A    between atoms: C_14  and  C_15
REMARK    9  A    between atoms: C_20  and  C_22
REMARK   10  A    between atoms: C_25  and  C_26
REMARK                            x       y       z     vdW  Elec       q    Type
REMARK                         _______ _______ _______ _____ _____    ______ ____
ROOT
ATOM      1  C   UNL     1       1.785   2.373  18.611  0.00  0.00    +0.000 C 
ATOM      2  C   UNL     1       3.064   3.207  18.794  0.00  0.00    +0.000 C 
ENDROOT
BRANCH   2   3
ATOM      3  N   UNL     1       2.734   4.649  18.814  0.00  0.00    +0.000 N 
ATOM      4  C   UNL     1       2.243   5.300  19.928  0.00  0.00    +0.000 C 
ATOM      5  O   UNL     1       2.080   4.774  21.019  0.00  0.00    +0.000 OA
ATOM      6  H   UNL     1       2.743   5.127  17.921  0.00  0.00    +0.000 HD
BRANCH   4   7
ATOM      7  C   UNL     1       1.956   6.744  19.771  0.00  0.00    +0.000 A 
ATOM      8  C   UNL     1       2.233   7.405  18.572  0.00  0.00    +0.000 A 
ATOM      9  C   UNL     1       1.949   8.765  18.451  0.00  0.00    +0.000 A 
ATOM     10  C   UNL     1       1.373   9.478  19.515  0.00  0.00    +0.000 A 
ATOM     11  C   UNL     1       1.089   8.802  20.714  0.00  0.00    +0.000 A 
ATOM     12  C   UNL     1       1.374   7.439  20.840  0.00  0.00    +0.000 A 
BRANCH  10  13
ATOM     13  C   UNL     1       1.043  10.944  19.370  0.00  0.00    +0.000 C 
ATOM     14  F   UNL     1       1.727  11.552  18.360  0.00  0.00    +0.000 F 
ATOM     15  F   UNL     1      -0.276  11.159  19.109  0.00  0.00    +0.000 F 
ATOM     16  F   UNL     1       1.327  11.658  20.494  0.00  0.00    +0.000 F 
ENDBRANCH  10  13
ENDBRANCH   4   7
ENDBRANCH   2   3
BRANCH   2  17
ATOM     17  C   UNL     1       3.769   2.763  20.031  0.00  0.00    +0.000 C 
ATOM     18  N   UNL     1       4.292   2.355  20.981  0.00  0.00    +0.000 NA
ENDBRANCH   2  17
BRANCH   2  19
ATOM     19  C   UNL     1       4.049   2.925  17.620  0.00  0.00    +0.000 C 
BRANCH  19  20
ATOM     20  O   UNL     1       5.219   3.752  17.718  0.00  0.00    +0.000 OA
BRANCH  20  21
ATOM     21  C   UNL     1       5.839   4.113  16.549  0.00  0.00    +0.000 A 
ATOM     22  C   UNL     1       5.524   3.557  15.300  0.00  0.00    +0.000 A 
ATOM     23  C   UNL     1       6.148   4.013  14.129  0.00  0.00    +0.000 A 
ATOM     24  C   UNL     1       7.078   5.049  14.200  0.00  0.00    +0.000 A 
ATOM     25  C   UNL     1       7.395   5.609  15.438  0.00  0.00    +0.000 A 
ATOM     26  C   UNL     1       6.792   5.141  16.626  0.00  0.00    +0.000 A 
BRANCH  26  27
ATOM     27  C   UNL     1       7.238   5.752  17.937  0.00  0.00    +0.000 C 
ATOM     28  F   UNL     1       7.933   6.924  17.844  0.00  0.00    +0.000 F 
ATOM     29  F   UNL     1       6.173   6.039  18.742  0.00  0.00    +0.000 F 
ATOM     30  F   UNL     1       8.026   4.910  18.659  0.00  0.00    +0.000 F 
ENDBRANCH  26  27
BRANCH  23  31
ATOM     31  C   UNL     1       5.829   3.412  12.864  0.00  0.00    +0.000 C 
ATOM     32  N   UNL     1       5.571   2.931  11.844  0.00  0.00    +0.000 NA
ENDBRANCH  23  31
ENDBRANCH  20  21
ENDBRANCH  19  20
ENDBRANCH   2  19
TORSDOF 9
ENDMDL
MODEL 3
REMARK VINA RESULT:      -7.7      0.780      1.174
REMARK  Name = 
REMARK  10 active torsions:
REMARK  status: ('A' for Active; 'I' for Inactive)
REMARK    1  A    between atoms: C_1  and  C_2
REMARK    2  A    between atoms: C_2  and  C_3
REMARK    3  A    between atoms: C_2  and  C_5
REMARK    4  A    between atoms: C_2  and  N_19
REMARK    5  A    between atoms: C_5  and  O_6
REMARK    6  A    between atoms: O_6  and  C_7
REMARK    7  A    between atoms: C_9  and  C_10
REMARK    8  A    between atoms: C_14  and  C_15
REMARK    9  A    between atoms: C_20  and  C_22
REMARK   10  A    between atoms: C_25  and  C_26
REMARK                            x       y       z     vdW  Elec       q    Type
REMARK                         _______ _______ _______ _____ _____    ______ ____
ROOT
ATOM      1  C   UNL     1       1.912   2.407  18.340  0.00  0.00    +0.000 C 
ATOM      2  C   UNL     1       3.178   3.264  18.504  0.00  0.00    +0.000 C 
ENDROOT
BRANCH   2   3
ATOM      3  N   UNL     1       2.817   4.696  18.586  0.00  0.00    +0.000 N 
ATOM      4  C   UNL     1       2.311   5.288  19.726  0.00  0.00    +0.000 C 
ATOM      5  O   UNL     1       2.158   4.712  20.793  0.00  0.00    +0.000 OA
ATOM      6  H   UNL     1       2.815   5.213  17.714  0.00  0.00    +0.000 HD
BRANCH   4   7
ATOM      7  C   UNL     1       1.992   6.730  19.631  0.00  0.00    +0.000 A 
ATOM      8  C   UNL     1       1.415   7.410  20.707  0.00  0.00    +0.000 A 
ATOM      9  C   UNL     1       1.127   8.770  20.592  0.00  0.00    +0.000 A 
ATOM     10  C   UNL     1       1.423   9.471  19.413  0.00  0.00    +0.000 A 
ATOM     11  C   UNL     1       2.012   8.781  18.338  0.00  0.00    +0.000 A 
ATOM     12  C   UNL     1       2.300   7.418  18.450  0.00  0.00    +0.000 A 
BRANCH  10  13
ATOM     13  C   UNL     1       1.133  10.949  19.301  0.00  0.00    +0.000 C 
ATOM     14  F   UNL     1       1.251  11.610  20.487  0.00  0.00    +0.000 F 
ATOM     15  F   UNL     1       1.974  11.581  18.437  0.00  0.00    +0.000 F 
ATOM     16  F   UNL     1      -0.127  11.203  18.856  0.00  0.00    +0.000 F 
ENDBRANCH  10  13
ENDBRANCH   4   7
ENDBRANCH   2   3
BRANCH   2  17
ATOM     17  C   UNL     1       3.939   2.796  19.698  0.00  0.00    +0.000 C 
ATOM     18  N   UNL     1       4.588   2.429  20.585  0.00  0.00    +0.000 NA
ENDBRANCH   2  17
BRANCH   2  19
ATOM     19  C   UNL     1       4.125   3.046  17.285  0.00  0.00    +0.000 C 
BRANCH  19  20
ATOM     20  O   UNL     1       5.195   4.004  17.284  0.00  0.00    +0.000 OA
BRANCH  20  21
ATOM     21  C   UNL     1       5.831   4.241  16.093  0.00  0.00    +0.000 A 
ATOM     22  C   UNL     1       5.543   3.548  14.908  0.00  0.00    +0.000 A 
ATOM     23  C   UNL     1       6.183   3.879  13.705  0.00  0.00    +0.000 A 
ATOM     24  C   UNL     1       7.102   4.927  13.676  0.00  0.00    +0.000 A 
ATOM     25  C   UNL     1       7.392   5.623  14.850  0.00  0.00    +0.000 A 
ATOM     26  C   UNL     1       6.773   5.282  16.072  0.00  0.00    +0.000 A 
BRANCH  26  27
ATOM     27  C   UNL     1       7.191   6.038  17.315  0.00  0.00    +0.000 C 
ATOM     28  F   UNL     1       7.944   5.341  18.213  0.00  0.00    +0.000 F 
ATOM     29  F   UNL     1       7.942   7.135  17.003  0.00  0.00    +0.000 F 
ATOM     30  F   UNL     1       6.124   6.513  18.014  0.00  0.00    +0.000 F 
ENDBRANCH  26  27
BRANCH  23  31
ATOM     31  C   UNL     1       5.892   3.140  12.508  0.00  0.00    +0.000 C 
ATOM     32  N   UNL     1       5.654   2.546  11.545  0.00  0.00    +0.000 NA
ENDBRANCH  23  31
ENDBRANCH  20  21
ENDBRANCH  19  20
ENDBRANCH   2  19
TORSDOF 9
ENDMDL
MODEL 4
REMARK VINA RESULT:      -7.5      4.585     10.298
REMARK  Name = 
REMARK  10 active torsions:
REMARK  status: ('A' for Active; 'I' for Inactive)
REMARK    1  A    between atoms: C_1  and  C_2
REMARK    2  A    between atoms: C_2  and  C_3
REMARK    3  A    between atoms: C_2  and  C_5
REMARK    4  A    between atoms: C_2  and  N_19
REMARK    5  A    between atoms: C_5  and  O_6
REMARK    6  A    between atoms: O_6  and  C_7
REMARK    7  A    between atoms: C_9  and  C_10
REMARK    8  A    between atoms: C_14  and  C_15
REMARK    9  A    between atoms: C_20  and  C_22
REMARK   10  A    between atoms: C_25  and  C_26
REMARK                            x       y       z     vdW  Elec       q    Type
REMARK                         _______ _______ _______ _____ _____    ______ ____
ROOT
ATOM      1  C   UNL     1       1.041  11.683  19.091  0.00  0.00    +0.000 C 
ATOM      2  C   UNL     1       0.380  10.482  19.789  0.00  0.00    +0.000 C 
ENDROOT
BRANCH   2   3
ATOM      3  N   UNL     1       1.236   9.283  19.658  0.00  0.00    +0.000 N 
ATOM      4  C   UNL     1       1.771   8.858  18.459  0.00  0.00    +0.000 C 
ATOM      5  O   UNL     1       1.641   9.450  17.397  0.00  0.00    +0.000 OA
ATOM      6  H   UNL     1       1.301   8.683  20.472  0.00  0.00    +0.000 HD
BRANCH   4   7
ATOM      7  C   UNL     1       2.596   7.630  18.505  0.00  0.00    +0.000 A 
ATOM      8  C   UNL     1       2.455   6.709  19.545  0.00  0.00    +0.000 A 
ATOM      9  C   UNL     1       3.242   5.558  19.562  0.00  0.00    +0.000 A 
ATOM     10  C   UNL     1       4.168   5.305  18.538  0.00  0.00    +0.000 A 
ATOM     11  C   UNL     1       4.298   6.233  17.491  0.00  0.00    +0.000 A 
ATOM     12  C   UNL     1       3.511   7.388  17.471  0.00  0.00    +0.000 A 
BRANCH  10  13
ATOM     13  C   UNL     1       5.002   4.045  18.547  0.00  0.00    +0.000 C 
ATOM     14  F   UNL     1       4.655   3.165  17.566  0.00  0.00    +0.000 F 
ATOM     15  F   UNL     1       6.328   4.297  18.370  0.00  0.00    +0.000 F 
ATOM     16  F   UNL     1       4.901   3.358  19.717  0.00  0.00    +0.000 F 
ENDBRANCH  10  13
ENDBRANCH   4   7
ENDBRANCH   2   3
BRANCH   2  17
ATOM     17  C   UNL     1       0.097  10.832  21.210  0.00  0.00    +0.000 C 
ATOM     18  N   UNL     1      -0.082  11.159  22.307  0.00  0.00    +0.000 NA
ENDBRANCH   2  17
BRANCH   2  19
ATOM     19  C   UNL     1      -1.007  10.193  19.139  0.00  0.00    +0.000 C 
BRANCH  19  20
ATOM     20  O   UNL     1      -1.512  11.354  18.460  0.00  0.00    +0.000 OA
BRANCH  20  21
ATOM     21  C   UNL     1      -2.812  11.714  18.704  0.00  0.00    +0.000 A 
ATOM     22  C   UNL     1      -3.229  12.370  19.872  0.00  0.00    +0.000 A 
ATOM     23  C   UNL     1      -4.563  12.771  20.036  0.00  0.00    +0.000 A 
ATOM     24  C   UNL     1      -5.486  12.537  19.018  0.00  0.00    +0.000 A 
ATOM     25  C   UNL     1      -5.078  11.887  17.852  0.00  0.00    +0.000 A 
ATOM     26  C   UNL     1      -3.744  11.457  17.686  0.00  0.00    +0.000 A 
BRANCH  26  27
ATOM     27  C   UNL     1      -3.395  10.699  16.424  0.00  0.00    +0.000 C 
ATOM     28  F   UNL     1      -4.382  10.615  15.485  0.00  0.00    +0.000 F 
ATOM     29  F   UNL     1      -2.340  11.272  15.773  0.00  0.00    +0.000 F 
ATOM     30  F   UNL     1      -3.014   9.417  16.678  0.00  0.00    +0.000 F 
ENDBRANCH  26  27
BRANCH  23  31
ATOM     31  C   UNL     1      -4.975  13.418  21.250  0.00  0.00    +0.000 C 
ATOM     32  N   UNL     1      -5.309  13.939  22.228  0.00  0.00    +0.000 NA
ENDBRANCH  23  31
ENDBRANCH  20  21
ENDBRANCH  19  20
ENDBRANCH   2  19
TORSDOF 9
ENDMDL
MODEL 5
REMARK VINA RESULT:      -7.5      4.460      7.415
REMARK  Name = 
REMARK  10 active torsions:
REMARK  status: ('A' for Active; 'I' for Inactive)
REMARK    1  A    between atoms: C_1  and  C_2
REMARK    2  A    between atoms: C_2  and  C_3
REMARK    3  A    between atoms: C_2  and  C_5
REMARK    4  A    between atoms: C_2  and  N_19
REMARK    5  A    between atoms: C_5  and  O_6
REMARK    6  A    between atoms: O_6  and  C_7
REMARK    7  A    between atoms: C_9  and  C_10
REMARK    8  A    between atoms: C_14  and  C_15
REMARK    9  A    between atoms: C_20  and  C_22
REMARK   10  A    between atoms: C_25  and  C_26
REMARK                            x       y       z     vdW  Elec       q    Type
REMARK                         _______ _______ _______ _____ _____    ______ ____
ROOT
ATOM      1  C   UNL     1       6.461   5.651  18.403  0.00  0.00    +0.000 C 
ATOM      2  C   UNL     1       6.279   6.517  17.145  0.00  0.00    +0.000 C 
ENDROOT
BRANCH   2   3
ATOM      3  N   UNL     1       6.898   7.845  17.346  0.00  0.00    +0.000 N 
ATOM      4  C   UNL     1       7.967   8.065  18.191  0.00  0.00    +0.000 C 
ATOM      5  O   UNL     1       8.545   7.187  18.816  0.00  0.00    +0.000 OA
ATOM      6  H   UNL     1       6.409   8.637  16.945  0.00  0.00    +0.000 HD
BRANCH   4   7
ATOM      7  C   UNL     1       8.456   9.459  18.283  0.00  0.00    +0.000 A 
ATOM      8  C   UNL     1       7.933  10.460  17.461  0.00  0.00    +0.000 A 
ATOM      9  C   UNL     1       8.410  11.766  17.571  0.00  0.00    +0.000 A 
ATOM     10  C   UNL     1       9.402  12.093  18.509  0.00  0.00    +0.000 A 
ATOM     11  C   UNL     1       9.916  11.081  19.339  0.00  0.00    +0.000 A 
ATOM     12  C   UNL     1       9.441   9.771  19.230  0.00  0.00    +0.000 A 
BRANCH  10  13
ATOM     13  C   UNL     1       9.898  13.513  18.643  0.00  0.00    +0.000 C 
ATOM     14  F   UNL     1      10.775  13.870  17.664  0.00  0.00    +0.000 F 
ATOM     15  F   UNL     1       8.887  14.425  18.588  0.00  0.00    +0.000 F 
ATOM     16  F   UNL     1      10.543  13.734  19.820  0.00  0.00    +0.000 F 
ENDBRANCH  10  13
ENDBRANCH   4   7
ENDBRANCH   2   3
BRANCH   2  17
ATOM     17  C   UNL     1       6.839   5.797  15.965  0.00  0.00    +0.000 C 
ATOM     18  N   UNL     1       7.261   5.294  15.010  0.00  0.00    +0.000 NA
ENDBRANCH   2  17
BRANCH   2  19
ATOM     19  C   UNL     1       4.760   6.702  16.847  0.00  0.00    +0.000 C 
BRANCH  19  20
ATOM     20  O   UNL     1       4.030   5.495  17.120  0.00  0.00    +0.000 OA
BRANCH  20  21
ATOM     21  C   UNL     1       3.225   5.480  18.230  0.00  0.00    +0.000 A 
ATOM     22  C   UNL     1       2.871   6.632  18.947  0.00  0.00    +0.000 A 
ATOM     23  C   UNL     1       1.991   6.560  20.037  0.00  0.00    +0.000 A 
ATOM     24  C   UNL     1       1.440   5.333  20.402  0.00  0.00    +0.000 A 
ATOM     25  C   UNL     1       1.786   4.183  19.692  0.00  0.00    +0.000 A 
ATOM     26  C   UNL     1       2.689   4.238  18.609  0.00  0.00    +0.000 A 
BRANCH  26  27
ATOM     27  C   UNL     1       3.067   2.939  17.931  0.00  0.00    +0.000 C 
ATOM     28  F   UNL     1       2.606   1.800  18.526  0.00  0.00    +0.000 F 
ATOM     29  F   UNL     1       2.590   2.884  16.653  0.00  0.00    +0.000 F 
ATOM     30  F   UNL     1       4.415   2.783  17.826  0.00  0.00    +0.000 F 
ENDBRANCH  26  27
BRANCH  23  31
ATOM     31  C   UNL     1       1.662   7.749  20.774  0.00  0.00    +0.000 C 
ATOM     32  N   UNL     1       1.395   8.706  21.365  0.00  0.00    +0.000 NA
ENDBRANCH  23  31
ENDBRANCH  20  21
ENDBRANCH  19  20
ENDBRANCH   2  19
TORSDOF 9
ENDMDL
MODEL 6
REMARK VINA RESULT:      -7.5      0.718      1.292
REMARK  Name = 
REMARK  10 active torsions:
REMARK  status: ('A' for Active; 'I' for Inactive)
REMARK    1  A    between atoms: C_1  and  C_2
REMARK    2  A    between atoms: C_2  and  C_3
REMARK    3  A    between atoms: C_2  and  C_5
REMARK    4  A    between atoms: C_2  and  N_19
REMARK    5  A    between atoms: C_5  and  O_6
REMARK    6  A    between atoms: O_6  and  C_7
REMARK    7  A    between atoms: C_9  and  C_10
REMARK    8  A    between atoms: C_14  and  C_15
REMARK    9  A    between atoms: C_20  and  C_22
REMARK   10  A    between atoms: C_25  and  C_26
REMARK                            x       y       z     vdW  Elec       q    Type
REMARK                         _______ _______ _______ _____ _____    ______ ____
ROOT
ATOM      1  C   UNL     1       1.222   2.484  18.440  0.00  0.00    +0.000 C 
ATOM      2  C   UNL     1       2.448   3.384  18.668  0.00  0.00    +0.000 C 
ENDROOT
BRANCH   2   3
ATOM      3  N   UNL     1       2.034   4.802  18.741  0.00  0.00    +0.000 N 
ATOM      4  C   UNL     1       2.719   5.758  19.463  0.00  0.00    +0.000 C 
ATOM      5  O   UNL     1       3.761   5.549  20.070  0.00  0.00    +0.000 OA
ATOM      6  H   UNL     1       1.125   5.028  18.354  0.00  0.00    +0.000 HD
BRANCH   4   7
ATOM      7  C   UNL     1       2.160   7.128  19.438  0.00  0.00    +0.000 A 
ATOM      8  C   UNL     1       1.564   7.681  20.574  0.00  0.00    +0.000 A 
ATOM      9  C   UNL     1       1.047   8.976  20.524  0.00  0.00    +0.000 A 
ATOM     10  C   UNL     1       1.132   9.738  19.348  0.00  0.00    +0.000 A 
ATOM     11  C   UNL     1       1.741   9.177  18.213  0.00  0.00    +0.000 A 
ATOM     12  C   UNL     1       2.259   7.879  18.259  0.00  0.00    +0.000 A 
BRANCH  10  13
ATOM     13  C   UNL     1       0.594  11.149  19.306  0.00  0.00    +0.000 C 
ATOM     14  F   UNL     1       1.176  11.917  18.342  0.00  0.00    +0.000 F 
ATOM     15  F   UNL     1      -0.744  11.189  19.056  0.00  0.00    +0.000 F 
ATOM     16  F   UNL     1       0.780  11.817  20.477  0.00  0.00    +0.000 F 
ENDBRANCH  10  13
ENDBRANCH   4   7
ENDBRANCH   2   3
BRANCH   2  17
ATOM     17  C   UNL     1       3.169   2.934  19.893  0.00  0.00    +0.000 C 
ATOM     18  N   UNL     1       3.693   2.526  20.843  0.00  0.00    +0.000 NA
ENDBRANCH   2  17
BRANCH   2  19
ATOM     19  C   UNL     1       3.457   3.208  17.493  0.00  0.00    +0.000 C 
BRANCH  19  20
ATOM     20  O   UNL     1       4.061   4.462  17.138  0.00  0.00    +0.000 OA
BRANCH  20  21
ATOM     21  C   UNL     1       5.044   4.443  16.182  0.00  0.00    +0.000 A 
ATOM     22  C   UNL     1       4.878   3.876  14.909  0.00  0.00    +0.000 A 
ATOM     23  C   UNL     1       5.900   3.945  13.951  0.00  0.00    +0.000 A 
ATOM     24  C   UNL     1       7.090   4.604  14.254  0.00  0.00    +0.000 A 
ATOM     25  C   UNL     1       7.262   5.172  15.517  0.00  0.00    +0.000 A 
ATOM     26  C   UNL     1       6.250   5.088  16.498  0.00  0.00    +0.000 A 
BRANCH  26  27
ATOM     27  C   UNL     1       6.538   5.669  17.866  0.00  0.00    +0.000 C 
ATOM     28  F   UNL     1       6.375   4.820  18.922  0.00  0.00    +0.000 F 
ATOM     29  F   UNL     1       7.828   6.105  17.962  0.00  0.00    +0.000 F 
ATOM     30  F   UNL     1       5.763   6.754  18.140  0.00  0.00    +0.000 F 
ENDBRANCH  26  27
BRANCH  23  31
ATOM     31  C   UNL     1       5.718   3.336  12.663  0.00  0.00    +0.000 C 
ATOM     32  N   UNL     1       5.575   2.846  11.625  0.00  0.00    +0.000 NA
ENDBRANCH  23  31
ENDBRANCH  20  21
ENDBRANCH  19  20
ENDBRANCH   2  19
TORSDOF 9
ENDMDL
MODEL 7
REMARK VINA RESULT:      -7.5      1.011      1.133
REMARK  Name = 
REMARK  10 active torsions:
REMARK  status: ('A' for Active; 'I' for Inactive)
REMARK    1  A    between atoms: C_1  and  C_2
REMARK    2  A    between atoms: C_2  and  C_3
REMARK    3  A    between atoms: C_2  and  C_5
REMARK    4  A    between atoms: C_2  and  N_19
REMARK    5  A    between atoms: C_5  and  O_6
REMARK    6  A    between atoms: O_6  and  C_7
REMARK    7  A    between atoms: C_9  and  C_10
REMARK    8  A    between atoms: C_14  and  C_15
REMARK    9  A    between atoms: C_20  and  C_22
REMARK   10  A    between atoms: C_25  and  C_26
REMARK                            x       y       z     vdW  Elec       q    Type
REMARK                         _______ _______ _______ _____ _____    ______ ____
ROOT
ATOM      1  C   UNL     1       1.037   2.613  18.511  0.00  0.00    +0.000 C 
ATOM      2  C   UNL     1       2.302   3.474  18.668  0.00  0.00    +0.000 C 
ENDROOT
BRANCH   2   3
ATOM      3  N   UNL     1       1.945   4.909  18.671  0.00  0.00    +0.000 N 
ATOM      4  C   UNL     1       2.703   5.879  19.295  0.00  0.00    +0.000 C 
ATOM      5  O   UNL     1       3.766   5.666  19.860  0.00  0.00    +0.000 OA
ATOM      6  H   UNL     1       1.027   5.147  18.316  0.00  0.00    +0.000 HD
BRANCH   4   7
ATOM      7  C   UNL     1       2.195   7.266  19.210  0.00  0.00    +0.000 A 
ATOM      8  C   UNL     1       2.282   7.991  18.019  0.00  0.00    +0.000 A 
ATOM      9  C   UNL     1       1.792   9.296  17.966  0.00  0.00    +0.000 A 
ATOM     10  C   UNL     1       1.198   9.888  19.092  0.00  0.00    +0.000 A 
ATOM     11  C   UNL     1       1.107   9.148  20.284  0.00  0.00    +0.000 A 
ATOM     12  C   UNL     1       1.598   7.840  20.341  0.00  0.00    +0.000 A 
BRANCH  10  13
ATOM     13  C   UNL     1       0.646  11.292  19.024  0.00  0.00    +0.000 C 
ATOM     14  F   UNL     1       0.477  11.863  20.249  0.00  0.00    +0.000 F 
ATOM     15  F   UNL     1       1.456  12.136  18.327  0.00  0.00    +0.000 F 
ATOM     16  F   UNL     1      -0.571  11.348  18.416  0.00  0.00    +0.000 F 
ENDBRANCH  10  13
ENDBRANCH   4   7
ENDBRANCH   2   3
BRANCH   2  17
ATOM     17  C   UNL     1       3.029   3.061  19.902  0.00  0.00    +0.000 C 
ATOM     18  N   UNL     1       3.580   2.804  20.889  0.00  0.00    +0.000 NA
ENDBRANCH   2  17
BRANCH   2  19
ATOM     19  C   UNL     1       3.280   3.193  17.487  0.00  0.00    +0.000 C 
BRANCH  19  20
ATOM     20  O   UNL     1       4.598   3.684  17.779  0.00  0.00    +0.000 OA
BRANCH  20  21
ATOM     21  C   UNL     1       5.408   3.994  16.717  0.00  0.00    +0.000 A 
ATOM     22  C   UNL     1       5.136   3.611  15.396  0.00  0.00    +0.000 A 
ATOM     23  C   UNL     1       5.970   4.013  14.342  0.00  0.00    +0.000 A 
ATOM     24  C   UNL     1       7.072   4.825  14.603  0.00  0.00    +0.000 A 
ATOM     25  C   UNL     1       7.348   5.213  15.915  0.00  0.00    +0.000 A 
ATOM     26  C   UNL     1       6.530   4.794  16.987  0.00  0.00    +0.000 A 
BRANCH  26  27
ATOM     27  C   UNL     1       6.933   5.200  18.388  0.00  0.00    +0.000 C 
ATOM     28  F   UNL     1       6.329   4.518  19.404  0.00  0.00    +0.000 F 
ATOM     29  F   UNL     1       8.271   5.023  18.594  0.00  0.00    +0.000 F 
ATOM     30  F   UNL     1       6.697   6.518  18.633  0.00  0.00    +0.000 F 
ENDBRANCH  26  27
BRANCH  23  31
ATOM     31  C   UNL     1       5.687   3.587  13.000  0.00  0.00    +0.000 C 
ATOM     32  N   UNL     1       5.462   3.243  11.919  0.00  0.00    +0.000 NA
ENDBRANCH  23  31
ENDBRANCH  20  21
ENDBRANCH  19  20
ENDBRANCH   2  19
TORSDOF 9
ENDMDL
MODEL 8
REMARK VINA RESULT:      -7.4      4.172      9.559
REMARK  Name = 
REMARK  10 active torsions:
REMARK  status: ('A' for Active; 'I' for Inactive)
REMARK    1  A    between atoms: C_1  and  C_2
REMARK    2  A    between atoms: C_2  and  C_3
REMARK    3  A    between atoms: C_2  and  C_5
REMARK    4  A    between atoms: C_2  and  N_19
REMARK    5  A    between atoms: C_5  and  O_6
REMARK    6  A    between atoms: O_6  and  C_7
REMARK    7  A    between atoms: C_9  and  C_10
REMARK    8  A    between atoms: C_14  and  C_15
REMARK    9  A    between atoms: C_20  and  C_22
REMARK   10  A    between atoms: C_25  and  C_26
REMARK                            x       y       z     vdW  Elec       q    Type
REMARK                         _______ _______ _______ _____ _____    ______ ____
ROOT
ATOM      1  C   UNL     1       1.029  11.661  20.415  0.00  0.00    +0.000 C 
ATOM      2  C   UNL     1       0.341  10.327  20.749  0.00  0.00    +0.000 C 
ENDROOT
BRANCH   2   3
ATOM      3  N   UNL     1       1.202   9.194  20.345  0.00  0.00    +0.000 N 
ATOM      4  C   UNL     1       1.525   8.915  19.033  0.00  0.00    +0.000 C 
ATOM      5  O   UNL     1       1.183   9.598  18.077  0.00  0.00    +0.000 OA
ATOM      6  H   UNL     1       1.435   8.524  21.068  0.00  0.00    +0.000 HD
BRANCH   4   7
ATOM      7  C   UNL     1       2.389   7.736  18.804  0.00  0.00    +0.000 A 
ATOM      8  C   UNL     1       3.209   7.653  17.676  0.00  0.00    +0.000 A 
ATOM      9  C   UNL     1       4.016   6.532  17.487  0.00  0.00    +0.000 A 
ATOM     10  C   UNL     1       4.026   5.487  18.425  0.00  0.00    +0.000 A 
ATOM     11  C   UNL     1       3.205   5.582  19.562  0.00  0.00    +0.000 A 
ATOM     12  C   UNL     1       2.394   6.705  19.754  0.00  0.00    +0.000 A 
BRANCH  10  13
ATOM     13  C   UNL     1       4.920   4.286  18.230  0.00  0.00    +0.000 C 
ATOM     14  F   UNL     1       6.217   4.617  17.973  0.00  0.00    +0.000 F 
ATOM     15  F   UNL     1       4.952   3.476  19.324  0.00  0.00    +0.000 F 
ATOM     16  F   UNL     1       4.524   3.501  17.191  0.00  0.00    +0.000 F 
ENDBRANCH  10  13
ENDBRANCH   4   7
ENDBRANCH   2   3
BRANCH   2  17
ATOM     17  C   UNL     1      -0.001  10.298  22.199  0.00  0.00    +0.000 C 
ATOM     18  N   UNL     1      -0.199  10.273  23.341  0.00  0.00    +0.000 NA
ENDBRANCH   2  17
BRANCH   2  19
ATOM     19  C   UNL     1      -1.018  10.231  19.991  0.00  0.00    +0.000 C 
BRANCH  19  20
ATOM     20  O   UNL     1      -1.397  11.504  19.446  0.00  0.00    +0.000 OA
BRANCH  20  21
ATOM     21  C   UNL     1      -2.390  11.518  18.501  0.00  0.00    +0.000 A 
ATOM     22  C   UNL     1      -2.255  10.953  17.224  0.00  0.00    +0.000 A 
ATOM     23  C   UNL     1      -3.329  10.942  16.322  0.00  0.00    +0.000 A 
ATOM     24  C   UNL     1      -4.558  11.477  16.704  0.00  0.00    +0.000 A 
ATOM     25  C   UNL     1      -4.702  12.039  17.974  0.00  0.00    +0.000 A 
ATOM     26  C   UNL     1      -3.621  12.079  18.880  0.00  0.00    +0.000 A 
BRANCH  26  27
ATOM     27  C   UNL     1      -3.835  12.765  20.212  0.00  0.00    +0.000 C 
ATOM     28  F   UNL     1      -2.941  13.745  20.530  0.00  0.00    +0.000 F 
ATOM     29  F   UNL     1      -5.056  13.373  20.270  0.00  0.00    +0.000 F 
ATOM     30  F   UNL     1      -3.813  11.890  21.255  0.00  0.00    +0.000 F 
ENDBRANCH  26  27
BRANCH  23  31
ATOM     31  C   UNL     1      -3.161  10.381  15.011  0.00  0.00    +0.000 C 
ATOM     32  N   UNL     1      -3.023   9.929  13.955  0.00  0.00    +0.000 NA
ENDBRANCH  23  31
ENDBRANCH  20  21
ENDBRANCH  19  20
ENDBRANCH   2  19
TORSDOF 9
ENDMDL
MODEL 9
REMARK VINA RESULT:      -7.3      1.117      1.483
REMARK  Name = 
REMARK  10 active torsions:
REMARK  status: ('A' for Active; 'I' for Inactive)
REMARK    1  A    between atoms: C_1  and  C_2
REMARK    2  A    between atoms: C_2  and  C_3
REMARK    3  A    between atoms: C_2  and  C_5
REMARK    4  A    between atoms: C_2  and  N_19
REMARK    5  A    between atoms: C_5  and  O_6
REMARK    6  A    between atoms: O_6  and  C_7
REMARK    7  A    between atoms: C_9  and  C_10
REMARK    8  A    between atoms: C_14  and  C_15
REMARK    9  A    between atoms: C_20  and  C_22
REMARK   10  A    between atoms: C_25  and  C_26
REMARK                            x       y       z     vdW  Elec       q    Type
REMARK                         _______ _______ _______ _____ _____    ______ ____
ROOT
ATOM      1  C   UNL     1       1.684   2.621  18.577  0.00  0.00    +0.000 C 
ATOM      2  C   UNL     1       2.817   3.658  18.672  0.00  0.00    +0.000 C 
ENDROOT
BRANCH   2   3
ATOM      3  N   UNL     1       2.290   4.945  19.174  0.00  0.00    +0.000 N 
ATOM      4  C   UNL     1       2.717   6.173  18.712  0.00  0.00    +0.000 C 
ATOM      5  O   UNL     1       3.530   6.327  17.811  0.00  0.00    +0.000 OA
ATOM      6  H   UNL     1       1.694   4.901  19.993  0.00  0.00    +0.000 HD
BRANCH   4   7
ATOM      7  C   UNL     1       2.092   7.363  19.332  0.00  0.00    +0.000 A 
ATOM      8  C   UNL     1       1.848   8.517  18.585  0.00  0.00    +0.000 A 
ATOM      9  C   UNL     1       1.254   9.623  19.194  0.00  0.00    +0.000 A 
ATOM     10  C   UNL     1       0.886   9.587  20.548  0.00  0.00    +0.000 A 
ATOM     11  C   UNL     1       1.129   8.419  21.290  0.00  0.00    +0.000 A 
ATOM     12  C   UNL     1       1.724   7.309  20.683  0.00  0.00    +0.000 A 
BRANCH  10  13
ATOM     13  C   UNL     1       0.222  10.778  21.197  0.00  0.00    +0.000 C 
ATOM     14  F   UNL     1       0.987  11.905  21.164  0.00  0.00    +0.000 F 
ATOM     15  F   UNL     1      -0.955  11.110  20.596  0.00  0.00    +0.000 F 
ATOM     16  F   UNL     1      -0.071  10.564  22.509  0.00  0.00    +0.000 F 
ENDBRANCH  10  13
ENDBRANCH   4   7
ENDBRANCH   2   3
BRANCH   2  17
ATOM     17  C   UNL     1       3.912   3.115  19.526  0.00  0.00    +0.000 C 
ATOM     18  N   UNL     1       4.809   2.722  20.146  0.00  0.00    +0.000 NA
ENDBRANCH   2  17
BRANCH   2  19
ATOM     19  C   UNL     1       3.448   3.879  17.264  0.00  0.00    +0.000 C 
BRANCH  19  20
ATOM     20  O   UNL     1       4.871   3.692  17.300  0.00  0.00    +0.000 OA
BRANCH  20  21
ATOM     21  C   UNL     1       5.574   3.957  16.153  0.00  0.00    +0.000 A 
ATOM     22  C   UNL     1       5.166   3.536  14.878  0.00  0.00    +0.000 A 
ATOM     23  C   UNL     1       5.894   3.893  13.734  0.00  0.00    +0.000 A 
ATOM     24  C   UNL     1       7.027   4.695  13.856  0.00  0.00    +0.000 A 
ATOM     25  C   UNL     1       7.438   5.119  15.121  0.00  0.00    +0.000 A 
ATOM     26  C   UNL     1       6.728   4.747  16.282  0.00  0.00    +0.000 A 
BRANCH  26  27
ATOM     27  C   UNL     1       7.275   5.189  17.622  0.00  0.00    +0.000 C 
ATOM     28  F   UNL     1       7.858   6.423  17.650  0.00  0.00    +0.000 F 
ATOM     29  F   UNL     1       6.294   5.244  18.569  0.00  0.00    +0.000 F 
ATOM     30  F   UNL     1       8.208   4.327  18.110  0.00  0.00    +0.000 F 
ENDBRANCH  26  27
BRANCH  23  31
ATOM     31  C   UNL     1       5.472   3.430  12.441  0.00  0.00    +0.000 C 
ATOM     32  N   UNL     1       5.131   3.060  11.399  0.00  0.00    +0.000 NA
ENDBRANCH  23  31
ENDBRANCH  20  21
ENDBRANCH  19  20
ENDBRANCH   2  19
TORSDOF 9
ENDMDL
