MODEL 1
REMARK VINA RESULT:      -7.1      0.000      0.000
REMARK  Name = 
REMARK  4 active torsions:
REMARK  status: ('A' for Active; 'I' for Inactive)
REMARK    1  A    between atoms: C_1  and  S_2
REMARK    2  A    between atoms: S_2  and  C_4
REMARK    3  A    between atoms: C_4  and  C_5
REMARK    4  A    between atoms: C_5  and  N_6
REMARK                            x       y       z     vdW  Elec       q    Type
REMARK                         _______ _______ _______ _____ _____    ______ ____
ROOT
ATOM      1  N   UNL     1       4.534   5.916  18.190  0.00  0.00    +0.000 N 
ATOM      2  C   UNL     1       3.437   6.769  18.262  0.00  0.00    +0.000 C 
ATOM      3  O   UNL     1       3.372   7.826  17.626  0.00  0.00    +0.000 OA
ATOM      4  C   UNL     1       2.328   6.416  19.223  0.00  0.00    +0.000 C 
ATOM      5  C   UNL     1       2.375   5.040  19.809  0.00  0.00    +0.000 A 
ATOM      6  C   UNL     1       1.279   4.553  20.538  0.00  0.00    +0.000 A 
ATOM      7  C   UNL     1       1.316   3.280  21.108  0.00  0.00    +0.000 A 
ATOM      8  C   UNL     1       2.448   2.483  20.960  0.00  0.00    +0.000 A 
ATOM      9  C   UNL     1       3.546   2.964  20.246  0.00  0.00    +0.000 A 
ATOM     10  C   UNL     1       3.510   4.243  19.675  0.00  0.00    +0.000 A 
ATOM     11  C   UNL     1       4.680   4.734  18.918  0.00  0.00    +0.000 C 
ATOM     12  O   UNL     1       5.731   4.094  18.949  0.00  0.00    +0.000 OA
ENDROOT
BRANCH   1  13
ATOM     13  C   UNL     1       5.619   6.265  17.273  0.00  0.00    +0.000 C 
BRANCH  13  14
ATOM     14  C   UNL     1       5.420   5.750  15.845  0.00  0.00    +0.000 C 
BRANCH  14  16
ATOM     15  C   UNL     1       5.897   3.901  13.947  0.00  0.00    +0.000 C 
ATOM     16  S   UNL     1       6.803   4.692  15.302  0.00  0.00    +0.000 S 
ATOM     17  O   UNL     1       7.895   5.615  14.650  0.00  0.00    +0.000 OA
ENDBRANCH  14  16
ENDBRANCH  13  14
ENDBRANCH   1  13
TORSDOF 3
ENDMDL
MODEL 2
REMARK VINA RESULT:      -6.7      1.738      2.922
REMARK  Name = 
REMARK  4 active torsions:
REMARK  status: ('A' for Active; 'I' for Inactive)
REMARK    1  A    between atoms: C_1  and  S_2
REMARK    2  A    between atoms: S_2  and  C_4
REMARK    3  A    between atoms: C_4  and  C_5
REMARK    4  A    between atoms: C_5  and  N_6
REMARK                            x       y       z     vdW  Elec       q    Type
REMARK                         _______ _______ _______ _____ _____    ______ ____
ROOT
ATOM      1  N   UNL     1       4.086   5.289  17.185  0.00  0.00    +0.000 N 
ATOM      2  C   UNL     1       4.501   3.992  16.897  0.00  0.00    +0.000 C 
ATOM      3  O   UNL     1       5.389   3.743  16.076  0.00  0.00    +0.000 OA
ATOM      4  C   UNL     1       3.768   2.851  17.561  0.00  0.00    +0.000 C 
ATOM      5  C   UNL     1       2.846   3.219  18.680  0.00  0.00    +0.000 A 
ATOM      6  C   UNL     1       2.292   2.216  19.489  0.00  0.00    +0.000 A 
ATOM      7  C   UNL     1       1.415   2.542  20.524  0.00  0.00    +0.000 A 
ATOM      8  C   UNL     1       1.078   3.873  20.757  0.00  0.00    +0.000 A 
ATOM      9  C   UNL     1       1.615   4.876  19.950  0.00  0.00    +0.000 A 
ATOM     10  C   UNL     1       2.495   4.548  18.910  0.00  0.00    +0.000 A 
ATOM     11  C   UNL     1       3.059   5.625  18.069  0.00  0.00    +0.000 C 
ATOM     12  O   UNL     1       2.614   6.768  18.174  0.00  0.00    +0.000 OA
ENDROOT
BRANCH   1  13
ATOM     13  C   UNL     1       4.781   6.396  16.530  0.00  0.00    +0.000 C 
BRANCH  13  14
ATOM     14  C   UNL     1       5.656   7.228  17.471  0.00  0.00    +0.000 C 
BRANCH  14  16
ATOM     15  C   UNL     1       7.453   5.595  18.633  0.00  0.00    +0.000 C 
ATOM     16  S   UNL     1       7.425   6.819  17.298  0.00  0.00    +0.000 S 
ATOM     17  O   UNL     1       7.614   6.036  15.949  0.00  0.00    +0.000 OA
ENDBRANCH  14  16
ENDBRANCH  13  14
ENDBRANCH   1  13
TORSDOF 3
ENDMDL
MODEL 3
REMARK VINA RESULT:      -6.5      1.029      1.064
REMARK  Name = 
REMARK  4 active torsions:
REMARK  status: ('A' for Active; 'I' for Inactive)
REMARK    1  A    between atoms: C_1  and  S_2
REMARK    2  A    between atoms: S_2  and  C_4
REMARK    3  A    between atoms: C_4  and  C_5
REMARK    4  A    between atoms: C_5  and  N_6
REMARK                            x       y       z     vdW  Elec       q    Type
REMARK                         _______ _______ _______ _____ _____    ______ ____
ROOT
ATOM      1  N   UNL     1       3.969   5.506  17.374  0.00  0.00    +0.000 N 
ATOM      2  C   UNL     1       3.449   6.590  18.074  0.00  0.00    +0.000 C 
ATOM      3  O   UNL     1       3.659   7.762  17.742  0.00  0.00    +0.000 OA
ATOM      4  C   UNL     1       2.670   6.310  19.337  0.00  0.00    +0.000 C 
ATOM      5  C   UNL     1       2.289   4.883  19.574  0.00  0.00    +0.000 A 
ATOM      6  C   UNL     1       1.388   4.561  20.601  0.00  0.00    +0.000 A 
ATOM      7  C   UNL     1       1.038   3.233  20.847  0.00  0.00    +0.000 A 
ATOM      8  C   UNL     1       1.588   2.213  20.075  0.00  0.00    +0.000 A 
ATOM      9  C   UNL     1       2.493   2.523  19.059  0.00  0.00    +0.000 A 
ATOM     10  C   UNL     1       2.846   3.857  18.813  0.00  0.00    +0.000 A 
ATOM     11  C   UNL     1       3.802   4.167  17.729  0.00  0.00    +0.000 C 
ATOM     12  O   UNL     1       4.409   3.249  17.179  0.00  0.00    +0.000 OA
ENDROOT
BRANCH   1  13
ATOM     13  C   UNL     1       4.740   5.776  16.161  0.00  0.00    +0.000 C 
BRANCH  13  14
ATOM     14  C   UNL     1       6.255   5.807  16.377  0.00  0.00    +0.000 C 
BRANCH  14  16
ATOM     15  C   UNL     1       5.670   4.299  14.225  0.00  0.00    +0.000 C 
ATOM     16  S   UNL     1       7.135   4.724  15.202  0.00  0.00    +0.000 S 
ATOM     17  O   UNL     1       8.048   5.627  14.297  0.00  0.00    +0.000 OA
ENDBRANCH  14  16
ENDBRANCH  13  14
ENDBRANCH   1  13
TORSDOF 3
ENDMDL
MODEL 4
REMARK VINA RESULT:      -6.5      2.885      6.063
REMARK  Name = 
REMARK  4 active torsions:
REMARK  status: ('A' for Active; 'I' for Inactive)
REMARK    1  A    between atoms: C_1  and  S_2
REMARK    2  A    between atoms: S_2  and  C_4
REMARK    3  A    between atoms: C_4  and  C_5
REMARK    4  A    between atoms: C_5  and  N_6
REMARK                            x       y       z     vdW  Elec       q    Type
REMARK                         _______ _______ _______ _____ _____    ______ ____
ROOT
ATOM      1  N   UNL     1       4.970   4.218  18.414  0.00  0.00    +0.000 N 
ATOM      2  C   UNL     1       6.148   4.891  18.725  0.00  0.00    +0.000 C 
ATOM      3  O   UNL     1       6.488   5.138  19.887  0.00  0.00    +0.000 OA
ATOM      4  C   UNL     1       6.990   5.409  17.584  0.00  0.00    +0.000 C 
ATOM      5  C   UNL     1       6.630   4.912  16.219  0.00  0.00    +0.000 A 
ATOM      6  C   UNL     1       7.482   5.168  15.134  0.00  0.00    +0.000 A 
ATOM      7  C   UNL     1       7.150   4.729  13.852  0.00  0.00    +0.000 A 
ATOM      8  C   UNL     1       5.962   4.035  13.640  0.00  0.00    +0.000 A 
ATOM      9  C   UNL     1       5.103   3.787  14.710  0.00  0.00    +0.000 A 
ATOM     10  C   UNL     1       5.435   4.229  15.998  0.00  0.00    +0.000 A 
ATOM     11  C   UNL     1       4.516   3.952  17.122  0.00  0.00    +0.000 C 
ATOM     12  O   UNL     1       3.396   3.500  16.887  0.00  0.00    +0.000 OA
ENDROOT
BRANCH   1  13
ATOM     13  C   UNL     1       4.144   3.731  19.518  0.00  0.00    +0.000 C 
BRANCH  13  14
ATOM     14  C   UNL     1       3.095   4.736  20.003  0.00  0.00    +0.000 C 
BRANCH  14  16
ATOM     15  C   UNL     1       1.537   2.567  19.656  0.00  0.00    +0.000 C 
ATOM     16  S   UNL     1       1.706   3.915  20.854  0.00  0.00    +0.000 S 
ATOM     17  O   UNL     1       2.255   3.284  22.184  0.00  0.00    +0.000 OA
ENDBRANCH  14  16
ENDBRANCH  13  14
ENDBRANCH   1  13
TORSDOF 3
ENDMDL
MODEL 5
REMARK VINA RESULT:      -6.5      2.006      3.055
REMARK  Name = 
REMARK  4 active torsions:
REMARK  status: ('A' for Active; 'I' for Inactive)
REMARK    1  A    between atoms: C_1  and  S_2
REMARK    2  A    between atoms: S_2  and  C_4
REMARK    3  A    between atoms: C_4  and  C_5
REMARK    4  A    between atoms: C_5  and  N_6
REMARK                            x       y       z     vdW  Elec       q    Type
REMARK                         _______ _______ _______ _____ _____    ______ ____
ROOT
ATOM      1  N   UNL     1       4.151   5.562  17.214  0.00  0.00    +0.000 N 
ATOM      2  C   UNL     1       4.181   4.334  16.560  0.00  0.00    +0.000 C 
ATOM      3  O   UNL     1       4.954   4.095  15.626  0.00  0.00    +0.000 OA
ATOM      4  C   UNL     1       3.166   3.292  16.962  0.00  0.00    +0.000 C 
ATOM      5  C   UNL     1       2.398   3.568  18.216  0.00  0.00    +0.000 A 
ATOM      6  C   UNL     1       1.594   2.564  18.779  0.00  0.00    +0.000 A 
ATOM      7  C   UNL     1       0.856   2.813  19.936  0.00  0.00    +0.000 A 
ATOM      8  C   UNL     1       0.909   4.066  20.541  0.00  0.00    +0.000 A 
ATOM      9  C   UNL     1       1.696   5.073  19.981  0.00  0.00    +0.000 A 
ATOM     10  C   UNL     1       2.437   4.824  18.818  0.00  0.00    +0.000 A 
ATOM     11  C   UNL     1       3.270   5.900  18.242  0.00  0.00    +0.000 C 
ATOM     12  O   UNL     1       3.166   7.045  18.683  0.00  0.00    +0.000 OA
ENDROOT
BRANCH   1  13
ATOM     13  C   UNL     1       5.121   6.580  16.814  0.00  0.00    +0.000 C 
BRANCH  13  14
ATOM     14  C   UNL     1       6.305   6.726  17.773  0.00  0.00    +0.000 C 
BRANCH  14  16
ATOM     15  C   UNL     1       7.762   4.471  17.557  0.00  0.00    +0.000 C 
ATOM     16  S   UNL     1       6.596   5.203  18.735  0.00  0.00    +0.000 S 
ATOM     17  O   UNL     1       7.417   5.589  20.019  0.00  0.00    +0.000 OA
ENDBRANCH  14  16
ENDBRANCH  13  14
ENDBRANCH   1  13
TORSDOF 3
ENDMDL
MODEL 6
REMARK VINA RESULT:      -6.5      1.289      1.296
REMARK  Name = 
REMARK  4 active torsions:
REMARK  status: ('A' for Active; 'I' for Inactive)
REMARK    1  A    between atoms: C_1  and  S_2
REMARK    2  A    between atoms: S_2  and  C_4
REMARK    3  A    between atoms: C_4  and  C_5
REMARK    4  A    between atoms: C_5  and  N_6
REMARK                            x       y       z     vdW  Elec       q    Type
REMARK                         _______ _______ _______ _____ _____    ______ ____
ROOT
ATOM      1  N   UNL     1       4.816   5.618  18.305  0.00  0.00    +0.000 N 
ATOM      2  C   UNL     1       3.726   6.411  17.956  0.00  0.00    +0.000 C 
ATOM      3  O   UNL     1       3.849   7.567  17.540  0.00  0.00    +0.000 OA
ATOM      4  C   UNL     1       2.342   5.850  18.179  0.00  0.00    +0.000 C 
ATOM      5  C   UNL     1       2.264   4.390  18.495  0.00  0.00    +0.000 A 
ATOM      6  C   UNL     1       1.019   3.742  18.506  0.00  0.00    +0.000 A 
ATOM      7  C   UNL     1       0.929   2.385  18.819  0.00  0.00    +0.000 A 
ATOM      8  C   UNL     1       2.078   1.663  19.129  0.00  0.00    +0.000 A 
ATOM      9  C   UNL     1       3.318   2.302  19.131  0.00  0.00    +0.000 A 
ATOM     10  C   UNL     1       3.410   3.665  18.819  0.00  0.00    +0.000 A 
ATOM     11  C   UNL     1       4.733   4.324  18.821  0.00  0.00    +0.000 C 
ATOM     12  O   UNL     1       5.707   3.719  19.268  0.00  0.00    +0.000 OA
ENDROOT
BRANCH   1  13
ATOM     13  C   UNL     1       6.156   6.166  18.107  0.00  0.00    +0.000 C 
BRANCH  13  14
ATOM     14  C   UNL     1       6.510   6.438  16.642  0.00  0.00    +0.000 C 
BRANCH  14  16
ATOM     15  C   UNL     1       5.375   4.530  15.121  0.00  0.00    +0.000 C 
ATOM     16  S   UNL     1       7.020   4.920  15.769  0.00  0.00    +0.000 S 
ATOM     17  O   UNL     1       7.912   5.340  14.545  0.00  0.00    +0.000 OA
ENDBRANCH  14  16
ENDBRANCH  13  14
ENDBRANCH   1  13
TORSDOF 3
ENDMDL
MODEL 7
REMARK VINA RESULT:      -6.4      0.931      2.364
REMARK  Name = 
REMARK  4 active torsions:
REMARK  status: ('A' for Active; 'I' for Inactive)
REMARK    1  A    between atoms: C_1  and  S_2
REMARK    2  A    between atoms: S_2  and  C_4
REMARK    3  A    between atoms: C_4  and  C_5
REMARK    4  A    between atoms: C_5  and  N_6
REMARK                            x       y       z     vdW  Elec       q    Type
REMARK                         _______ _______ _______ _____ _____    ______ ____
ROOT
ATOM      1  N   UNL     1       4.760   5.249  18.124  0.00  0.00    +0.000 N 
ATOM      2  C   UNL     1       5.566   4.304  18.751  0.00  0.00    +0.000 C 
ATOM      3  O   UNL     1       6.789   4.253  18.583  0.00  0.00    +0.000 OA
ATOM      4  C   UNL     1       4.895   3.252  19.602  0.00  0.00    +0.000 C 
ATOM      5  C   UNL     1       3.452   3.485  19.922  0.00  0.00    +0.000 A 
ATOM      6  C   UNL     1       2.808   2.681  20.875  0.00  0.00    +0.000 A 
ATOM      7  C   UNL     1       1.458   2.872  21.169  0.00  0.00    +0.000 A 
ATOM      8  C   UNL     1       0.735   3.863  20.511  0.00  0.00    +0.000 A 
ATOM      9  C   UNL     1       1.364   4.659  19.553  0.00  0.00    +0.000 A 
ATOM     10  C   UNL     1       2.720   4.467  19.257  0.00  0.00    +0.000 A 
ATOM     11  C   UNL     1       3.372   5.324  18.244  0.00  0.00    +0.000 C 
ATOM     12  O   UNL     1       2.680   6.069  17.549  0.00  0.00    +0.000 OA
ENDROOT
BRANCH   1  13
ATOM     13  C   UNL     1       5.406   6.256  17.285  0.00  0.00    +0.000 C 
BRANCH  13  14
ATOM     14  C   UNL     1       5.377   5.934  15.788  0.00  0.00    +0.000 C 
BRANCH  14  16
ATOM     15  C   UNL     1       5.828   4.035  13.934  0.00  0.00    +0.000 C 
ATOM     16  S   UNL     1       6.726   4.804  15.307  0.00  0.00    +0.000 S 
ATOM     17  O   UNL     1       7.881   5.664  14.680  0.00  0.00    +0.000 OA
ENDBRANCH  14  16
ENDBRANCH  13  14
ENDBRANCH   1  13
TORSDOF 3
ENDMDL
MODEL 8
REMARK VINA RESULT:      -6.3      2.877      5.513
REMARK  Name = 
REMARK  4 active torsions:
REMARK  status: ('A' for Active; 'I' for Inactive)
REMARK    1  A    between atoms: C_1  and  S_2
REMARK    2  A    between atoms: S_2  and  C_4
REMARK    3  A    between atoms: C_4  and  C_5
REMARK    4  A    between atoms: C_5  and  N_6
REMARK                            x       y       z     vdW  Elec       q    Type
REMARK                         _______ _______ _______ _____ _____    ______ ____
ROOT
ATOM      1  N   UNL     1       2.526   5.248  18.286  0.00  0.00    +0.000 N 
ATOM      2  C   UNL     1       2.918   6.581  18.365  0.00  0.00    +0.000 C 
ATOM      3  O   UNL     1       2.322   7.411  19.060  0.00  0.00    +0.000 OA
ATOM      4  C   UNL     1       4.067   7.035  17.497  0.00  0.00    +0.000 C 
ATOM      5  C   UNL     1       4.862   5.953  16.836  0.00  0.00    +0.000 A 
ATOM      6  C   UNL     1       6.067   6.267  16.190  0.00  0.00    +0.000 A 
ATOM      7  C   UNL     1       6.809   5.273  15.552  0.00  0.00    +0.000 A 
ATOM      8  C   UNL     1       6.353   3.958  15.547  0.00  0.00    +0.000 A 
ATOM      9  C   UNL     1       5.150   3.639  16.177  0.00  0.00    +0.000 A 
ATOM     10  C   UNL     1       4.403   4.638  16.817  0.00  0.00    +0.000 A 
ATOM     11  C   UNL     1       3.134   4.281  17.484  0.00  0.00    +0.000 C 
ATOM     12  O   UNL     1       2.660   3.157  17.318  0.00  0.00    +0.000 OA
ENDROOT
BRANCH   1  13
ATOM     13  C   UNL     1       1.402   4.810  19.111  0.00  0.00    +0.000 C 
BRANCH  13  14
ATOM     14  C   UNL     1       1.782   4.471  20.555  0.00  0.00    +0.000 C 
BRANCH  14  16
ATOM     15  C   UNL     1       3.579   2.468  20.637  0.00  0.00    +0.000 C 
ATOM     16  S   UNL     1       1.792   2.671  20.853  0.00  0.00    +0.000 S 
ATOM     17  O   UNL     1       1.480   2.428  22.374  0.00  0.00    +0.000 OA
ENDBRANCH  14  16
ENDBRANCH  13  14
ENDBRANCH   1  13
TORSDOF 3
ENDMDL
MODEL 9
REMARK VINA RESULT:      -6.3      1.198      1.198
REMARK  Name = 
REMARK  4 active torsions:
REMARK  status: ('A' for Active; 'I' for Inactive)
REMARK    1  A    between atoms: C_1  and  S_2
REMARK    2  A    between atoms: S_2  and  C_4
REMARK    3  A    between atoms: C_4  and  C_5
REMARK    4  A    between atoms: C_5  and  N_6
REMARK                            x       y       z     vdW  Elec       q    Type
REMARK                         _______ _______ _______ _____ _____    ______ ____
ROOT
ATOM      1  N   UNL     1       4.440   6.053  18.340  0.00  0.00    +0.000 N 
ATOM      2  C   UNL     1       3.301   6.851  18.404  0.00  0.00    +0.000 C 
ATOM      3  O   UNL     1       3.200   7.919  17.792  0.00  0.00    +0.000 OA
ATOM      4  C   UNL     1       2.186   6.422  19.328  0.00  0.00    +0.000 C 
ATOM      5  C   UNL     1       2.286   5.036  19.882  0.00  0.00    +0.000 A 
ATOM      6  C   UNL     1       1.197   4.479  20.572  0.00  0.00    +0.000 A 
ATOM      7  C   UNL     1       1.282   3.196  21.112  0.00  0.00    +0.000 A 
ATOM      8  C   UNL     1       2.454   2.458  20.975  0.00  0.00    +0.000 A 
ATOM      9  C   UNL     1       3.545   3.008  20.302  0.00  0.00    +0.000 A 
ATOM     10  C   UNL     1       3.461   4.298  19.760  0.00  0.00    +0.000 A 
ATOM     11  C   UNL     1       4.624   4.862  19.044  0.00  0.00    +0.000 C 
ATOM     12  O   UNL     1       5.704   4.273  19.088  0.00  0.00    +0.000 OA
ENDROOT
BRANCH   1  13
ATOM     13  C   UNL     1       5.528   6.476  17.461  0.00  0.00    +0.000 C 
BRANCH  13  14
ATOM     14  C   UNL     1       5.189   6.406  15.969  0.00  0.00    +0.000 C 
BRANCH  14  16
ATOM     15  C   UNL     1       7.261   4.690  16.059  0.00  0.00    +0.000 C 
ATOM     16  S   UNL     1       5.650   4.800  15.239  0.00  0.00    +0.000 S 
ATOM     17  O   UNL     1       4.731   3.695  15.874  0.00  0.00    +0.000 OA
ENDBRANCH  14  16
ENDBRANCH  13  14
ENDBRANCH   1  13
TORSDOF 3
ENDMDL
