MODEL 1
REMARK VINA RESULT:      -7.9      0.000      0.000
REMARK  Name = 
REMARK  3 active torsions:
REMARK  status: ('A' for Active; 'I' for Inactive)
REMARK    1  A    between atoms: C_1  and  C_2
REMARK    2  A    between atoms: N_4  and  C_5
REMARK    3  A    between atoms: N_4  and  N_6
REMARK                            x       y       z     vdW  Elec       q    Type
REMARK                         _______ _______ _______ _____ _____    ______ ____
ROOT
ATOM      1  N   UNL     1       3.337   5.881  18.300  0.00  0.00    +0.000 N 
ATOM      2  C   UNL     1       2.706   4.608  18.430  0.00  0.00    +0.000 A 
ATOM      3  C   UNL     1       2.908   3.672  17.391  0.00  0.00    +0.000 A 
ATOM      4  C   UNL     1       2.257   2.439  17.379  0.00  0.00    +0.000 A 
ATOM      5  C   UNL     1       1.403   2.104  18.419  0.00  0.00    +0.000 A 
ATOM      6  C   UNL     1       1.199   3.005  19.462  0.00  0.00    +0.000 A 
ATOM      7  C   UNL     1       1.836   4.266  19.487  0.00  0.00    +0.000 A 
ATOM      8  C   UNL     1       1.511   5.133  20.690  0.00  0.00    +0.000 C 
ATOM      9  C   UNL     1       2.321   6.400  20.951  0.00  0.00    +0.000 C 
ATOM     10  C   UNL     1       2.151   7.396  19.841  0.00  0.00    +0.000 A 
ATOM     11  C   UNL     1       1.385   8.558  20.031  0.00  0.00    +0.000 A 
ATOM     12  C   UNL     1       1.164   9.446  18.978  0.00  0.00    +0.000 A 
ATOM     13  C   UNL     1       1.714   9.181  17.726  0.00  0.00    +0.000 A 
ATOM     14  C   UNL     1       2.475   8.027  17.534  0.00  0.00    +0.000 A 
ATOM     15  C   UNL     1       2.713   7.125  18.585  0.00  0.00    +0.000 A 
ENDROOT
BRANCH   1  19
ATOM     16  C   UNL     1       6.892   6.661  17.235  0.00  0.00    +0.000 C 
ATOM     17  C   UNL     1       5.412   6.375  17.103  0.00  0.00    +0.000 C 
ATOM     18  O   UNL     1       4.861   6.634  16.029  0.00  0.00    +0.000 OA
ATOM     19  N   UNL     1       4.775   5.872  18.245  0.00  0.00    +0.000 N 
ATOM     20  C   UNL     1       5.450   5.441  19.463  0.00  0.00    +0.000 C 
ENDBRANCH   1  19
TORSDOF 1
ENDMDL
MODEL 2
REMARK VINA RESULT:      -7.2      1.097      1.354
REMARK  Name = 
REMARK  3 active torsions:
REMARK  status: ('A' for Active; 'I' for Inactive)
REMARK    1  A    between atoms: C_1  and  C_2
REMARK    2  A    between atoms: N_4  and  C_5
REMARK    3  A    between atoms: N_4  and  N_6
REMARK                            x       y       z     vdW  Elec       q    Type
REMARK                         _______ _______ _______ _____ _____    ______ ____
ROOT
ATOM      1  N   UNL     1       3.160   6.088  18.215  0.00  0.00    +0.000 N 
ATOM      2  C   UNL     1       2.590   4.793  18.395  0.00  0.00    +0.000 A 
ATOM      3  C   UNL     1       2.728   3.868  17.337  0.00  0.00    +0.000 A 
ATOM      4  C   UNL     1       2.124   2.612  17.377  0.00  0.00    +0.000 A 
ATOM      5  C   UNL     1       1.383   2.243  18.490  0.00  0.00    +0.000 A 
ATOM      6  C   UNL     1       1.244   3.134  19.553  0.00  0.00    +0.000 A 
ATOM      7  C   UNL     1       1.835   4.417  19.526  0.00  0.00    +0.000 A 
ATOM      8  C   UNL     1       1.592   5.268  20.760  0.00  0.00    +0.000 C 
ATOM      9  C   UNL     1       2.376   6.564  20.952  0.00  0.00    +0.000 C 
ATOM     10  C   UNL     1       2.067   7.555  19.869  0.00  0.00    +0.000 A 
ATOM     11  C   UNL     1       1.281   8.688  20.135  0.00  0.00    +0.000 A 
ATOM     12  C   UNL     1       0.932   9.570  19.113  0.00  0.00    +0.000 A 
ATOM     13  C   UNL     1       1.372   9.329  17.814  0.00  0.00    +0.000 A 
ATOM     14  C   UNL     1       2.153   8.204  17.545  0.00  0.00    +0.000 A 
ATOM     15  C   UNL     1       2.520   7.308  18.564  0.00  0.00    +0.000 A 
ENDROOT
BRANCH   1  19
ATOM     16  C   UNL     1       6.846   5.255  18.521  0.00  0.00    +0.000 C 
ATOM     17  C   UNL     1       5.411   5.470  18.947  0.00  0.00    +0.000 C 
ATOM     18  O   UNL     1       5.052   5.024  20.040  0.00  0.00    +0.000 OA
ATOM     19  N   UNL     1       4.585   6.132  18.027  0.00  0.00    +0.000 N 
ATOM     20  C   UNL     1       5.041   6.776  16.802  0.00  0.00    +0.000 C 
ENDBRANCH   1  19
TORSDOF 1
ENDMDL
MODEL 3
REMARK VINA RESULT:      -6.8      1.886      4.360
REMARK  Name = 
REMARK  3 active torsions:
REMARK  status: ('A' for Active; 'I' for Inactive)
REMARK    1  A    between atoms: C_1  and  C_2
REMARK    2  A    between atoms: N_4  and  C_5
REMARK    3  A    between atoms: N_4  and  N_6
REMARK                            x       y       z     vdW  Elec       q    Type
REMARK                         _______ _______ _______ _____ _____    ______ ____
ROOT
ATOM      1  N   UNL     1       2.895   5.897  19.336  0.00  0.00    +0.000 N 
ATOM      2  C   UNL     1       4.223   5.905  18.817  0.00  0.00    +0.000 A 
ATOM      3  C   UNL     1       5.144   4.987  19.369  0.00  0.00    +0.000 A 
ATOM      4  C   UNL     1       6.488   4.983  18.998  0.00  0.00    +0.000 A 
ATOM      5  C   UNL     1       6.939   5.887  18.048  0.00  0.00    +0.000 A 
ATOM      6  C   UNL     1       6.047   6.794  17.479  0.00  0.00    +0.000 A 
ATOM      7  C   UNL     1       4.684   6.825  17.851  0.00  0.00    +0.000 A 
ATOM      8  C   UNL     1       3.842   7.869  17.141  0.00  0.00    +0.000 C 
ATOM      9  C   UNL     1       2.322   7.836  17.276  0.00  0.00    +0.000 C 
ATOM     10  C   UNL     1       1.894   8.058  18.697  0.00  0.00    +0.000 A 
ATOM     11  C   UNL     1       1.309   9.273  19.089  0.00  0.00    +0.000 A 
ATOM     12  C   UNL     1       0.980   9.508  20.424  0.00  0.00    +0.000 A 
ATOM     13  C   UNL     1       1.229   8.525  21.379  0.00  0.00    +0.000 A 
ATOM     14  C   UNL     1       1.811   7.317  20.994  0.00  0.00    +0.000 A 
ATOM     15  C   UNL     1       2.143   7.061  19.652  0.00  0.00    +0.000 A 
ENDROOT
BRANCH   1  19
ATOM     16  C   UNL     1       0.814   2.826  20.125  0.00  0.00    +0.000 C 
ATOM     17  C   UNL     1       1.868   3.897  20.302  0.00  0.00    +0.000 C 
ATOM     18  O   UNL     1       2.369   4.046  21.420  0.00  0.00    +0.000 OA
ATOM     19  N   UNL     1       2.158   4.672  19.170  0.00  0.00    +0.000 N 
ATOM     20  C   UNL     1       1.668   4.408  17.824  0.00  0.00    +0.000 C 
ENDBRANCH   1  19
TORSDOF 1
ENDMDL
MODEL 4
REMARK VINA RESULT:      -6.6      6.219      8.328
REMARK  Name = 
REMARK  3 active torsions:
REMARK  status: ('A' for Active; 'I' for Inactive)
REMARK    1  A    between atoms: C_1  and  C_2
REMARK    2  A    between atoms: N_4  and  C_5
REMARK    3  A    between atoms: N_4  and  N_6
REMARK                            x       y       z     vdW  Elec       q    Type
REMARK                         _______ _______ _______ _____ _____    ______ ____
ROOT
ATOM      1  N   UNL     1      -1.404  11.922  19.965  0.00  0.00    +0.000 N 
ATOM      2  C   UNL     1      -1.967  11.366  18.778  0.00  0.00    +0.000 A 
ATOM      3  C   UNL     1      -3.268  11.781  18.419  0.00  0.00    +0.000 A 
ATOM      4  C   UNL     1      -3.942  11.223  17.333  0.00  0.00    +0.000 A 
ATOM      5  C   UNL     1      -3.319  10.250  16.566  0.00  0.00    +0.000 A 
ATOM      6  C   UNL     1      -2.030   9.834  16.893  0.00  0.00    +0.000 A 
ATOM      7  C   UNL     1      -1.335  10.375  17.998  0.00  0.00    +0.000 A 
ATOM      8  C   UNL     1       0.060   9.819  18.221  0.00  0.00    +0.000 C 
ATOM      9  C   UNL     1       0.993  10.494  19.223  0.00  0.00    +0.000 C 
ATOM     10  C   UNL     1       0.442  10.422  20.617  0.00  0.00    +0.000 A 
ATOM     11  C   UNL     1       1.009   9.561  21.570  0.00  0.00    +0.000 A 
ATOM     12  C   UNL     1       0.452   9.439  22.843  0.00  0.00    +0.000 A 
ATOM     13  C   UNL     1      -0.677  10.184  23.175  0.00  0.00    +0.000 A 
ATOM     14  C   UNL     1      -1.245  11.041  22.231  0.00  0.00    +0.000 A 
ATOM     15  C   UNL     1      -0.692  11.180  20.946  0.00  0.00    +0.000 A 
ENDROOT
BRANCH   1  19
ATOM     16  C   UNL     1      -1.629  15.563  21.002  0.00  0.00    +0.000 C 
ATOM     17  C   UNL     1      -2.072  14.137  20.761  0.00  0.00    +0.000 C 
ATOM     18  O   UNL     1      -3.114  13.750  21.298  0.00  0.00    +0.000 OA
ATOM     19  N   UNL     1      -1.223  13.350  19.971  0.00  0.00    +0.000 N 
ATOM     20  C   UNL     1      -0.069  13.843  19.230  0.00  0.00    +0.000 C 
ENDBRANCH   1  19
TORSDOF 1
ENDMDL
MODEL 5
REMARK VINA RESULT:      -6.6      5.840      7.941
REMARK  Name = 
REMARK  3 active torsions:
REMARK  status: ('A' for Active; 'I' for Inactive)
REMARK    1  A    between atoms: C_1  and  C_2
REMARK    2  A    between atoms: N_4  and  C_5
REMARK    3  A    between atoms: N_4  and  N_6
REMARK                            x       y       z     vdW  Elec       q    Type
REMARK                         _______ _______ _______ _____ _____    ______ ____
ROOT
ATOM      1  N   UNL     1      -1.311  11.906  19.966  0.00  0.00    +0.000 N 
ATOM      2  C   UNL     1      -1.913  11.374  18.787  0.00  0.00    +0.000 A 
ATOM      3  C   UNL     1      -3.204  11.838  18.450  0.00  0.00    +0.000 A 
ATOM      4  C   UNL     1      -3.916  11.309  17.374  0.00  0.00    +0.000 A 
ATOM      5  C   UNL     1      -3.342  10.314  16.595  0.00  0.00    +0.000 A 
ATOM      6  C   UNL     1      -2.064   9.850  16.900  0.00  0.00    +0.000 A 
ATOM      7  C   UNL     1      -1.332  10.361  17.995  0.00  0.00    +0.000 A 
ATOM      8  C   UNL     1       0.045   9.753  18.195  0.00  0.00    +0.000 C 
ATOM      9  C   UNL     1       1.018  10.391  19.183  0.00  0.00    +0.000 C 
ATOM     10  C   UNL     1       0.487  10.336  20.585  0.00  0.00    +0.000 A 
ATOM     11  C   UNL     1       1.037   9.452  21.527  0.00  0.00    +0.000 A 
ATOM     12  C   UNL     1       0.496   9.348  22.809  0.00  0.00    +0.000 A 
ATOM     13  C   UNL     1      -0.599  10.134  23.160  0.00  0.00    +0.000 A 
ATOM     14  C   UNL     1      -1.149  11.013  22.227  0.00  0.00    +0.000 A 
ATOM     15  C   UNL     1      -0.612  11.136  20.934  0.00  0.00    +0.000 A 
ENDROOT
BRANCH   1  19
ATOM     16  C   UNL     1      -0.243  15.370  18.854  0.00  0.00    +0.000 C 
ATOM     17  C   UNL     1      -0.189  13.869  19.033  0.00  0.00    +0.000 C 
ATOM     18  O   UNL     1       0.592  13.225  18.327  0.00  0.00    +0.000 OA
ATOM     19  N   UNL     1      -1.077  13.325  19.971  0.00  0.00    +0.000 N 
ATOM     20  C   UNL     1      -1.897  14.097  20.896  0.00  0.00    +0.000 C 
ENDBRANCH   1  19
TORSDOF 1
ENDMDL
MODEL 6
REMARK VINA RESULT:      -6.5      3.898      6.641
REMARK  Name = 
REMARK  3 active torsions:
REMARK  status: ('A' for Active; 'I' for Inactive)
REMARK    1  A    between atoms: C_1  and  C_2
REMARK    2  A    between atoms: N_4  and  C_5
REMARK    3  A    between atoms: N_4  and  N_6
REMARK                            x       y       z     vdW  Elec       q    Type
REMARK                         _______ _______ _______ _____ _____    ______ ____
ROOT
ATOM      1  N   UNL     1       0.407  10.760  18.858  0.00  0.00    +0.000 N 
ATOM      2  C   UNL     1      -0.979  10.806  18.526  0.00  0.00    +0.000 A 
ATOM      3  C   UNL     1      -1.420   9.993  17.458  0.00  0.00    +0.000 A 
ATOM      4  C   UNL     1      -2.734  10.041  16.995  0.00  0.00    +0.000 A 
ATOM      5  C   UNL     1      -3.646  10.890  17.604  0.00  0.00    +0.000 A 
ATOM      6  C   UNL     1      -3.238  11.692  18.668  0.00  0.00    +0.000 A 
ATOM      7  C   UNL     1      -1.908  11.671  19.143  0.00  0.00    +0.000 A 
ATOM      8  C   UNL     1      -1.621  12.601  20.308  0.00  0.00    +0.000 C 
ATOM      9  C   UNL     1      -0.298  12.487  21.061  0.00  0.00    +0.000 C 
ATOM     10  C   UNL     1       0.867  12.798  20.168  0.00  0.00    +0.000 A 
ATOM     11  C   UNL     1       1.575  14.003  20.305  0.00  0.00    +0.000 A 
ATOM     12  C   UNL     1       2.611  14.326  19.428  0.00  0.00    +0.000 A 
ATOM     13  C   UNL     1       2.951  13.440  18.408  0.00  0.00    +0.000 A 
ATOM     14  C   UNL     1       2.249  12.242  18.268  0.00  0.00    +0.000 A 
ATOM     15  C   UNL     1       1.208  11.899  19.147  0.00  0.00    +0.000 A 
ENDROOT
BRANCH   1  19
ATOM     16  C   UNL     1       2.524   7.620  19.056  0.00  0.00    +0.000 C 
ATOM     17  C   UNL     1       1.756   8.764  18.432  0.00  0.00    +0.000 C 
ATOM     18  O   UNL     1       1.945   9.012  17.237  0.00  0.00    +0.000 OA
ATOM     19  N   UNL     1       0.913   9.484  19.290  0.00  0.00    +0.000 N 
ATOM     20  C   UNL     1       0.588   9.107  20.659  0.00  0.00    +0.000 C 
ENDBRANCH   1  19
TORSDOF 1
ENDMDL
MODEL 7
REMARK VINA RESULT:      -6.4      2.434      4.204
REMARK  Name = 
REMARK  3 active torsions:
REMARK  status: ('A' for Active; 'I' for Inactive)
REMARK    1  A    between atoms: C_1  and  C_2
REMARK    2  A    between atoms: N_4  and  C_5
REMARK    3  A    between atoms: N_4  and  N_6
REMARK                            x       y       z     vdW  Elec       q    Type
REMARK                         _______ _______ _______ _____ _____    ______ ____
ROOT
ATOM      1  N   UNL     1       5.887   6.048  16.890  0.00  0.00    +0.000 N 
ATOM      2  C   UNL     1       6.072   5.220  15.743  0.00  0.00    +0.000 A 
ATOM      3  C   UNL     1       6.966   5.677  14.749  0.00  0.00    +0.000 A 
ATOM      4  C   UNL     1       7.142   4.988  13.549  0.00  0.00    +0.000 A 
ATOM      5  C   UNL     1       6.441   3.813  13.324  0.00  0.00    +0.000 A 
ATOM      6  C   UNL     1       5.564   3.335  14.296  0.00  0.00    +0.000 A 
ATOM      7  C   UNL     1       5.359   4.025  15.512  0.00  0.00    +0.000 A 
ATOM      8  C   UNL     1       4.373   3.376  16.468  0.00  0.00    +0.000 C 
ATOM      9  C   UNL     1       4.257   3.890  17.900  0.00  0.00    +0.000 C 
ATOM     10  C   UNL     1       3.777   5.311  17.934  0.00  0.00    +0.000 A 
ATOM     11  C   UNL     1       2.471   5.618  18.347  0.00  0.00    +0.000 A 
ATOM     12  C   UNL     1       2.000   6.931  18.308  0.00  0.00    +0.000 A 
ATOM     13  C   UNL     1       2.837   7.950  17.859  0.00  0.00    +0.000 A 
ATOM     14  C   UNL     1       4.136   7.649  17.446  0.00  0.00    +0.000 A 
ATOM     15  C   UNL     1       4.628   6.333  17.486  0.00  0.00    +0.000 A 
ENDROOT
BRANCH   1  19
ATOM     16  C   UNL     1       8.589   7.853  18.844  0.00  0.00    +0.000 C 
ATOM     17  C   UNL     1       7.595   7.581  17.736  0.00  0.00    +0.000 C 
ATOM     18  O   UNL     1       7.297   8.507  16.977  0.00  0.00    +0.000 OA
ATOM     19  N   UNL     1       7.056   6.287  17.694  0.00  0.00    +0.000 N 
ATOM     20  C   UNL     1       7.507   5.162  18.502  0.00  0.00    +0.000 C 
ENDBRANCH   1  19
TORSDOF 1
ENDMDL
MODEL 8
REMARK VINA RESULT:      -6.4      1.378      4.229
REMARK  Name = 
REMARK  3 active torsions:
REMARK  status: ('A' for Active; 'I' for Inactive)
REMARK    1  A    between atoms: C_1  and  C_2
REMARK    2  A    between atoms: N_4  and  C_5
REMARK    3  A    between atoms: N_4  and  N_6
REMARK                            x       y       z     vdW  Elec       q    Type
REMARK                         _______ _______ _______ _____ _____    ______ ____
ROOT
ATOM      1  N   UNL     1       3.708   5.442  19.188  0.00  0.00    +0.000 N 
ATOM      2  C   UNL     1       2.862   4.363  19.579  0.00  0.00    +0.000 A 
ATOM      3  C   UNL     1       2.238   4.450  20.843  0.00  0.00    +0.000 A 
ATOM      4  C   UNL     1       1.472   3.404  21.356  0.00  0.00    +0.000 A 
ATOM      5  C   UNL     1       1.294   2.251  20.605  0.00  0.00    +0.000 A 
ATOM      6  C   UNL     1       1.889   2.148  19.349  0.00  0.00    +0.000 A 
ATOM      7  C   UNL     1       2.682   3.189  18.817  0.00  0.00    +0.000 A 
ATOM      8  C   UNL     1       3.259   2.924  17.437  0.00  0.00    +0.000 C 
ATOM      9  C   UNL     1       3.920   4.061  16.662  0.00  0.00    +0.000 C 
ATOM     10  C   UNL     1       5.136   4.574  17.375  0.00  0.00    +0.000 A 
ATOM     11  C   UNL     1       6.424   4.289  16.893  0.00  0.00    +0.000 A 
ATOM     12  C   UNL     1       7.557   4.702  17.595  0.00  0.00    +0.000 A 
ATOM     13  C   UNL     1       7.409   5.409  18.786  0.00  0.00    +0.000 A 
ATOM     14  C   UNL     1       6.131   5.693  19.269  0.00  0.00    +0.000 A 
ATOM     15  C   UNL     1       4.980   5.290  18.571  0.00  0.00    +0.000 A 
ENDROOT
BRANCH   1  19
ATOM     16  C   UNL     1       2.286   8.614  17.673  0.00  0.00    +0.000 C 
ATOM     17  C   UNL     1       3.234   7.453  17.878  0.00  0.00    +0.000 C 
ATOM     18  O   UNL     1       4.045   7.196  16.984  0.00  0.00    +0.000 OA
ATOM     19  N   UNL     1       3.077   6.730  19.068  0.00  0.00    +0.000 N 
ATOM     20  C   UNL     1       2.215   7.115  20.178  0.00  0.00    +0.000 C 
ENDBRANCH   1  19
TORSDOF 1
ENDMDL
MODEL 9
REMARK VINA RESULT:      -6.4      5.453      7.067
REMARK  Name = 
REMARK  3 active torsions:
REMARK  status: ('A' for Active; 'I' for Inactive)
REMARK    1  A    between atoms: C_1  and  C_2
REMARK    2  A    between atoms: N_4  and  C_5
REMARK    3  A    between atoms: N_4  and  N_6
REMARK                            x       y       z     vdW  Elec       q    Type
REMARK                         _______ _______ _______ _____ _____    ______ ____
ROOT
ATOM      1  N   UNL     1      -0.202  10.682  19.242  0.00  0.00    +0.000 N 
ATOM      2  C   UNL     1      -0.123  10.413  20.641  0.00  0.00    +0.000 A 
ATOM      3  C   UNL     1       0.825   9.457  21.068  0.00  0.00    +0.000 A 
ATOM      4  C   UNL     1       0.912   9.056  22.400  0.00  0.00    +0.000 A 
ATOM      5  C   UNL     1       0.065   9.618  23.343  0.00  0.00    +0.000 A 
ATOM      6  C   UNL     1      -0.870  10.573  22.948  0.00  0.00    +0.000 A 
ATOM      7  C   UNL     1      -0.986  10.984  21.601  0.00  0.00    +0.000 A 
ATOM      8  C   UNL     1      -2.051  12.032  21.332  0.00  0.00    +0.000 C 
ATOM      9  C   UNL     1      -2.103  12.728  19.974  0.00  0.00    +0.000 C 
ATOM     10  C   UNL     1      -2.392  11.752  18.872  0.00  0.00    +0.000 A 
ATOM     11  C   UNL     1      -3.649  11.731  18.244  0.00  0.00    +0.000 A 
ATOM     12  C   UNL     1      -3.944  10.776  17.271  0.00  0.00    +0.000 A 
ATOM     13  C   UNL     1      -2.980   9.837  16.913  0.00  0.00    +0.000 A 
ATOM     14  C   UNL     1      -1.730   9.854  17.534  0.00  0.00    +0.000 A 
ATOM     15  C   UNL     1      -1.415  10.813  18.512  0.00  0.00    +0.000 A 
ENDROOT
BRANCH   1  19
ATOM     16  C   UNL     1       2.736  12.962  18.502  0.00  0.00    +0.000 C 
ATOM     17  C   UNL     1       1.326  12.556  18.871  0.00  0.00    +0.000 C 
ATOM     18  O   UNL     1       0.589  13.402  19.385  0.00  0.00    +0.000 OA
ATOM     19  N   UNL     1       0.986  11.217  18.632  0.00  0.00    +0.000 N 
ATOM     20  C   UNL     1       1.807  10.258  17.904  0.00  0.00    +0.000 C 
ENDBRANCH   1  19
TORSDOF 1
ENDMDL
