MODEL 1
REMARK VINA RESULT:      -7.5      0.000      0.000
REMARK  Name = 
REMARK  14 active torsions:
REMARK  status: ('A' for Active; 'I' for Inactive)
REMARK    1  A    between atoms: C_1  and  C_2
REMARK    2  A    between atoms: C_2  and  O_3
REMARK    3  A    between atoms: O_3  and  P_4
REMARK    4  A    between atoms: P_4  and  O_6
REMARK    5  A    between atoms: P_4  and  C_7
REMARK    6  A    between atoms: C_9  and  C_10
REMARK    7  A    between atoms: C_10  and  N_11
REMARK    8  A    between atoms: C_10  and  C_15
REMARK    9  A    between atoms: C_12  and  C_13
REMARK   10  A    between atoms: C_15  and  C_16
REMARK   11  A    between atoms: C_15  and  C_18
REMARK   12  A    between atoms: C_16  and  C_17
REMARK   13  A    between atoms: C_18  and  C_19
REMARK   14  A    between atoms: C_20  and  N_21
REMARK                            x       y       z     vdW  Elec       q    Type
REMARK                         _______ _______ _______ _____ _____    ______ ____
ROOT
ATOM      1  C   UNL     1       5.440   4.941  16.048  0.00  0.00    +0.000 C 
ATOM      2  C   UNL     1       4.888   6.057  16.511  0.00  0.00    +0.000 C 
ATOM      3  C   UNL     1       4.520   5.964  17.960  0.00  0.00    +0.000 C 
ATOM      4  C   UNL     1       5.232   4.650  18.419  0.00  0.00    +0.000 C 
ATOM      5  C   UNL     1       5.882   4.046  17.159  0.00  0.00    +0.000 C 
ENDROOT
BRANCH   4   6
ATOM      6  N   UNL     1       6.254   4.890  19.434  0.00  0.00    +0.000 N 
ATOM      7  C   UNL     1       7.385   5.605  19.260  0.00  0.00    +0.000 C 
ATOM      8  N   UNL     1       7.782   6.244  18.226  0.00  0.00    +0.000 NA
ATOM      9  N   UNL     1       8.145   5.639  20.372  0.00  0.00    +0.000 N 
ATOM     10  H   UNL     1       6.246   4.275  20.239  0.00  0.00    +0.000 HD
ATOM     11  H   UNL     1       7.111   6.158  17.459  0.00  0.00    +0.000 HD
ATOM     12  H   UNL     1       7.623   5.834  21.215  0.00  0.00    +0.000 HD
ATOM     13  H   UNL     1       8.870   6.340  20.240  0.00  0.00    +0.000 HD
ENDBRANCH   4   6
BRANCH   1  14
ATOM     14  P   UNL     1       5.988   4.669  14.324  0.00  0.00    +0.000 P 
ATOM     15  O   UNL     1       6.185   3.167  14.601  0.00  0.00    +0.000 OA
BRANCH  14  16
ATOM     16  O   UNL     1       7.458   5.339  14.594  0.00  0.00    +0.000 OA
ATOM     17  H   UNL     1       7.918   5.372  13.732  0.00  0.00    +0.000 HD
ENDBRANCH  14  16
BRANCH  14  18
ATOM     18  O   UNL     1       6.506   4.413  12.693  0.00  0.00    +0.000 OA
BRANCH  18  20
ATOM     19  C   UNL     1       4.642   3.343  11.619  0.00  0.00    +0.000 C 
ATOM     20  C   UNL     1       6.042   3.174  12.172  0.00  0.00    +0.000 C 
ENDBRANCH  18  20
ENDBRANCH  14  18
ENDBRANCH   1  14
BRANCH   3  21
ATOM     21  C   UNL     1       2.968   5.902  18.193  0.00  0.00    +0.000 C 
BRANCH  21  22
ATOM     22  N   UNL     1       2.484   7.046  18.994  0.00  0.00    +0.000 N 
ATOM     23  C   UNL     1       2.148   8.262  18.459  0.00  0.00    +0.000 C 
ATOM     24  C   UNL     1       1.616   9.261  19.473  0.00  0.00    +0.000 C 
ATOM     25  O   UNL     1       2.247   8.545  17.264  0.00  0.00    +0.000 OA
ATOM     26  H   UNL     1       2.458   6.931  19.998  0.00  0.00    +0.000 HD
ENDBRANCH  21  22
BRANCH  21  27
ATOM     27  C   UNL     1       2.444   4.544  18.813  0.00  0.00    +0.000 C 
BRANCH  27  28
ATOM     28  C   UNL     1       1.419   4.733  19.967  0.00  0.00    +0.000 C 
ATOM     29  C   UNL     1       1.383   3.654  21.038  0.00  0.00    +0.000 C 
ENDBRANCH  27  28
BRANCH  27  30
ATOM     30  C   UNL     1       1.809   3.638  17.729  0.00  0.00    +0.000 C 
ATOM     31  C   UNL     1       2.392   2.235  17.640  0.00  0.00    +0.000 C 
ENDBRANCH  27  30
ENDBRANCH  21  27
ENDBRANCH   3  21
TORSDOF 10
ENDMDL
MODEL 2
REMARK VINA RESULT:      -7.3      1.825      3.374
REMARK  Name = 
REMARK  14 active torsions:
REMARK  status: ('A' for Active; 'I' for Inactive)
REMARK    1  A    between atoms: C_1  and  C_2
REMARK    2  A    between atoms: C_2  and  O_3
REMARK    3  A    between atoms: O_3  and  P_4
REMARK    4  A    between atoms: P_4  and  O_6
REMARK    5  A    between atoms: P_4  and  C_7
REMARK    6  A    between atoms: C_9  and  C_10
REMARK    7  A    between atoms: C_10  and  N_11
REMARK    8  A    between atoms: C_10  and  C_15
REMARK    9  A    between atoms: C_12  and  C_13
REMARK   10  A    between atoms: C_15  and  C_16
REMARK   11  A    between atoms: C_15  and  C_18
REMARK   12  A    between atoms: C_16  and  C_17
REMARK   13  A    between atoms: C_18  and  C_19
REMARK   14  A    between atoms: C_20  and  N_21
REMARK                            x       y       z     vdW  Elec       q    Type
REMARK                         _______ _______ _______ _____ _____    ______ ____
ROOT
ATOM      1  C   UNL     1       6.317   4.720  16.200  0.00  0.00    +0.000 C 
ATOM      2  C   UNL     1       5.323   5.477  16.650  0.00  0.00    +0.000 C 
ATOM      3  C   UNL     1       5.432   5.766  18.115  0.00  0.00    +0.000 C 
ATOM      4  C   UNL     1       6.879   5.285  18.461  0.00  0.00    +0.000 C 
ATOM      5  C   UNL     1       7.453   4.673  17.168  0.00  0.00    +0.000 C 
ENDROOT
BRANCH   4   6
ATOM      6  N   UNL     1       7.740   6.375  18.914  0.00  0.00    +0.000 N 
ATOM      7  C   UNL     1       7.987   7.516  18.239  0.00  0.00    +0.000 C 
ATOM      8  N   UNL     1       7.513   7.907  17.118  0.00  0.00    +0.000 NA
ATOM      9  N   UNL     1       8.834   8.328  18.901  0.00  0.00    +0.000 N 
ATOM     10  H   UNL     1       8.392   6.157  19.657  0.00  0.00    +0.000 HD
ATOM     11  H   UNL     1       6.869   7.215  16.727  0.00  0.00    +0.000 HD
ATOM     12  H   UNL     1       8.614   8.434  19.881  0.00  0.00    +0.000 HD
ATOM     13  H   UNL     1       8.827   9.236  18.442  0.00  0.00    +0.000 HD
ENDBRANCH   4   6
BRANCH   1  14
ATOM     14  P   UNL     1       6.505   4.136  14.476  0.00  0.00    +0.000 P 
ATOM     15  O   UNL     1       7.242   5.435  14.095  0.00  0.00    +0.000 OA
BRANCH  14  16
ATOM     16  O   UNL     1       4.934   4.428  14.115  0.00  0.00    +0.000 OA
ATOM     17  H   UNL     1       4.466   3.573  14.174  0.00  0.00    +0.000 HD
ENDBRANCH  14  16
BRANCH  14  18
ATOM     18  O   UNL     1       6.682   3.585  12.845  0.00  0.00    +0.000 OA
BRANCH  18  20
ATOM     19  C   UNL     1       5.564   1.990  11.439  0.00  0.00    +0.000 C 
ATOM     20  C   UNL     1       5.432   3.262  12.250  0.00  0.00    +0.000 C 
ENDBRANCH  18  20
ENDBRANCH  14  18
ENDBRANCH   1  14
BRANCH   3  21
ATOM     21  C   UNL     1       4.346   5.017  18.967  0.00  0.00    +0.000 C 
BRANCH  21  22
ATOM     22  N   UNL     1       4.001   3.702  18.387  0.00  0.00    +0.000 N 
ATOM     23  C   UNL     1       4.226   2.508  19.019  0.00  0.00    +0.000 C 
ATOM     24  C   UNL     1       3.728   1.295  18.252  0.00  0.00    +0.000 C 
ATOM     25  O   UNL     1       4.773   2.398  20.118  0.00  0.00    +0.000 OA
ATOM     26  H   UNL     1       3.629   3.693  17.447  0.00  0.00    +0.000 HD
ENDBRANCH  21  22
BRANCH  21  27
ATOM     27  C   UNL     1       3.030   5.850  19.246  0.00  0.00    +0.000 C 
BRANCH  27  28
ATOM     28  C   UNL     1       2.827   7.051  18.279  0.00  0.00    +0.000 C 
ATOM     29  C   UNL     1       2.032   8.234  18.809  0.00  0.00    +0.000 C 
ENDBRANCH  27  28
BRANCH  27  30
ATOM     30  C   UNL     1       1.771   4.950  19.192  0.00  0.00    +0.000 C 
ATOM     31  C   UNL     1       1.230   4.516  20.546  0.00  0.00    +0.000 C 
ENDBRANCH  27  30
ENDBRANCH  21  27
ENDBRANCH   3  21
TORSDOF 10
ENDMDL
MODEL 3
REMARK VINA RESULT:      -7.1      1.824      3.130
REMARK  Name = 
REMARK  14 active torsions:
REMARK  status: ('A' for Active; 'I' for Inactive)
REMARK    1  A    between atoms: C_1  and  C_2
REMARK    2  A    between atoms: C_2  and  O_3
REMARK    3  A    between atoms: O_3  and  P_4
REMARK    4  A    between atoms: P_4  and  O_6
REMARK    5  A    between atoms: P_4  and  C_7
REMARK    6  A    between atoms: C_9  and  C_10
REMARK    7  A    between atoms: C_10  and  N_11
REMARK    8  A    between atoms: C_10  and  C_15
REMARK    9  A    between atoms: C_12  and  C_13
REMARK   10  A    between atoms: C_15  and  C_16
REMARK   11  A    between atoms: C_15  and  C_18
REMARK   12  A    between atoms: C_16  and  C_17
REMARK   13  A    between atoms: C_18  and  C_19
REMARK   14  A    between atoms: C_20  and  N_21
REMARK                            x       y       z     vdW  Elec       q    Type
REMARK                         _______ _______ _______ _____ _____    ______ ____
ROOT
ATOM      1  C   UNL     1       5.986   5.160  15.828  0.00  0.00    +0.000 C 
ATOM      2  C   UNL     1       5.092   6.049  16.244  0.00  0.00    +0.000 C 
ATOM      3  C   UNL     1       5.104   6.233  17.730  0.00  0.00    +0.000 C 
ATOM      4  C   UNL     1       6.412   5.493  18.163  0.00  0.00    +0.000 C 
ATOM      5  C   UNL     1       6.999   4.865  16.885  0.00  0.00    +0.000 C 
ENDROOT
BRANCH   4   6
ATOM      6  N   UNL     1       7.392   6.393  18.766  0.00  0.00    +0.000 N 
ATOM      7  C   UNL     1       7.909   7.496  18.188  0.00  0.00    +0.000 C 
ATOM      8  N   UNL     1       7.638   8.009  17.048  0.00  0.00    +0.000 NA
ATOM      9  N   UNL     1       8.804   8.118  18.980  0.00  0.00    +0.000 N 
ATOM     10  H   UNL     1       7.910   6.033  19.559  0.00  0.00    +0.000 HD
ATOM     11  H   UNL     1       6.932   7.459  16.553  0.00  0.00    +0.000 HD
ATOM     12  H   UNL     1       8.497   8.222  19.936  0.00  0.00    +0.000 HD
ATOM     13  H   UNL     1       9.007   9.029  18.576  0.00  0.00    +0.000 HD
ENDBRANCH   4   6
BRANCH   1  14
ATOM     14  P   UNL     1       6.241   4.651  14.089  0.00  0.00    +0.000 P 
ATOM     15  O   UNL     1       6.421   3.184  14.524  0.00  0.00    +0.000 OA
BRANCH  14  16
ATOM     16  O   UNL     1       7.761   5.261  14.043  0.00  0.00    +0.000 OA
ATOM     17  H   UNL     1       8.043   5.389  14.969  0.00  0.00    +0.000 HD
ENDBRANCH  14  16
BRANCH  14  18
ATOM     18  O   UNL     1       6.482   4.169  12.445  0.00  0.00    +0.000 OA
BRANCH  18  20
ATOM     19  C   UNL     1       4.400   3.351  11.570  0.00  0.00    +0.000 C 
ATOM     20  C   UNL     1       5.762   2.986  12.122  0.00  0.00    +0.000 C 
ENDBRANCH  18  20
ENDBRANCH  14  18
ENDBRANCH   1  14
BRANCH   3  21
ATOM     21  C   UNL     1       3.832   5.633  18.429  0.00  0.00    +0.000 C 
BRANCH  21  22
ATOM     22  N   UNL     1       3.443   4.333  17.845  0.00  0.00    +0.000 N 
ATOM     23  C   UNL     1       3.630   3.129  18.474  0.00  0.00    +0.000 C 
ATOM     24  C   UNL     1       3.091   1.936  17.703  0.00  0.00    +0.000 C 
ATOM     25  O   UNL     1       4.174   2.998  19.571  0.00  0.00    +0.000 OA
ATOM     26  H   UNL     1       3.070   4.339  16.906  0.00  0.00    +0.000 HD
ENDBRANCH  21  22
BRANCH  21  27
ATOM     27  C   UNL     1       2.582   6.603  18.478  0.00  0.00    +0.000 C 
BRANCH  27  28
ATOM     28  C   UNL     1       1.997   6.804  19.905  0.00  0.00    +0.000 C 
ATOM     29  C   UNL     1       1.716   5.549  20.716  0.00  0.00    +0.000 C 
ENDBRANCH  27  28
BRANCH  27  30
ATOM     30  C   UNL     1       2.922   7.990  17.880  0.00  0.00    +0.000 C 
ATOM     31  C   UNL     1       1.776   8.991  17.882  0.00  0.00    +0.000 C 
ENDBRANCH  27  30
ENDBRANCH  21  27
ENDBRANCH   3  21
TORSDOF 10
ENDMDL
MODEL 4
REMARK VINA RESULT:      -7.1      1.405      1.726
REMARK  Name = 
REMARK  14 active torsions:
REMARK  status: ('A' for Active; 'I' for Inactive)
REMARK    1  A    between atoms: C_1  and  C_2
REMARK    2  A    between atoms: C_2  and  O_3
REMARK    3  A    between atoms: O_3  and  P_4
REMARK    4  A    between atoms: P_4  and  O_6
REMARK    5  A    between atoms: P_4  and  C_7
REMARK    6  A    between atoms: C_9  and  C_10
REMARK    7  A    between atoms: C_10  and  N_11
REMARK    8  A    between atoms: C_10  and  C_15
REMARK    9  A    between atoms: C_12  and  C_13
REMARK   10  A    between atoms: C_15  and  C_16
REMARK   11  A    between atoms: C_15  and  C_18
REMARK   12  A    between atoms: C_16  and  C_17
REMARK   13  A    between atoms: C_18  and  C_19
REMARK   14  A    between atoms: C_20  and  N_21
REMARK                            x       y       z     vdW  Elec       q    Type
REMARK                         _______ _______ _______ _____ _____    ______ ____
ROOT
ATOM      1  C   UNL     1       5.991   4.600  15.620  0.00  0.00    +0.000 C 
ATOM      2  C   UNL     1       5.087   5.539  15.875  0.00  0.00    +0.000 C 
ATOM      3  C   UNL     1       4.908   5.790  17.340  0.00  0.00    +0.000 C 
ATOM      4  C   UNL     1       6.115   5.025  17.976  0.00  0.00    +0.000 C 
ATOM      5  C   UNL     1       6.841   4.319  16.815  0.00  0.00    +0.000 C 
ENDROOT
BRANCH   4   6
ATOM      6  N   UNL     1       7.042   5.916  18.669  0.00  0.00    +0.000 N 
ATOM      7  C   UNL     1       7.747   6.916  18.100  0.00  0.00    +0.000 C 
ATOM      8  N   UNL     1       7.733   7.323  16.888  0.00  0.00    +0.000 NA
ATOM      9  N   UNL     1       8.533   7.557  18.987  0.00  0.00    +0.000 N 
ATOM     10  H   UNL     1       7.374   5.609  19.575  0.00  0.00    +0.000 HD
ATOM     11  H   UNL     1       7.083   6.771  16.321  0.00  0.00    +0.000 HD
ATOM     12  H   UNL     1       8.067   7.782  19.854  0.00  0.00    +0.000 HD
ATOM     13  H   UNL     1       8.882   8.405  18.548  0.00  0.00    +0.000 HD
ENDBRANCH   4   6
BRANCH   1  14
ATOM     14  P   UNL     1       6.455   4.003  13.954  0.00  0.00    +0.000 P 
ATOM     15  O   UNL     1       7.158   5.339  13.649  0.00  0.00    +0.000 OA
BRANCH  14  16
ATOM     16  O   UNL     1       4.936   4.189  13.370  0.00  0.00    +0.000 OA
ATOM     17  H   UNL     1       4.903   5.064  12.937  0.00  0.00    +0.000 HD
ENDBRANCH  14  16
BRANCH  14  18
ATOM     18  O   UNL     1       6.893   3.439  12.378  0.00  0.00    +0.000 OA
BRANCH  18  20
ATOM     19  C   UNL     1       6.417   1.432  11.146  0.00  0.00    +0.000 C 
ATOM     20  C   UNL     1       5.849   2.691  11.767  0.00  0.00    +0.000 C 
ENDBRANCH  18  20
ENDBRANCH  14  18
ENDBRANCH   1  14
BRANCH   3  21
ATOM     21  C   UNL     1       3.530   5.269  17.885  0.00  0.00    +0.000 C 
BRANCH  21  22
ATOM     22  N   UNL     1       3.068   6.048  19.052  0.00  0.00    +0.000 N 
ATOM     23  C   UNL     1       2.358   7.215  18.956  0.00  0.00    +0.000 C 
ATOM     24  C   UNL     1       1.939   7.801  20.293  0.00  0.00    +0.000 C 
ATOM     25  O   UNL     1       2.060   7.759  17.890  0.00  0.00    +0.000 OA
ATOM     26  H   UNL     1       3.346   5.721  19.968  0.00  0.00    +0.000 HD
ENDBRANCH  21  22
BRANCH  21  27
ATOM     27  C   UNL     1       3.490   3.721  18.214  0.00  0.00    +0.000 C 
BRANCH  27  28
ATOM     28  C   UNL     1       3.515   3.400  19.736  0.00  0.00    +0.000 C 
ATOM     29  C   UNL     1       4.420   2.263  20.183  0.00  0.00    +0.000 C 
ENDBRANCH  27  28
BRANCH  27  30
ATOM     30  C   UNL     1       2.248   3.044  17.584  0.00  0.00    +0.000 C 
ATOM     31  C   UNL     1       1.132   2.705  18.562  0.00  0.00    +0.000 C 
ENDBRANCH  27  30
ENDBRANCH  21  27
ENDBRANCH   3  21
TORSDOF 10
ENDMDL
MODEL 5
REMARK VINA RESULT:      -7.0      1.896      3.342
REMARK  Name = 
REMARK  14 active torsions:
REMARK  status: ('A' for Active; 'I' for Inactive)
REMARK    1  A    between atoms: C_1  and  C_2
REMARK    2  A    between atoms: C_2  and  O_3
REMARK    3  A    between atoms: O_3  and  P_4
REMARK    4  A    between atoms: P_4  and  O_6
REMARK    5  A    between atoms: P_4  and  C_7
REMARK    6  A    between atoms: C_9  and  C_10
REMARK    7  A    between atoms: C_10  and  N_11
REMARK    8  A    between atoms: C_10  and  C_15
REMARK    9  A    between atoms: C_12  and  C_13
REMARK   10  A    between atoms: C_15  and  C_16
REMARK   11  A    between atoms: C_15  and  C_18
REMARK   12  A    between atoms: C_16  and  C_17
REMARK   13  A    between atoms: C_18  and  C_19
REMARK   14  A    between atoms: C_20  and  N_21
REMARK                            x       y       z     vdW  Elec       q    Type
REMARK                         _______ _______ _______ _____ _____    ______ ____
ROOT
ATOM      1  C   UNL     1       6.166   4.737  16.136  0.00  0.00    +0.000 C 
ATOM      2  C   UNL     1       5.194   5.546  16.542  0.00  0.00    +0.000 C 
ATOM      3  C   UNL     1       5.230   5.801  18.018  0.00  0.00    +0.000 C 
ATOM      4  C   UNL     1       6.623   5.225  18.438  0.00  0.00    +0.000 C 
ATOM      5  C   UNL     1       7.236   4.602  17.169  0.00  0.00    +0.000 C 
ENDROOT
BRANCH   4   6
ATOM      6  N   UNL     1       7.519   6.251  18.966  0.00  0.00    +0.000 N 
ATOM      7  C   UNL     1       7.964   7.331  18.291  0.00  0.00    +0.000 C 
ATOM      8  N   UNL     1       7.683   7.710  17.102  0.00  0.00    +0.000 NA
ATOM      9  N   UNL     1       8.792   8.093  19.033  0.00  0.00    +0.000 N 
ATOM     10  H   UNL     1       8.042   6.011  19.799  0.00  0.00    +0.000 HD
ATOM     11  H   UNL     1       7.032   7.061  16.652  0.00  0.00    +0.000 HD
ATOM     12  H   UNL     1       8.455   8.265  19.969  0.00  0.00    +0.000 HD
ATOM     13  H   UNL     1       8.934   8.974  18.546  0.00  0.00    +0.000 HD
ENDBRANCH   4   6
BRANCH   1  14
ATOM     14  P   UNL     1       6.423   4.175  14.414  0.00  0.00    +0.000 P 
ATOM     15  O   UNL     1       7.489   5.265  14.196  0.00  0.00    +0.000 OA
BRANCH  14  16
ATOM     16  O   UNL     1       5.024   4.851  13.894  0.00  0.00    +0.000 OA
ATOM     17  H   UNL     1       4.339   4.156  13.942  0.00  0.00    +0.000 HD
ENDBRANCH  14  16
BRANCH  14  18
ATOM     18  O   UNL     1       6.666   3.644  12.785  0.00  0.00    +0.000 OA
BRANCH  18  20
ATOM     19  C   UNL     1       5.788   1.877  11.414  0.00  0.00    +0.000 C 
ATOM     20  C   UNL     1       5.473   3.129  12.206  0.00  0.00    +0.000 C 
ENDBRANCH  18  20
ENDBRANCH  14  18
ENDBRANCH   1  14
BRANCH   3  21
ATOM     21  C   UNL     1       4.052   5.104  18.787  0.00  0.00    +0.000 C 
BRANCH  21  22
ATOM     22  N   UNL     1       3.775   3.751  18.262  0.00  0.00    +0.000 N 
ATOM     23  C   UNL     1       4.106   2.596  18.921  0.00  0.00    +0.000 C 
ATOM     24  C   UNL     1       3.662   1.327  18.213  0.00  0.00    +0.000 C 
ATOM     25  O   UNL     1       4.702   2.560  19.999  0.00  0.00    +0.000 OA
ATOM     26  H   UNL     1       3.368   3.686  17.339  0.00  0.00    +0.000 HD
ENDBRANCH  21  22
BRANCH  21  27
ATOM     27  C   UNL     1       2.714   5.946  18.853  0.00  0.00    +0.000 C 
BRANCH  27  28
ATOM     28  C   UNL     1       1.888   5.714  20.151  0.00  0.00    +0.000 C 
ATOM     29  C   UNL     1       1.399   6.953  20.885  0.00  0.00    +0.000 C 
ENDBRANCH  27  28
BRANCH  27  30
ATOM     30  C   UNL     1       2.993   7.462  18.706  0.00  0.00    +0.000 C 
ATOM     31  C   UNL     1       2.158   8.173  17.651  0.00  0.00    +0.000 C 
ENDBRANCH  27  30
ENDBRANCH  21  27
ENDBRANCH   3  21
TORSDOF 10
ENDMDL
MODEL 6
REMARK VINA RESULT:      -6.7      2.001      3.318
REMARK  Name = 
REMARK  14 active torsions:
REMARK  status: ('A' for Active; 'I' for Inactive)
REMARK    1  A    between atoms: C_1  and  C_2
REMARK    2  A    between atoms: C_2  and  O_3
REMARK    3  A    between atoms: O_3  and  P_4
REMARK    4  A    between atoms: P_4  and  O_6
REMARK    5  A    between atoms: P_4  and  C_7
REMARK    6  A    between atoms: C_9  and  C_10
REMARK    7  A    between atoms: C_10  and  N_11
REMARK    8  A    between atoms: C_10  and  C_15
REMARK    9  A    between atoms: C_12  and  C_13
REMARK   10  A    between atoms: C_15  and  C_16
REMARK   11  A    between atoms: C_15  and  C_18
REMARK   12  A    between atoms: C_16  and  C_17
REMARK   13  A    between atoms: C_18  and  C_19
REMARK   14  A    between atoms: C_20  and  N_21
REMARK                            x       y       z     vdW  Elec       q    Type
REMARK                         _______ _______ _______ _____ _____    ______ ____
ROOT
ATOM      1  C   UNL     1       5.863   4.922  16.302  0.00  0.00    +0.000 C 
ATOM      2  C   UNL     1       4.947   5.615  16.969  0.00  0.00    +0.000 C 
ATOM      3  C   UNL     1       5.281   5.771  18.421  0.00  0.00    +0.000 C 
ATOM      4  C   UNL     1       6.768   5.290  18.492  0.00  0.00    +0.000 C 
ATOM      5  C   UNL     1       7.136   4.809  17.074  0.00  0.00    +0.000 C 
ENDROOT
BRANCH   4   6
ATOM      6  N   UNL     1       7.683   6.350  18.906  0.00  0.00    +0.000 N 
ATOM      7  C   UNL     1       7.947   7.478  18.214  0.00  0.00    +0.000 C 
ATOM      8  N   UNL     1       7.447   7.879  17.107  0.00  0.00    +0.000 NA
ATOM      9  N   UNL     1       8.845   8.263  18.839  0.00  0.00    +0.000 N 
ATOM     10  H   UNL     1       8.353   6.114  19.627  0.00  0.00    +0.000 HD
ATOM     11  H   UNL     1       6.764   7.208  16.745  0.00  0.00    +0.000 HD
ATOM     12  H   UNL     1       8.664   8.382  19.826  0.00  0.00    +0.000 HD
ATOM     13  H   UNL     1       8.854   9.168  18.374  0.00  0.00    +0.000 HD
ENDBRANCH   4   6
BRANCH   1  14
ATOM     14  P   UNL     1       5.782   4.503  14.523  0.00  0.00    +0.000 P 
ATOM     15  O   UNL     1       6.186   3.047  14.827  0.00  0.00    +0.000 OA
BRANCH  14  16
ATOM     16  O   UNL     1       7.193   5.266  14.191  0.00  0.00    +0.000 OA
ATOM     17  H   UNL     1       7.756   4.625  13.713  0.00  0.00    +0.000 HD
ENDBRANCH  14  16
BRANCH  14  18
ATOM     18  O   UNL     1       5.706   4.106  12.841  0.00  0.00    +0.000 OA
BRANCH  18  20
ATOM     19  C   UNL     1       6.863   2.506  11.472  0.00  0.00    +0.000 C 
ATOM     20  C   UNL     1       6.981   3.760  12.313  0.00  0.00    +0.000 C 
ENDBRANCH  18  20
ENDBRANCH  14  18
ENDBRANCH   1  14
BRANCH   3  21
ATOM     21  C   UNL     1       4.346   4.925  19.357  0.00  0.00    +0.000 C 
BRANCH  21  22
ATOM     22  N   UNL     1       3.910   3.669  18.712  0.00  0.00    +0.000 N 
ATOM     23  C   UNL     1       4.193   2.422  19.204  0.00  0.00    +0.000 C 
ATOM     24  C   UNL     1       3.584   1.285  18.402  0.00  0.00    +0.000 C 
ATOM     25  O   UNL     1       4.870   2.212  20.213  0.00  0.00    +0.000 OA
ATOM     26  H   UNL     1       3.425   3.746  17.828  0.00  0.00    +0.000 HD
ENDBRANCH  21  22
BRANCH  21  27
ATOM     27  C   UNL     1       3.094   5.707  19.925  0.00  0.00    +0.000 C 
BRANCH  27  28
ATOM     28  C   UNL     1       2.126   6.232  18.826  0.00  0.00    +0.000 C 
ATOM     29  C   UNL     1       2.196   7.715  18.500  0.00  0.00    +0.000 C 
ENDBRANCH  27  28
BRANCH  27  30
ATOM     30  C   UNL     1       2.289   4.835  20.920  0.00  0.00    +0.000 C 
ATOM     31  C   UNL     1       0.947   4.338  20.403  0.00  0.00    +0.000 C 
ENDBRANCH  27  30
ENDBRANCH  21  27
ENDBRANCH   3  21
TORSDOF 10
ENDMDL
MODEL 7
REMARK VINA RESULT:      -6.6      1.111      1.208
REMARK  Name = 
REMARK  14 active torsions:
REMARK  status: ('A' for Active; 'I' for Inactive)
REMARK    1  A    between atoms: C_1  and  C_2
REMARK    2  A    between atoms: C_2  and  O_3
REMARK    3  A    between atoms: O_3  and  P_4
REMARK    4  A    between atoms: P_4  and  O_6
REMARK    5  A    between atoms: P_4  and  C_7
REMARK    6  A    between atoms: C_9  and  C_10
REMARK    7  A    between atoms: C_10  and  N_11
REMARK    8  A    between atoms: C_10  and  C_15
REMARK    9  A    between atoms: C_12  and  C_13
REMARK   10  A    between atoms: C_15  and  C_16
REMARK   11  A    between atoms: C_15  and  C_18
REMARK   12  A    between atoms: C_16  and  C_17
REMARK   13  A    between atoms: C_18  and  C_19
REMARK   14  A    between atoms: C_20  and  N_21
REMARK                            x       y       z     vdW  Elec       q    Type
REMARK                         _______ _______ _______ _____ _____    ______ ____
ROOT
ATOM      1  C   UNL     1       4.829   4.867  16.596  0.00  0.00    +0.000 C 
ATOM      2  C   UNL     1       4.312   5.955  17.158  0.00  0.00    +0.000 C 
ATOM      3  C   UNL     1       4.188   5.835  18.646  0.00  0.00    +0.000 C 
ATOM      4  C   UNL     1       5.020   4.550  18.965  0.00  0.00    +0.000 C 
ATOM      5  C   UNL     1       5.483   3.985  17.608  0.00  0.00    +0.000 C 
ENDROOT
BRANCH   4   6
ATOM      6  N   UNL     1       6.182   4.827  19.805  0.00  0.00    +0.000 N 
ATOM      7  C   UNL     1       7.302   5.470  19.414  0.00  0.00    +0.000 C 
ATOM      8  N   UNL     1       7.573   5.998  18.281  0.00  0.00    +0.000 NA
ATOM      9  N   UNL     1       8.211   5.564  20.404  0.00  0.00    +0.000 N 
ATOM     10  H   UNL     1       6.265   4.285  20.656  0.00  0.00    +0.000 HD
ATOM     11  H   UNL     1       6.798   5.879  17.623  0.00  0.00    +0.000 HD
ATOM     12  H   UNL     1       7.819   5.856  21.288  0.00  0.00    +0.000 HD
ATOM     13  H   UNL     1       8.934   6.216  20.110  0.00  0.00    +0.000 HD
ENDBRANCH   4   6
BRANCH   1  14
ATOM     14  P   UNL     1       5.101   4.632  14.802  0.00  0.00    +0.000 P 
ATOM     15  O   UNL     1       6.062   3.461  15.081  0.00  0.00    +0.000 OA
BRANCH  14  16
ATOM     16  O   UNL     1       6.071   5.948  14.690  0.00  0.00    +0.000 OA
ATOM     17  H   UNL     1       5.774   6.454  13.908  0.00  0.00    +0.000 HD
ENDBRANCH  14  16
BRANCH  14  18
ATOM     18  O   UNL     1       5.359   4.411  13.106  0.00  0.00    +0.000 OA
BRANCH  18  20
ATOM     19  C   UNL     1       7.191   3.746  11.701  0.00  0.00    +0.000 C 
ATOM     20  C   UNL     1       6.269   3.352  12.836  0.00  0.00    +0.000 C 
ENDBRANCH  18  20
ENDBRANCH  14  18
ENDBRANCH   1  14
BRANCH   3  21
ATOM     21  C   UNL     1       2.699   5.703  19.125  0.00  0.00    +0.000 C 
BRANCH  21  22
ATOM     22  N   UNL     1       2.404   6.599  20.262  0.00  0.00    +0.000 N 
ATOM     23  C   UNL     1       1.885   7.860  20.124  0.00  0.00    +0.000 C 
ATOM     24  C   UNL     1       1.608   8.566  21.441  0.00  0.00    +0.000 C 
ATOM     25  O   UNL     1       1.644   8.395  19.040  0.00  0.00    +0.000 OA
ATOM     26  H   UNL     1       2.655   6.274  21.186  0.00  0.00    +0.000 HD
ENDBRANCH  21  22
BRANCH  21  27
ATOM     27  C   UNL     1       2.238   4.227  19.462  0.00  0.00    +0.000 C 
BRANCH  27  28
ATOM     28  C   UNL     1       1.517   4.091  20.834  0.00  0.00    +0.000 C 
ATOM     29  C   UNL     1       2.118   3.113  21.832  0.00  0.00    +0.000 C 
ENDBRANCH  27  28
BRANCH  27  30
ATOM     30  C   UNL     1       1.315   3.658  18.357  0.00  0.00    +0.000 C 
ATOM     31  C   UNL     1       0.782   2.258  18.619  0.00  0.00    +0.000 C 
ENDBRANCH  27  30
ENDBRANCH  21  27
ENDBRANCH   3  21
TORSDOF 10
ENDMDL
MODEL 8
REMARK VINA RESULT:      -6.6      2.046      3.415
REMARK  Name = 
REMARK  14 active torsions:
REMARK  status: ('A' for Active; 'I' for Inactive)
REMARK    1  A    between atoms: C_1  and  C_2
REMARK    2  A    between atoms: C_2  and  O_3
REMARK    3  A    between atoms: O_3  and  P_4
REMARK    4  A    between atoms: P_4  and  O_6
REMARK    5  A    between atoms: P_4  and  C_7
REMARK    6  A    between atoms: C_9  and  C_10
REMARK    7  A    between atoms: C_10  and  N_11
REMARK    8  A    between atoms: C_10  and  C_15
REMARK    9  A    between atoms: C_12  and  C_13
REMARK   10  A    between atoms: C_15  and  C_16
REMARK   11  A    between atoms: C_15  and  C_18
REMARK   12  A    between atoms: C_16  and  C_17
REMARK   13  A    between atoms: C_18  and  C_19
REMARK   14  A    between atoms: C_20  and  N_21
REMARK                            x       y       z     vdW  Elec       q    Type
REMARK                         _______ _______ _______ _____ _____    ______ ____
ROOT
ATOM      1  C   UNL     1       5.964   5.561  15.363  0.00  0.00    +0.000 C 
ATOM      2  C   UNL     1       4.848   6.230  15.632  0.00  0.00    +0.000 C 
ATOM      3  C   UNL     1       4.888   6.912  16.965  0.00  0.00    +0.000 C 
ATOM      4  C   UNL     1       6.393   6.794  17.374  0.00  0.00    +0.000 C 
ATOM      5  C   UNL     1       7.079   5.967  16.269  0.00  0.00    +0.000 C 
ENDROOT
BRANCH   4   6
ATOM      6  N   UNL     1       7.046   8.095  17.493  0.00  0.00    +0.000 N 
ATOM      7  C   UNL     1       8.087   8.383  18.300  0.00  0.00    +0.000 C 
ATOM      8  N   UNL     1       8.739   7.607  19.081  0.00  0.00    +0.000 NA
ATOM      9  N   UNL     1       8.466   9.672  18.207  0.00  0.00    +0.000 N 
ATOM     10  H   UNL     1       6.531   8.894  17.143  0.00  0.00    +0.000 HD
ATOM     11  H   UNL     1       8.370   6.653  19.047  0.00  0.00    +0.000 HD
ATOM     12  H   UNL     1       8.539  10.006  17.257  0.00  0.00    +0.000 HD
ATOM     13  H   UNL     1       9.360   9.776  18.683  0.00  0.00    +0.000 HD
ENDBRANCH   4   6
BRANCH   1  14
ATOM     14  P   UNL     1       6.270   4.581  13.849  0.00  0.00    +0.000 P 
ATOM     15  O   UNL     1       6.540   3.321  14.694  0.00  0.00    +0.000 OA
BRANCH  14  16
ATOM     16  O   UNL     1       7.747   5.248  13.611  0.00  0.00    +0.000 OA
ATOM     17  H   UNL     1       7.759   6.093  14.102  0.00  0.00    +0.000 HD
ENDBRANCH  14  16
BRANCH  14  18
ATOM     18  O   UNL     1       6.559   3.654  12.416  0.00  0.00    +0.000 OA
BRANCH  18  20
ATOM     19  C   UNL     1       5.760   1.697  11.275  0.00  0.00    +0.000 C 
ATOM     20  C   UNL     1       5.385   2.996  11.957  0.00  0.00    +0.000 C 
ENDBRANCH  18  20
ENDBRANCH  14  18
ENDBRANCH   1  14
BRANCH   3  21
ATOM     21  C   UNL     1       3.939   6.243  18.021  0.00  0.00    +0.000 C 
BRANCH  21  22
ATOM     22  N   UNL     1       3.653   4.831  17.690  0.00  0.00    +0.000 N 
ATOM     23  C   UNL     1       4.273   3.767  18.292  0.00  0.00    +0.000 C 
ATOM     24  C   UNL     1       3.767   2.411  17.831  0.00  0.00    +0.000 C 
ATOM     25  O   UNL     1       5.158   3.872  19.143  0.00  0.00    +0.000 OA
ATOM     26  H   UNL     1       3.003   4.654  16.937  0.00  0.00    +0.000 HD
ENDBRANCH  21  22
BRANCH  21  27
ATOM     27  C   UNL     1       2.588   7.022  18.288  0.00  0.00    +0.000 C 
BRANCH  27  28
ATOM     28  C   UNL     1       2.322   7.326  19.790  0.00  0.00    +0.000 C 
ATOM     29  C   UNL     1       1.388   6.379  20.528  0.00  0.00    +0.000 C 
ENDBRANCH  27  28
BRANCH  27  30
ATOM     30  C   UNL     1       2.539   8.352  17.496  0.00  0.00    +0.000 C 
ATOM     31  C   UNL     1       1.778   9.480  18.177  0.00  0.00    +0.000 C 
ENDBRANCH  27  30
ENDBRANCH  21  27
ENDBRANCH   3  21
TORSDOF 10
ENDMDL
MODEL 9
REMARK VINA RESULT:      -6.6      1.980      3.489
REMARK  Name = 
REMARK  14 active torsions:
REMARK  status: ('A' for Active; 'I' for Inactive)
REMARK    1  A    between atoms: C_1  and  C_2
REMARK    2  A    between atoms: C_2  and  O_3
REMARK    3  A    between atoms: O_3  and  P_4
REMARK    4  A    between atoms: P_4  and  O_6
REMARK    5  A    between atoms: P_4  and  C_7
REMARK    6  A    between atoms: C_9  and  C_10
REMARK    7  A    between atoms: C_10  and  N_11
REMARK    8  A    between atoms: C_10  and  C_15
REMARK    9  A    between atoms: C_12  and  C_13
REMARK   10  A    between atoms: C_15  and  C_16
REMARK   11  A    between atoms: C_15  and  C_18
REMARK   12  A    between atoms: C_16  and  C_17
REMARK   13  A    between atoms: C_18  and  C_19
REMARK   14  A    between atoms: C_20  and  N_21
REMARK                            x       y       z     vdW  Elec       q    Type
REMARK                         _______ _______ _______ _____ _____    ______ ____
ROOT
ATOM      1  C   UNL     1       6.162   4.853  16.384  0.00  0.00    +0.000 C 
ATOM      2  C   UNL     1       5.197   5.575  16.943  0.00  0.00    +0.000 C 
ATOM      3  C   UNL     1       5.425   5.815  18.404  0.00  0.00    +0.000 C 
ATOM      4  C   UNL     1       6.905   5.351  18.608  0.00  0.00    +0.000 C 
ATOM      5  C   UNL     1       7.377   4.795  17.251  0.00  0.00    +0.000 C 
ENDROOT
BRANCH   4   6
ATOM      6  N   UNL     1       7.782   6.441  19.026  0.00  0.00    +0.000 N 
ATOM      7  C   UNL     1       8.051   7.554  18.314  0.00  0.00    +0.000 C 
ATOM      8  N   UNL     1       7.586   7.914  17.178  0.00  0.00    +0.000 NA
ATOM      9  N   UNL     1       8.909   8.375  18.949  0.00  0.00    +0.000 N 
ATOM     10  H   UNL     1       8.429   6.238  19.779  0.00  0.00    +0.000 HD
ATOM     11  H   UNL     1       6.931   7.219  16.809  0.00  0.00    +0.000 HD
ATOM     12  H   UNL     1       8.688   8.517  19.925  0.00  0.00    +0.000 HD
ATOM     13  H   UNL     1       8.919   9.266  18.460  0.00  0.00    +0.000 HD
ENDBRANCH   4   6
BRANCH   1  14
ATOM     14  P   UNL     1       6.212   4.334  14.630  0.00  0.00    +0.000 P 
ATOM     15  O   UNL     1       4.761   4.808  14.427  0.00  0.00    +0.000 OA
BRANCH  14  16
ATOM     16  O   UNL     1       6.083   2.745  15.007  0.00  0.00    +0.000 OA
ATOM     17  H   UNL     1       5.842   2.697  15.953  0.00  0.00    +0.000 HD
ENDBRANCH  14  16
BRANCH  14  18
ATOM     18  O   UNL     1       6.260   3.843  12.971  0.00  0.00    +0.000 OA
BRANCH  18  20
ATOM     19  C   UNL     1       7.989   5.510  12.928  0.00  0.00    +0.000 C 
ATOM     20  C   UNL     1       7.479   4.212  12.338  0.00  0.00    +0.000 C 
ENDBRANCH  18  20
ENDBRANCH  14  18
ENDBRANCH   1  14
BRANCH   3  21
ATOM     21  C   UNL     1       4.428   5.015  19.316  0.00  0.00    +0.000 C 
BRANCH  21  22
ATOM     22  N   UNL     1       3.985   3.757  18.679  0.00  0.00    +0.000 N 
ATOM     23  C   UNL     1       4.246   2.512  19.188  0.00  0.00    +0.000 C 
ATOM     24  C   UNL     1       3.633   1.374  18.391  0.00  0.00    +0.000 C 
ATOM     25  O   UNL     1       4.906   2.305  20.208  0.00  0.00    +0.000 OA
ATOM     26  H   UNL     1       3.512   3.830  17.788  0.00  0.00    +0.000 HD
ENDBRANCH  21  22
BRANCH  21  27
ATOM     27  C   UNL     1       3.175   5.842  19.815  0.00  0.00    +0.000 C 
BRANCH  27  28
ATOM     28  C   UNL     1       2.223   6.294  18.671  0.00  0.00    +0.000 C 
ATOM     29  C   UNL     1       2.404   7.710  18.146  0.00  0.00    +0.000 C 
ENDBRANCH  27  28
BRANCH  27  30
ATOM     30  C   UNL     1       2.354   5.047  20.860  0.00  0.00    +0.000 C 
ATOM     31  C   UNL     1       1.087   4.396  20.325  0.00  0.00    +0.000 C 
ENDBRANCH  27  30
ENDBRANCH  21  27
ENDBRANCH   3  21
TORSDOF 10
ENDMDL
