MODEL 1
REMARK VINA RESULT:      -6.7      0.000      0.000
REMARK  Name = 
REMARK  2 active torsions:
REMARK  status: ('A' for Active; 'I' for Inactive)
REMARK    1  A    between atoms: C_1  and  C_2
REMARK    2  A    between atoms: C_2  and  N_3
REMARK                            x       y       z     vdW  Elec       q    Type
REMARK                         _______ _______ _______ _____ _____    ______ ____
ROOT
ATOM      1  N   UNL     1       6.164   5.856  17.159  0.00  0.00    +0.000 N 
ATOM      2  C   UNL     1       6.630   4.586  16.863  0.00  0.00    +0.000 A 
ATOM      3  O   UNL     1       7.797   4.326  16.576  0.00  0.00    +0.000 OA
ATOM      4  N   UNL     1       5.714   3.572  16.909  0.00  0.00    +0.000 N 
ATOM      5  C   UNL     1       4.383   3.749  17.278  0.00  0.00    +0.000 A 
ATOM      6  C   UNL     1       3.547   2.645  17.450  0.00  0.00    +0.000 A 
ATOM      7  C   UNL     1       2.232   2.836  17.879  0.00  0.00    +0.000 A 
ATOM      8  C   UNL     1       1.744   4.125  18.107  0.00  0.00    +0.000 A 
ATOM      9  C   UNL     1       2.572   5.228  17.905  0.00  0.00    +0.000 A 
ATOM     10  C   UNL     1       3.897   5.032  17.501  0.00  0.00    +0.000 A 
ATOM     11  C   UNL     1       4.822   6.169  17.351  0.00  0.00    +0.000 A 
ATOM     12  O   UNL     1       4.379   7.313  17.407  0.00  0.00    +0.000 OA
ATOM     13  H   UNL     1       6.080   2.648  16.723  0.00  0.00    +0.000 HD
ENDROOT
BRANCH   1  15
ATOM     14  C   UNL     1       7.934   6.989  18.470  0.00  0.00    +0.000 C 
ATOM     15  C   UNL     1       7.122   6.956  17.189  0.00  0.00    +0.000 C 
ENDBRANCH   1  15
TORSDOF 1
ENDMDL
MODEL 2
REMARK VINA RESULT:      -6.6      2.173      2.528
REMARK  Name = 
REMARK  2 active torsions:
REMARK  status: ('A' for Active; 'I' for Inactive)
REMARK    1  A    between atoms: C_1  and  C_2
REMARK    2  A    between atoms: C_2  and  N_3
REMARK                            x       y       z     vdW  Elec       q    Type
REMARK                         _______ _______ _______ _____ _____    ______ ____
ROOT
ATOM      1  N   UNL     1       4.794   5.451  18.160  0.00  0.00    +0.000 N 
ATOM      2  C   UNL     1       5.635   4.415  18.526  0.00  0.00    +0.000 A 
ATOM      3  O   UNL     1       6.815   4.329  18.190  0.00  0.00    +0.000 OA
ATOM      4  N   UNL     1       5.097   3.442  19.322  0.00  0.00    +0.000 N 
ATOM      5  C   UNL     1       3.792   3.473  19.806  0.00  0.00    +0.000 A 
ATOM      6  C   UNL     1       3.363   2.525  20.735  0.00  0.00    +0.000 A 
ATOM      7  C   UNL     1       2.069   2.606  21.256  0.00  0.00    +0.000 A 
ATOM      8  C   UNL     1       1.199   3.611  20.829  0.00  0.00    +0.000 A 
ATOM      9  C   UNL     1       1.620   4.539  19.877  0.00  0.00    +0.000 A 
ATOM     10  C   UNL     1       2.925   4.471  19.377  0.00  0.00    +0.000 A 
ATOM     11  C   UNL     1       3.428   5.479  18.427  0.00  0.00    +0.000 A 
ATOM     12  O   UNL     1       2.642   6.282  17.933  0.00  0.00    +0.000 OA
ATOM     13  H   UNL     1       5.736   2.711  19.606  0.00  0.00    +0.000 HD
ENDROOT
BRANCH   1  15
ATOM     14  C   UNL     1       5.251   6.292  15.875  0.00  0.00    +0.000 C 
ATOM     15  C   UNL     1       5.346   6.546  17.368  0.00  0.00    +0.000 C 
ENDBRANCH   1  15
TORSDOF 1
ENDMDL
MODEL 3
REMARK VINA RESULT:      -6.6      2.269      4.507
REMARK  Name = 
REMARK  2 active torsions:
REMARK  status: ('A' for Active; 'I' for Inactive)
REMARK    1  A    between atoms: C_1  and  C_2
REMARK    2  A    between atoms: C_2  and  N_3
REMARK                            x       y       z     vdW  Elec       q    Type
REMARK                         _______ _______ _______ _____ _____    ______ ____
ROOT
ATOM      1  N   UNL     1       3.267   3.729  18.825  0.00  0.00    +0.000 N 
ATOM      2  C   UNL     1       4.329   3.034  19.376  0.00  0.00    +0.000 A 
ATOM      3  O   UNL     1       4.224   1.956  19.958  0.00  0.00    +0.000 OA
ATOM      4  N   UNL     1       5.567   3.600  19.242  0.00  0.00    +0.000 N 
ATOM      5  C   UNL     1       5.804   4.786  18.553  0.00  0.00    +0.000 A 
ATOM      6  C   UNL     1       7.111   5.220  18.328  0.00  0.00    +0.000 A 
ATOM      7  C   UNL     1       7.333   6.381  17.583  0.00  0.00    +0.000 A 
ATOM      8  C   UNL     1       6.256   7.119  17.090  0.00  0.00    +0.000 A 
ATOM      9  C   UNL     1       4.950   6.699  17.342  0.00  0.00    +0.000 A 
ATOM     10  C   UNL     1       4.732   5.523  18.066  0.00  0.00    +0.000 A 
ATOM     11  C   UNL     1       3.368   5.009  18.287  0.00  0.00    +0.000 A 
ATOM     12  O   UNL     1       2.407   5.712  17.988  0.00  0.00    +0.000 OA
ATOM     13  H   UNL     1       6.334   3.060  19.622  0.00  0.00    +0.000 HD
ENDROOT
BRANCH   1  15
ATOM     14  C   UNL     1       1.193   3.486  20.156  0.00  0.00    +0.000 C 
ATOM     15  C   UNL     1       1.939   3.128  18.884  0.00  0.00    +0.000 C 
ENDBRANCH   1  15
TORSDOF 1
ENDMDL
MODEL 4
REMARK VINA RESULT:      -6.6      2.518      4.267
REMARK  Name = 
REMARK  2 active torsions:
REMARK  status: ('A' for Active; 'I' for Inactive)
REMARK    1  A    between atoms: C_1  and  C_2
REMARK    2  A    between atoms: C_2  and  N_3
REMARK                            x       y       z     vdW  Elec       q    Type
REMARK                         _______ _______ _______ _____ _____    ______ ____
ROOT
ATOM      1  N   UNL     1       3.273   3.598  19.246  0.00  0.00    +0.000 N 
ATOM      2  C   UNL     1       3.711   2.504  18.520  0.00  0.00    +0.000 A 
ATOM      3  O   UNL     1       3.482   1.335  18.822  0.00  0.00    +0.000 OA
ATOM      4  N   UNL     1       4.436   2.769  17.391  0.00  0.00    +0.000 N 
ATOM      5  C   UNL     1       4.703   4.055  16.928  0.00  0.00    +0.000 A 
ATOM      6  C   UNL     1       5.316   4.244  15.690  0.00  0.00    +0.000 A 
ATOM      7  C   UNL     1       5.522   5.541  15.213  0.00  0.00    +0.000 A 
ATOM      8  C   UNL     1       5.144   6.643  15.982  0.00  0.00    +0.000 A 
ATOM      9  C   UNL     1       4.558   6.452  17.233  0.00  0.00    +0.000 A 
ATOM     10  C   UNL     1       4.330   5.152  17.696  0.00  0.00    +0.000 A 
ATOM     11  C   UNL     1       3.646   4.912  18.979  0.00  0.00    +0.000 A 
ATOM     12  O   UNL     1       3.434   5.858  19.732  0.00  0.00    +0.000 OA
ATOM     13  H   UNL     1       4.718   1.959  16.856  0.00  0.00    +0.000 HD
ENDROOT
BRANCH   1  15
ATOM     14  C   UNL     1       0.955   3.416  20.101  0.00  0.00    +0.000 C 
ATOM     15  C   UNL     1       2.438   3.361  20.419  0.00  0.00    +0.000 C 
ENDBRANCH   1  15
TORSDOF 1
ENDMDL
MODEL 5
REMARK VINA RESULT:      -6.6      2.628      4.259
REMARK  Name = 
REMARK  2 active torsions:
REMARK  status: ('A' for Active; 'I' for Inactive)
REMARK    1  A    between atoms: C_1  and  C_2
REMARK    2  A    between atoms: C_2  and  N_3
REMARK                            x       y       z     vdW  Elec       q    Type
REMARK                         _______ _______ _______ _____ _____    ______ ____
ROOT
ATOM      1  N   UNL     1       3.410   4.223  19.932  0.00  0.00    +0.000 N 
ATOM      2  C   UNL     1       4.291   3.174  19.730  0.00  0.00    +0.000 A 
ATOM      3  O   UNL     1       4.317   2.151  20.412  0.00  0.00    +0.000 OA
ATOM      4  N   UNL     1       5.172   3.306  18.693  0.00  0.00    +0.000 N 
ATOM      5  C   UNL     1       5.188   4.396  17.826  0.00  0.00    +0.000 A 
ATOM      6  C   UNL     1       6.013   4.387  16.701  0.00  0.00    +0.000 A 
ATOM      7  C   UNL     1       5.973   5.462  15.809  0.00  0.00    +0.000 A 
ATOM      8  C   UNL     1       5.136   6.552  16.055  0.00  0.00    +0.000 A 
ATOM      9  C   UNL     1       4.335   6.571  17.197  0.00  0.00    +0.000 A 
ATOM     10  C   UNL     1       4.358   5.481  18.074  0.00  0.00    +0.000 A 
ATOM     11  C   UNL     1       3.470   5.434  19.249  0.00  0.00    +0.000 A 
ATOM     12  O   UNL     1       2.834   6.437  19.561  0.00  0.00    +0.000 OA
ATOM     13  H   UNL     1       5.784   2.515  18.541  0.00  0.00    +0.000 HD
ENDROOT
BRANCH   1  15
ATOM     14  C   UNL     1       1.085   3.558  20.469  0.00  0.00    +0.000 C 
ATOM     15  C   UNL     1       2.408   4.094  20.985  0.00  0.00    +0.000 C 
ENDBRANCH   1  15
TORSDOF 1
ENDMDL
MODEL 6
REMARK VINA RESULT:      -6.6      1.224      1.224
REMARK  Name = 
REMARK  2 active torsions:
REMARK  status: ('A' for Active; 'I' for Inactive)
REMARK    1  A    between atoms: C_1  and  C_2
REMARK    2  A    between atoms: C_2  and  N_3
REMARK                            x       y       z     vdW  Elec       q    Type
REMARK                         _______ _______ _______ _____ _____    ______ ____
ROOT
ATOM      1  N   UNL     1       6.352   5.759  17.437  0.00  0.00    +0.000 N 
ATOM      2  C   UNL     1       6.857   4.648  18.091  0.00  0.00    +0.000 A 
ATOM      3  O   UNL     1       8.053   4.377  18.173  0.00  0.00    +0.000 OA
ATOM      4  N   UNL     1       5.945   3.821  18.686  0.00  0.00    +0.000 N 
ATOM      5  C   UNL     1       4.574   4.066  18.702  0.00  0.00    +0.000 A 
ATOM      6  C   UNL     1       3.724   3.259  19.458  0.00  0.00    +0.000 A 
ATOM      7  C   UNL     1       2.359   3.555  19.512  0.00  0.00    +0.000 A 
ATOM      8  C   UNL     1       1.843   4.634  18.792  0.00  0.00    +0.000 A 
ATOM      9  C   UNL     1       2.691   5.421  18.013  0.00  0.00    +0.000 A 
ATOM     10  C   UNL     1       4.060   5.138  17.982  0.00  0.00    +0.000 A 
ATOM     11  C   UNL     1       4.996   5.993  17.230  0.00  0.00    +0.000 A 
ATOM     12  O   UNL     1       4.549   6.856  16.480  0.00  0.00    +0.000 OA
ATOM     13  H   UNL     1       6.335   3.034  19.187  0.00  0.00    +0.000 HD
ENDROOT
BRANCH   1  15
ATOM     14  C   UNL     1       7.707   7.797  17.817  0.00  0.00    +0.000 C 
ATOM     15  C   UNL     1       7.294   6.705  16.849  0.00  0.00    +0.000 C 
ENDBRANCH   1  15
TORSDOF 1
ENDMDL
MODEL 7
REMARK VINA RESULT:      -6.5      2.632      4.467
REMARK  Name = 
REMARK  2 active torsions:
REMARK  status: ('A' for Active; 'I' for Inactive)
REMARK    1  A    between atoms: C_1  and  C_2
REMARK    2  A    between atoms: C_2  and  N_3
REMARK                            x       y       z     vdW  Elec       q    Type
REMARK                         _______ _______ _______ _____ _____    ______ ____
ROOT
ATOM      1  N   UNL     1       3.301   3.297  19.601  0.00  0.00    +0.000 N 
ATOM      2  C   UNL     1       4.579   2.793  19.773  0.00  0.00    +0.000 A 
ATOM      3  O   UNL     1       4.843   1.779  20.417  0.00  0.00    +0.000 OA
ATOM      4  N   UNL     1       5.595   3.481  19.169  0.00  0.00    +0.000 N 
ATOM      5  C   UNL     1       5.399   4.606  18.372  0.00  0.00    +0.000 A 
ATOM      6  C   UNL     1       6.467   5.162  17.666  0.00  0.00    +0.000 A 
ATOM      7  C   UNL     1       6.242   6.254  16.824  0.00  0.00    +0.000 A 
ATOM      8  C   UNL     1       4.964   6.805  16.709  0.00  0.00    +0.000 A 
ATOM      9  C   UNL     1       3.905   6.266  17.439  0.00  0.00    +0.000 A 
ATOM     10  C   UNL     1       4.128   5.156  18.261  0.00  0.00    +0.000 A 
ATOM     11  C   UNL     1       3.019   4.515  18.988  0.00  0.00    +0.000 A 
ATOM     12  O   UNL     1       1.921   5.064  19.014  0.00  0.00    +0.000 OA
ATOM     13  H   UNL     1       6.516   3.079  19.279  0.00  0.00    +0.000 HD
ENDROOT
BRANCH   1  15
ATOM     14  C   UNL     1       1.887   2.952  21.605  0.00  0.00    +0.000 C 
ATOM     15  C   UNL     1       2.181   2.556  20.170  0.00  0.00    +0.000 C 
ENDBRANCH   1  15
TORSDOF 1
ENDMDL
MODEL 8
REMARK VINA RESULT:      -6.5      2.618      4.731
REMARK  Name = 
REMARK  2 active torsions:
REMARK  status: ('A' for Active; 'I' for Inactive)
REMARK    1  A    between atoms: C_1  and  C_2
REMARK    2  A    between atoms: C_2  and  N_3
REMARK                            x       y       z     vdW  Elec       q    Type
REMARK                         _______ _______ _______ _____ _____    ______ ____
ROOT
ATOM      1  N   UNL     1       3.217   2.742  18.713  0.00  0.00    +0.000 N 
ATOM      2  C   UNL     1       4.217   2.824  19.667  0.00  0.00    +0.000 A 
ATOM      3  O   UNL     1       4.138   2.342  20.796  0.00  0.00    +0.000 OA
ATOM      4  N   UNL     1       5.360   3.479  19.302  0.00  0.00    +0.000 N 
ATOM      5  C   UNL     1       5.574   4.010  18.032  0.00  0.00    +0.000 A 
ATOM      6  C   UNL     1       6.823   4.529  17.688  0.00  0.00    +0.000 A 
ATOM      7  C   UNL     1       7.039   5.002  16.392  0.00  0.00    +0.000 A 
ATOM      8  C   UNL     1       6.006   4.985  15.453  0.00  0.00    +0.000 A 
ATOM      9  C   UNL     1       4.750   4.493  15.809  0.00  0.00    +0.000 A 
ATOM     10  C   UNL     1       4.545   3.996  17.100  0.00  0.00    +0.000 A 
ATOM     11  C   UNL     1       3.253   3.401  17.488  0.00  0.00    +0.000 A 
ATOM     12  O   UNL     1       2.294   3.504  16.729  0.00  0.00    +0.000 OA
ATOM     13  H   UNL     1       6.091   3.499  20.001  0.00  0.00    +0.000 HD
ENDROOT
BRANCH   1  15
ATOM     14  C   UNL     1       0.962   2.843  19.731  0.00  0.00    +0.000 C 
ATOM     15  C   UNL     1       2.009   1.992  19.037  0.00  0.00    +0.000 C 
ENDBRANCH   1  15
TORSDOF 1
ENDMDL
MODEL 9
REMARK VINA RESULT:      -6.3      2.900      5.105
REMARK  Name = 
REMARK  2 active torsions:
REMARK  status: ('A' for Active; 'I' for Inactive)
REMARK    1  A    between atoms: C_1  and  C_2
REMARK    2  A    between atoms: C_2  and  N_3
REMARK                            x       y       z     vdW  Elec       q    Type
REMARK                         _______ _______ _______ _____ _____    ______ ____
ROOT
ATOM      1  N   UNL     1       1.987   4.329  19.569  0.00  0.00    +0.000 N 
ATOM      2  C   UNL     1       2.136   5.673  19.868  0.00  0.00    +0.000 A 
ATOM      3  O   UNL     1       1.576   6.240  20.803  0.00  0.00    +0.000 OA
ATOM      4  N   UNL     1       2.975   6.390  19.060  0.00  0.00    +0.000 N 
ATOM      5  C   UNL     1       3.701   5.833  18.011  0.00  0.00    +0.000 A 
ATOM      6  C   UNL     1       4.651   6.595  17.330  0.00  0.00    +0.000 A 
ATOM      7  C   UNL     1       5.414   6.004  16.320  0.00  0.00    +0.000 A 
ATOM      8  C   UNL     1       5.210   4.667  15.973  0.00  0.00    +0.000 A 
ATOM      9  C   UNL     1       4.239   3.916  16.635  0.00  0.00    +0.000 A 
ATOM     10  C   UNL     1       3.495   4.504  17.663  0.00  0.00    +0.000 A 
ATOM     11  C   UNL     1       2.514   3.719  18.434  0.00  0.00    +0.000 A 
ATOM     12  O   UNL     1       2.218   2.590  18.055  0.00  0.00    +0.000 OA
ATOM     13  H   UNL     1       3.096   7.361  19.315  0.00  0.00    +0.000 HD
ENDROOT
BRANCH   1  15
ATOM     14  C   UNL     1       1.948   2.872  21.572  0.00  0.00    +0.000 C 
ATOM     15  C   UNL     1       1.156   3.511  20.447  0.00  0.00    +0.000 C 
ENDBRANCH   1  15
TORSDOF 1
ENDMDL
