MODEL 1
REMARK VINA RESULT:      -7.3      0.000      0.000
REMARK  Name = 
REMARK  8 active torsions:
REMARK  status: ('A' for Active; 'I' for Inactive)
REMARK    1  A    between atoms: C_1  and  C_2
REMARK    2  A    between atoms: C_5  and  N_6
REMARK    3  A    between atoms: C_7  and  C_9
REMARK    4  A    between atoms: C_9  and  C_10
REMARK    5  A    between atoms: C_13  and  S_14
REMARK    6  A    between atoms: S_14  and  C_15
REMARK    7  A    between atoms: C_15  and  C_16
REMARK    8  A    between atoms: N_24  and  C_25
REMARK                            x       y       z     vdW  Elec       q    Type
REMARK                         _______ _______ _______ _____ _____    ______ ____
ROOT
ATOM      1  C   UNL     1       2.276   6.574  19.057  0.00  0.00    +0.000 A 
ATOM      2  N   UNL     1       2.325   6.799  20.358  0.00  0.00    +0.000 NA
ATOM      3  N   UNL     1       2.045   5.626  21.013  0.00  0.00    +0.000 NA
ATOM      4  C   UNL     1       1.842   4.701  20.106  0.00  0.00    +0.000 A 
ATOM      5  N   UNL     1       1.919   5.254  18.858  0.00  0.00    +0.000 N 
ATOM      6  C   UNL     1       1.566   4.645  17.598  0.00  0.00    +0.000 C 
ENDROOT
BRANCH   1   7
ATOM      7  C   UNL     1       2.439   7.580  17.967  0.00  0.00    +0.000 C 
BRANCH   7   9
ATOM      8  N   UNL     1       0.953   9.091  19.271  0.00  0.00    +0.000 N 
ATOM      9  C   UNL     1       1.823   8.950  18.210  0.00  0.00    +0.000 C 
ATOM     10  O   UNL     1       2.073   9.851  17.402  0.00  0.00    +0.000 OA
ATOM     11  H   UNL     1       0.575   8.232  19.670  0.00  0.00    +0.000 HD
BRANCH   8  16
ATOM     12  C   UNL     1      -1.739  14.002  20.453  0.00  0.00    +0.000 C 
ATOM     13  C   UNL     1      -1.043  12.706  20.165  0.00  0.00    +0.000 A 
ATOM     14  C   UNL     1      -1.587  11.774  19.274  0.00  0.00    +0.000 A 
ATOM     15  C   UNL     1      -0.937  10.562  19.019  0.00  0.00    +0.000 A 
ATOM     16  C   UNL     1       0.302  10.298  19.609  0.00  0.00    +0.000 A 
ATOM     17  C   UNL     1       0.848  11.221  20.501  0.00  0.00    +0.000 A 
ATOM     18  C   UNL     1       0.176  12.409  20.791  0.00  0.00    +0.000 A 
ENDBRANCH   8  16
ENDBRANCH   7   9
ENDBRANCH   1   7
BRANCH   4  19
ATOM     19  S   UNL     1       1.450   3.049  20.422  0.00  0.00    +0.000 S 
BRANCH  19  20
ATOM     20  C   UNL     1       3.103   2.301  20.508  0.00  0.00    +0.000 C 
BRANCH  20  21
ATOM     21  C   UNL     1       3.903   2.676  19.274  0.00  0.00    +0.000 C 
ATOM     22  O   UNL     1       3.788   2.041  18.230  0.00  0.00    +0.000 OA
ATOM     23  N   UNL     1       4.803   3.711  19.492  0.00  0.00    +0.000 N 
ATOM     24  C   UNL     1       5.689   4.248  18.606  0.00  0.00    +0.000 C 
ATOM     25  N   UNL     1       6.767   4.797  19.047  0.00  0.00    +0.000 NA
ATOM     26  C   UNL     1       7.560   5.284  17.895  0.00  0.00    +0.000 C 
ATOM     27  C   UNL     1       7.156   4.542  16.628  0.00  0.00    +0.000 C 
ATOM     28  S   UNL     1       5.410   4.228  16.899  0.00  0.00    +0.000 S 
ATOM     29  H   UNL     1       5.035   3.934  20.455  0.00  0.00    +0.000 HD
ENDBRANCH  20  21
ENDBRANCH  19  20
ENDBRANCH   4  19
TORSDOF 6
ENDMDL
MODEL 2
REMARK VINA RESULT:      -7.2      4.939     10.155
REMARK  Name = 
REMARK  8 active torsions:
REMARK  status: ('A' for Active; 'I' for Inactive)
REMARK    1  A    between atoms: C_1  and  C_2
REMARK    2  A    between atoms: C_5  and  N_6
REMARK    3  A    between atoms: C_7  and  C_9
REMARK    4  A    between atoms: C_9  and  C_10
REMARK    5  A    between atoms: C_13  and  S_14
REMARK    6  A    between atoms: S_14  and  C_15
REMARK    7  A    between atoms: C_15  and  C_16
REMARK    8  A    between atoms: N_24  and  C_25
REMARK                            x       y       z     vdW  Elec       q    Type
REMARK                         _______ _______ _______ _____ _____    ______ ____
ROOT
ATOM      1  C   UNL     1       0.329  10.431  22.172  0.00  0.00    +0.000 A 
ATOM      2  N   UNL     1      -0.435  10.620  23.234  0.00  0.00    +0.000 NA
ATOM      3  N   UNL     1      -1.283  11.669  22.977  0.00  0.00    +0.000 NA
ATOM      4  C   UNL     1      -1.033  12.096  21.763  0.00  0.00    +0.000 A 
ATOM      5  N   UNL     1       0.010  11.391  21.230  0.00  0.00    +0.000 N 
ATOM      6  C   UNL     1       0.731  11.665  20.011  0.00  0.00    +0.000 C 
ENDROOT
BRANCH   1   7
ATOM      7  C   UNL     1       1.444   9.449  22.034  0.00  0.00    +0.000 C 
BRANCH   7   9
ATOM      8  N   UNL     1       2.163   7.422  20.784  0.00  0.00    +0.000 N 
ATOM      9  C   UNL     1       1.118   8.148  21.315  0.00  0.00    +0.000 C 
ATOM     10  O   UNL     1      -0.072   7.845  21.175  0.00  0.00    +0.000 OA
ATOM     11  H   UNL     1       3.051   7.910  20.677  0.00  0.00    +0.000 HD
BRANCH   8  16
ATOM     12  C   UNL     1       1.618   2.396  18.099  0.00  0.00    +0.000 C 
ATOM     13  C   UNL     1       1.738   3.719  18.793  0.00  0.00    +0.000 A 
ATOM     14  C   UNL     1       1.495   3.841  20.167  0.00  0.00    +0.000 A 
ATOM     15  C   UNL     1       1.598   5.081  20.805  0.00  0.00    +0.000 A 
ATOM     16  C   UNL     1       2.009   6.205  20.084  0.00  0.00    +0.000 A 
ATOM     17  C   UNL     1       2.248   6.091  18.714  0.00  0.00    +0.000 A 
ATOM     18  C   UNL     1       2.100   4.863  18.068  0.00  0.00    +0.000 A 
ENDBRANCH   8  16
ENDBRANCH   7   9
ENDBRANCH   1   7
BRANCH   4  19
ATOM     19  S   UNL     1      -1.833  13.407  20.973  0.00  0.00    +0.000 S 
BRANCH  19  20
ATOM     20  C   UNL     1      -3.109  13.834  22.193  0.00  0.00    +0.000 C 
BRANCH  20  21
ATOM     21  C   UNL     1      -4.330  12.957  21.989  0.00  0.00    +0.000 C 
ATOM     22  O   UNL     1      -4.871  12.396  22.937  0.00  0.00    +0.000 OA
ATOM     23  N   UNL     1      -4.683  12.803  20.654  0.00  0.00    +0.000 N 
ATOM     24  C   UNL     1      -5.696  12.051  20.139  0.00  0.00    +0.000 C 
ATOM     25  N   UNL     1      -5.594  11.591  18.940  0.00  0.00    +0.000 NA
ATOM     26  C   UNL     1      -6.807  10.801  18.628  0.00  0.00    +0.000 C 
ATOM     27  C   UNL     1      -7.484  10.347  19.914  0.00  0.00    +0.000 C 
ATOM     28  S   UNL     1      -7.130  11.698  21.040  0.00  0.00    +0.000 S 
ATOM     29  H   UNL     1      -3.986  13.043  19.956  0.00  0.00    +0.000 HD
ENDBRANCH  20  21
ENDBRANCH  19  20
ENDBRANCH   4  19
TORSDOF 6
ENDMDL
MODEL 3
REMARK VINA RESULT:      -7.1      4.540      9.195
REMARK  Name = 
REMARK  8 active torsions:
REMARK  status: ('A' for Active; 'I' for Inactive)
REMARK    1  A    between atoms: C_1  and  C_2
REMARK    2  A    between atoms: C_5  and  N_6
REMARK    3  A    between atoms: C_7  and  C_9
REMARK    4  A    between atoms: C_9  and  C_10
REMARK    5  A    between atoms: C_13  and  S_14
REMARK    6  A    between atoms: S_14  and  C_15
REMARK    7  A    between atoms: C_15  and  C_16
REMARK    8  A    between atoms: N_24  and  C_25
REMARK                            x       y       z     vdW  Elec       q    Type
REMARK                         _______ _______ _______ _____ _____    ______ ____
ROOT
ATOM      1  C   UNL     1       0.152  10.595  22.184  0.00  0.00    +0.000 A 
ATOM      2  N   UNL     1      -0.579  10.699  23.280  0.00  0.00    +0.000 NA
ATOM      3  N   UNL     1      -1.498  11.702  23.094  0.00  0.00    +0.000 NA
ATOM      4  C   UNL     1      -1.323  12.186  21.888  0.00  0.00    +0.000 A 
ATOM      5  N   UNL     1      -0.261  11.566  21.291  0.00  0.00    +0.000 N 
ATOM      6  C   UNL     1       0.394  11.926  20.058  0.00  0.00    +0.000 C 
ENDROOT
BRANCH   1   7
ATOM      7  C   UNL     1       1.319   9.689  21.969  0.00  0.00    +0.000 C 
BRANCH   7   9
ATOM      8  N   UNL     1       2.094   7.596  20.870  0.00  0.00    +0.000 N 
ATOM      9  C   UNL     1       1.025   8.350  21.308  0.00  0.00    +0.000 C 
ATOM     10  O   UNL     1      -0.157   8.039  21.128  0.00  0.00    +0.000 OA
ATOM     11  H   UNL     1       2.987   8.078  20.780  0.00  0.00    +0.000 HD
BRANCH   8  16
ATOM     12  C   UNL     1       1.537   2.604  18.126  0.00  0.00    +0.000 C 
ATOM     13  C   UNL     1       1.704   3.902  18.855  0.00  0.00    +0.000 A 
ATOM     14  C   UNL     1       2.220   5.034  18.211  0.00  0.00    +0.000 A 
ATOM     15  C   UNL     1       2.383   6.239  18.902  0.00  0.00    +0.000 A 
ATOM     16  C   UNL     1       1.971   6.341  20.233  0.00  0.00    +0.000 A 
ATOM     17  C   UNL     1       1.460   5.217  20.882  0.00  0.00    +0.000 A 
ATOM     18  C   UNL     1       1.341   4.002  20.205  0.00  0.00    +0.000 A 
ENDBRANCH   8  16
ENDBRANCH   7   9
ENDBRANCH   1   7
BRANCH   4  19
ATOM     19  S   UNL     1      -2.231  13.472  21.177  0.00  0.00    +0.000 S 
BRANCH  19  20
ATOM     20  C   UNL     1      -3.919  12.808  21.267  0.00  0.00    +0.000 C 
BRANCH  20  21
ATOM     21  C   UNL     1      -4.326  12.251  19.916  0.00  0.00    +0.000 C 
ATOM     22  O   UNL     1      -5.481  11.896  19.700  0.00  0.00    +0.000 OA
ATOM     23  N   UNL     1      -3.264  12.114  19.031  0.00  0.00    +0.000 N 
ATOM     24  C   UNL     1      -3.290  11.609  17.766  0.00  0.00    +0.000 C 
ATOM     25  N   UNL     1      -2.226  11.071  17.279  0.00  0.00    +0.000 NA
ATOM     26  C   UNL     1      -2.518  10.590  15.909  0.00  0.00    +0.000 C 
ATOM     27  C   UNL     1      -4.017  10.392  15.731  0.00  0.00    +0.000 C 
ATOM     28  S   UNL     1      -4.709  11.674  16.778  0.00  0.00    +0.000 S 
ATOM     29  H   UNL     1      -2.327  12.135  19.420  0.00  0.00    +0.000 HD
ENDBRANCH  20  21
ENDBRANCH  19  20
ENDBRANCH   4  19
TORSDOF 6
ENDMDL
MODEL 4
REMARK VINA RESULT:      -7.1      3.952      9.740
REMARK  Name = 
REMARK  8 active torsions:
REMARK  status: ('A' for Active; 'I' for Inactive)
REMARK    1  A    between atoms: C_1  and  C_2
REMARK    2  A    between atoms: C_5  and  N_6
REMARK    3  A    between atoms: C_7  and  C_9
REMARK    4  A    between atoms: C_9  and  C_10
REMARK    5  A    between atoms: C_13  and  S_14
REMARK    6  A    between atoms: S_14  and  C_15
REMARK    7  A    between atoms: C_15  and  C_16
REMARK    8  A    between atoms: N_24  and  C_25
REMARK                            x       y       z     vdW  Elec       q    Type
REMARK                         _______ _______ _______ _____ _____    ______ ____
ROOT
ATOM      1  C   UNL     1       1.856   8.190  19.406  0.00  0.00    +0.000 A 
ATOM      2  N   UNL     1       1.864   8.793  18.231  0.00  0.00    +0.000 NA
ATOM      3  N   UNL     1       1.149   9.961  18.338  0.00  0.00    +0.000 NA
ATOM      4  C   UNL     1       0.728  10.058  19.575  0.00  0.00    +0.000 A 
ATOM      5  N   UNL     1       1.094   8.945  20.278  0.00  0.00    +0.000 N 
ATOM      6  C   UNL     1       0.670   8.554  21.600  0.00  0.00    +0.000 C 
ENDROOT
BRANCH   1   7
ATOM      7  C   UNL     1       2.443   6.857  19.732  0.00  0.00    +0.000 C 
BRANCH   7   9
ATOM      8  N   UNL     1       4.192   6.338  18.041  0.00  0.00    +0.000 N 
ATOM      9  C   UNL     1       2.950   6.033  18.558  0.00  0.00    +0.000 C 
ATOM     10  O   UNL     1       2.195   5.181  18.077  0.00  0.00    +0.000 OA
ATOM     11  H   UNL     1       4.584   7.243  18.296  0.00  0.00    +0.000 HD
BRANCH   8  16
ATOM     12  C   UNL     1       6.470   3.704  13.497  0.00  0.00    +0.000 C 
ATOM     13  C   UNL     1       5.896   4.396  14.697  0.00  0.00    +0.000 A 
ATOM     14  C   UNL     1       5.548   5.751  14.654  0.00  0.00    +0.000 A 
ATOM     15  C   UNL     1       5.023   6.392  15.782  0.00  0.00    +0.000 A 
ATOM     16  C   UNL     1       4.784   5.664  16.949  0.00  0.00    +0.000 A 
ATOM     17  C   UNL     1       5.133   4.314  17.000  0.00  0.00    +0.000 A 
ATOM     18  C   UNL     1       5.699   3.687  15.890  0.00  0.00    +0.000 A 
ENDBRANCH   8  16
ENDBRANCH   7   9
ENDBRANCH   1   7
BRANCH   4  19
ATOM     19  S   UNL     1      -0.224  11.350  20.216  0.00  0.00    +0.000 S 
BRANCH  19  20
ATOM     20  C   UNL     1      -0.610  12.289  18.709  0.00  0.00    +0.000 C 
BRANCH  20  21
ATOM     21  C   UNL     1      -2.003  11.932  18.224  0.00  0.00    +0.000 C 
ATOM     22  O   UNL     1      -2.183  11.485  17.095  0.00  0.00    +0.000 OA
ATOM     23  N   UNL     1      -3.003  12.247  19.134  0.00  0.00    +0.000 N 
ATOM     24  C   UNL     1      -4.349  12.093  18.983  0.00  0.00    +0.000 C 
ATOM     25  N   UNL     1      -5.149  12.867  19.632  0.00  0.00    +0.000 NA
ATOM     26  C   UNL     1      -6.544  12.509  19.284  0.00  0.00    +0.000 C 
ATOM     27  C   UNL     1      -6.582  11.775  17.951  0.00  0.00    +0.000 C 
ATOM     28  S   UNL     1      -5.027  10.880  17.953  0.00  0.00    +0.000 S 
ATOM     29  H   UNL     1      -2.770  12.896  19.880  0.00  0.00    +0.000 HD
ENDBRANCH  20  21
ENDBRANCH  19  20
ENDBRANCH   4  19
TORSDOF 6
ENDMDL
MODEL 5
REMARK VINA RESULT:      -7.0      4.355      7.298
REMARK  Name = 
REMARK  8 active torsions:
REMARK  status: ('A' for Active; 'I' for Inactive)
REMARK    1  A    between atoms: C_1  and  C_2
REMARK    2  A    between atoms: C_5  and  N_6
REMARK    3  A    between atoms: C_7  and  C_9
REMARK    4  A    between atoms: C_9  and  C_10
REMARK    5  A    between atoms: C_13  and  S_14
REMARK    6  A    between atoms: S_14  and  C_15
REMARK    7  A    between atoms: C_15  and  C_16
REMARK    8  A    between atoms: N_24  and  C_25
REMARK                            x       y       z     vdW  Elec       q    Type
REMARK                         _______ _______ _______ _____ _____    ______ ____
ROOT
ATOM      1  C   UNL     1       6.819   6.020  18.377  0.00  0.00    +0.000 A 
ATOM      2  N   UNL     1       6.895   5.500  19.589  0.00  0.00    +0.000 NA
ATOM      3  N   UNL     1       5.664   4.990  19.920  0.00  0.00    +0.000 NA
ATOM      4  C   UNL     1       4.861   5.195  18.904  0.00  0.00    +0.000 A 
ATOM      5  N   UNL     1       5.518   5.890  17.928  0.00  0.00    +0.000 N 
ATOM      6  C   UNL     1       4.960   6.492  16.742  0.00  0.00    +0.000 C 
ENDROOT
BRANCH   1   7
ATOM      7  C   UNL     1       7.897   6.750  17.647  0.00  0.00    +0.000 C 
BRANCH   7   9
ATOM      8  N   UNL     1       8.907   8.713  18.794  0.00  0.00    +0.000 N 
ATOM      9  C   UNL     1       7.981   8.251  17.883  0.00  0.00    +0.000 C 
ATOM     10  O   UNL     1       7.165   8.976  17.304  0.00  0.00    +0.000 OA
ATOM     11  H   UNL     1       9.298   8.025  19.437  0.00  0.00    +0.000 HD
BRANCH   8  16
ATOM     12  C   UNL     1       9.518  14.212  20.259  0.00  0.00    +0.000 C 
ATOM     13  C   UNL     1       9.383  12.771  19.871  0.00  0.00    +0.000 A 
ATOM     14  C   UNL     1       9.279  11.766  20.841  0.00  0.00    +0.000 A 
ATOM     15  C   UNL     1       9.165  10.422  20.471  0.00  0.00    +0.000 A 
ATOM     16  C   UNL     1       9.089  10.075  19.120  0.00  0.00    +0.000 A 
ATOM     17  C   UNL     1       9.196  11.071  18.148  0.00  0.00    +0.000 A 
ATOM     18  C   UNL     1       9.357  12.407  18.518  0.00  0.00    +0.000 A 
ENDBRANCH   8  16
ENDBRANCH   7   9
ENDBRANCH   1   7
BRANCH   4  19
ATOM     19  S   UNL     1       3.196   4.741  18.829  0.00  0.00    +0.000 S 
BRANCH  19  20
ATOM     20  C   UNL     1       2.526   5.603  20.282  0.00  0.00    +0.000 C 
BRANCH  20  21
ATOM     21  C   UNL     1       2.139   7.021  19.905  0.00  0.00    +0.000 C 
ATOM     22  O   UNL     1       2.436   7.488  18.810  0.00  0.00    +0.000 OA
ATOM     23  N   UNL     1       1.523   7.719  20.936  0.00  0.00    +0.000 N 
ATOM     24  C   UNL     1       1.098   9.014  20.932  0.00  0.00    +0.000 C 
ATOM     25  N   UNL     1       1.038   9.662  22.044  0.00  0.00    +0.000 NA
ATOM     26  C   UNL     1       0.566  11.039  21.768  0.00  0.00    +0.000 C 
ATOM     27  C   UNL     1       0.818  11.398  20.311  0.00  0.00    +0.000 C 
ATOM     28  S   UNL     1       0.621   9.821  19.478  0.00  0.00    +0.000 S 
ATOM     29  H   UNL     1       1.622   7.347  21.876  0.00  0.00    +0.000 HD
ENDBRANCH  20  21
ENDBRANCH  19  20
ENDBRANCH   4  19
TORSDOF 6
ENDMDL
MODEL 6
REMARK VINA RESULT:      -7.0      5.130      7.357
REMARK  Name = 
REMARK  8 active torsions:
REMARK  status: ('A' for Active; 'I' for Inactive)
REMARK    1  A    between atoms: C_1  and  C_2
REMARK    2  A    between atoms: C_5  and  N_6
REMARK    3  A    between atoms: C_7  and  C_9
REMARK    4  A    between atoms: C_9  and  C_10
REMARK    5  A    between atoms: C_13  and  S_14
REMARK    6  A    between atoms: S_14  and  C_15
REMARK    7  A    between atoms: C_15  and  C_16
REMARK    8  A    between atoms: N_24  and  C_25
REMARK                            x       y       z     vdW  Elec       q    Type
REMARK                         _______ _______ _______ _____ _____    ______ ____
ROOT
ATOM      1  C   UNL     1       7.658   6.679  17.733  0.00  0.00    +0.000 A 
ATOM      2  N   UNL     1       7.924   6.754  16.441  0.00  0.00    +0.000 NA
ATOM      3  N   UNL     1       7.258   5.738  15.801  0.00  0.00    +0.000 NA
ATOM      4  C   UNL     1       6.588   5.067  16.707  0.00  0.00    +0.000 A 
ATOM      5  N   UNL     1       6.847   5.580  17.948  0.00  0.00    +0.000 N 
ATOM      6  C   UNL     1       6.482   5.026  19.228  0.00  0.00    +0.000 C 
ENDROOT
BRANCH   1   7
ATOM      7  C   UNL     1       8.226   7.535  18.816  0.00  0.00    +0.000 C 
BRANCH   7   9
ATOM      8  N   UNL     1       9.401   9.696  19.187  0.00  0.00    +0.000 N 
ATOM      9  C   UNL     1       8.444   9.003  18.477  0.00  0.00    +0.000 C 
ATOM     10  O   UNL     1       7.701   9.521  17.636  0.00  0.00    +0.000 OA
ATOM     11  H   UNL     1       9.724   9.271  20.056  0.00  0.00    +0.000 HD
BRANCH   8  16
ATOM     12  C   UNL     1      10.457  15.275  18.462  0.00  0.00    +0.000 C 
ATOM     13  C   UNL     1      10.205  13.811  18.658  0.00  0.00    +0.000 A 
ATOM     14  C   UNL     1       9.621  13.327  19.836  0.00  0.00    +0.000 A 
ATOM     15  C   UNL     1       9.399  11.957  20.015  0.00  0.00    +0.000 A 
ATOM     16  C   UNL     1       9.703  11.062  18.987  0.00  0.00    +0.000 A 
ATOM     17  C   UNL     1      10.289  11.536  17.814  0.00  0.00    +0.000 A 
ATOM     18  C   UNL     1      10.553  12.898  17.654  0.00  0.00    +0.000 A 
ENDBRANCH   8  16
ENDBRANCH   7   9
ENDBRANCH   1   7
BRANCH   4  19
ATOM     19  S   UNL     1       5.593   3.688  16.408  0.00  0.00    +0.000 S 
BRANCH  19  20
ATOM     20  C   UNL     1       3.973   4.467  16.147  0.00  0.00    +0.000 C 
BRANCH  20  21
ATOM     21  C   UNL     1       3.204   4.505  17.454  0.00  0.00    +0.000 C 
ATOM     22  O   UNL     1       2.527   5.481  17.761  0.00  0.00    +0.000 OA
ATOM     23  N   UNL     1       3.425   3.394  18.258  0.00  0.00    +0.000 N 
ATOM     24  C   UNL     1       2.921   3.148  19.501  0.00  0.00    +0.000 C 
ATOM     25  N   UNL     1       3.581   2.395  20.311  0.00  0.00    +0.000 NA
ATOM     26  C   UNL     1       2.834   2.300  21.587  0.00  0.00    +0.000 C 
ATOM     27  C   UNL     1       1.882   3.479  21.728  0.00  0.00    +0.000 C 
ATOM     28  S   UNL     1       1.411   3.807  20.028  0.00  0.00    +0.000 S 
ATOM     29  H   UNL     1       4.236   2.820  18.050  0.00  0.00    +0.000 HD
ENDBRANCH  20  21
ENDBRANCH  19  20
ENDBRANCH   4  19
TORSDOF 6
ENDMDL
MODEL 7
REMARK VINA RESULT:      -6.8      3.197      6.427
REMARK  Name = 
REMARK  8 active torsions:
REMARK  status: ('A' for Active; 'I' for Inactive)
REMARK    1  A    between atoms: C_1  and  C_2
REMARK    2  A    between atoms: C_5  and  N_6
REMARK    3  A    between atoms: C_7  and  C_9
REMARK    4  A    between atoms: C_9  and  C_10
REMARK    5  A    between atoms: C_13  and  S_14
REMARK    6  A    between atoms: S_14  and  C_15
REMARK    7  A    between atoms: C_15  and  C_16
REMARK    8  A    between atoms: N_24  and  C_25
REMARK                            x       y       z     vdW  Elec       q    Type
REMARK                         _______ _______ _______ _____ _____    ______ ____
ROOT
ATOM      1  C   UNL     1       3.504   3.108  17.388  0.00  0.00    +0.000 A 
ATOM      2  N   UNL     1       2.284   3.355  16.944  0.00  0.00    +0.000 NA
ATOM      3  N   UNL     1       1.406   3.218  17.990  0.00  0.00    +0.000 NA
ATOM      4  C   UNL     1       2.101   2.902  19.056  0.00  0.00    +0.000 A 
ATOM      5  N   UNL     1       3.420   2.764  18.724  0.00  0.00    +0.000 N 
ATOM      6  C   UNL     1       4.486   2.236  19.538  0.00  0.00    +0.000 C 
ENDROOT
BRANCH   1   7
ATOM      7  C   UNL     1       4.759   3.066  16.581  0.00  0.00    +0.000 C 
BRANCH   7   9
ATOM      8  N   UNL     1       5.952   4.891  17.780  0.00  0.00    +0.000 N 
ATOM      9  C   UNL     1       5.600   4.334  16.568  0.00  0.00    +0.000 C 
ATOM     10  O   UNL     1       5.864   4.845  15.474  0.00  0.00    +0.000 OA
ATOM     11  H   UNL     1       5.426   4.580  18.596  0.00  0.00    +0.000 HD
BRANCH   8  16
ATOM     12  C   UNL     1       9.061   9.637  18.538  0.00  0.00    +0.000 C 
ATOM     13  C   UNL     1       8.261   8.388  18.319  0.00  0.00    +0.000 A 
ATOM     14  C   UNL     1       8.485   7.240  19.089  0.00  0.00    +0.000 A 
ATOM     15  C   UNL     1       7.741   6.075  18.872  0.00  0.00    +0.000 A 
ATOM     16  C   UNL     1       6.720   6.068  17.919  0.00  0.00    +0.000 A 
ATOM     17  C   UNL     1       6.495   7.207  17.145  0.00  0.00    +0.000 A 
ATOM     18  C   UNL     1       7.268   8.354  17.331  0.00  0.00    +0.000 A 
ENDBRANCH   8  16
ENDBRANCH   7   9
ENDBRANCH   1   7
BRANCH   4  19
ATOM     19  S   UNL     1       1.454   2.615  20.632  0.00  0.00    +0.000 S 
BRANCH  19  20
ATOM     20  C   UNL     1       2.145   4.015  21.561  0.00  0.00    +0.000 C 
BRANCH  20  21
ATOM     21  C   UNL     1       1.760   5.320  20.887  0.00  0.00    +0.000 C 
ATOM     22  O   UNL     1       0.662   5.832  21.082  0.00  0.00    +0.000 OA
ATOM     23  N   UNL     1       2.719   5.786  19.996  0.00  0.00    +0.000 N 
ATOM     24  C   UNL     1       2.658   6.896  19.209  0.00  0.00    +0.000 C 
ATOM     25  N   UNL     1       3.326   6.926  18.107  0.00  0.00    +0.000 NA
ATOM     26  C   UNL     1       3.080   8.223  17.436  0.00  0.00    +0.000 C 
ATOM     27  C   UNL     1       1.779   8.835  17.936  0.00  0.00    +0.000 C 
ATOM     28  S   UNL     1       1.717   8.281  19.642  0.00  0.00    +0.000 S 
ATOM     29  H   UNL     1       3.424   5.127  19.682  0.00  0.00    +0.000 HD
ENDBRANCH  20  21
ENDBRANCH  19  20
ENDBRANCH   4  19
TORSDOF 6
ENDMDL
MODEL 8
REMARK VINA RESULT:      -6.8      4.234      9.862
REMARK  Name = 
REMARK  8 active torsions:
REMARK  status: ('A' for Active; 'I' for Inactive)
REMARK    1  A    between atoms: C_1  and  C_2
REMARK    2  A    between atoms: C_5  and  N_6
REMARK    3  A    between atoms: C_7  and  C_9
REMARK    4  A    between atoms: C_9  and  C_10
REMARK    5  A    between atoms: C_13  and  S_14
REMARK    6  A    between atoms: S_14  and  C_15
REMARK    7  A    between atoms: C_15  and  C_16
REMARK    8  A    between atoms: N_24  and  C_25
REMARK                            x       y       z     vdW  Elec       q    Type
REMARK                         _______ _______ _______ _____ _____    ______ ____
ROOT
ATOM      1  C   UNL     1       1.651   8.616  19.702  0.00  0.00    +0.000 A 
ATOM      2  N   UNL     1       1.431   9.215  18.545  0.00  0.00    +0.000 NA
ATOM      3  N   UNL     1       0.853  10.436  18.792  0.00  0.00    +0.000 NA
ATOM      4  C   UNL     1       0.740  10.568  20.092  0.00  0.00    +0.000 A 
ATOM      5  N   UNL     1       1.174   9.430  20.712  0.00  0.00    +0.000 N 
ATOM      6  C   UNL     1       1.040   9.075  22.103  0.00  0.00    +0.000 C 
ENDROOT
BRANCH   1   7
ATOM      7  C   UNL     1       2.194   7.241  19.909  0.00  0.00    +0.000 C 
BRANCH   7   9
ATOM      8  N   UNL     1       4.021   6.357  18.470  0.00  0.00    +0.000 N 
ATOM      9  C   UNL     1       2.663   6.501  18.664  0.00  0.00    +0.000 C 
ATOM     10  O   UNL     1       1.809   6.133  17.851  0.00  0.00    +0.000 OA
ATOM     11  H   UNL     1       4.629   6.962  19.021  0.00  0.00    +0.000 HD
BRANCH   8  16
ATOM     12  C   UNL     1       6.255   3.823  13.849  0.00  0.00    +0.000 C 
ATOM     13  C   UNL     1       5.693   4.486  15.070  0.00  0.00    +0.000 A 
ATOM     14  C   UNL     1       5.470   5.868  15.107  0.00  0.00    +0.000 A 
ATOM     15  C   UNL     1       4.955   6.481  16.254  0.00  0.00    +0.000 A 
ATOM     16  C   UNL     1       4.598   5.704  17.359  0.00  0.00    +0.000 A 
ATOM     17  C   UNL     1       4.822   4.327  17.330  0.00  0.00    +0.000 A 
ATOM     18  C   UNL     1       5.379   3.722  16.202  0.00  0.00    +0.000 A 
ENDBRANCH   8  16
ENDBRANCH   7   9
ENDBRANCH   1   7
BRANCH   4  19
ATOM     19  S   UNL     1       0.066  11.932  20.910  0.00  0.00    +0.000 S 
BRANCH  19  20
ATOM     20  C   UNL     1      -1.041  12.601  19.635  0.00  0.00    +0.000 C 
BRANCH  20  21
ATOM     21  C   UNL     1      -2.487  12.382  20.042  0.00  0.00    +0.000 C 
ATOM     22  O   UNL     1      -2.800  12.273  21.223  0.00  0.00    +0.000 OA
ATOM     23  N   UNL     1      -3.349  12.236  18.963  0.00  0.00    +0.000 N 
ATOM     24  C   UNL     1      -4.689  11.987  18.992  0.00  0.00    +0.000 C 
ATOM     25  N   UNL     1      -5.239  11.378  17.999  0.00  0.00    +0.000 NA
ATOM     26  C   UNL     1      -6.684  11.217  18.281  0.00  0.00    +0.000 C 
ATOM     27  C   UNL     1      -6.942  11.310  19.778  0.00  0.00    +0.000 C 
ATOM     28  S   UNL     1      -5.687  12.473  20.319  0.00  0.00    +0.000 S 
ATOM     29  H   UNL     1      -2.936  12.025  18.060  0.00  0.00    +0.000 HD
ENDBRANCH  20  21
ENDBRANCH  19  20
ENDBRANCH   4  19
TORSDOF 6
ENDMDL
MODEL 9
REMARK VINA RESULT:      -6.8      4.929     10.468
REMARK  Name = 
REMARK  8 active torsions:
REMARK  status: ('A' for Active; 'I' for Inactive)
REMARK    1  A    between atoms: C_1  and  C_2
REMARK    2  A    between atoms: C_5  and  N_6
REMARK    3  A    between atoms: C_7  and  C_9
REMARK    4  A    between atoms: C_9  and  C_10
REMARK    5  A    between atoms: C_13  and  S_14
REMARK    6  A    between atoms: S_14  and  C_15
REMARK    7  A    between atoms: C_15  and  C_16
REMARK    8  A    between atoms: N_24  and  C_25
REMARK                            x       y       z     vdW  Elec       q    Type
REMARK                         _______ _______ _______ _____ _____    ______ ____
ROOT
ATOM      1  C   UNL     1       0.482  10.402  18.590  0.00  0.00    +0.000 A 
ATOM      2  N   UNL     1      -0.693   9.936  18.206  0.00  0.00    +0.000 NA
ATOM      3  N   UNL     1      -1.674  10.719  18.763  0.00  0.00    +0.000 NA
ATOM      4  C   UNL     1      -1.085  11.656  19.467  0.00  0.00    +0.000 A 
ATOM      5  N   UNL     1       0.269  11.471  19.441  0.00  0.00    +0.000 N 
ATOM      6  C   UNL     1       1.269  12.143  20.233  0.00  0.00    +0.000 C 
ENDROOT
BRANCH   1   7
ATOM      7  C   UNL     1       1.820   9.815  18.287  0.00  0.00    +0.000 C 
BRANCH   7   9
ATOM      8  N   UNL     1       2.568   7.485  17.840  0.00  0.00    +0.000 N 
ATOM      9  C   UNL     1       2.055   8.385  18.751  0.00  0.00    +0.000 C 
ATOM     10  O   UNL     1       1.706   8.081  19.897  0.00  0.00    +0.000 OA
ATOM     11  H   UNL     1       2.520   7.751  16.857  0.00  0.00    +0.000 HD
BRANCH   8  16
ATOM     12  C   UNL     1       3.799   2.002  18.929  0.00  0.00    +0.000 C 
ATOM     13  C   UNL     1       3.465   3.439  18.666  0.00  0.00    +0.000 A 
ATOM     14  C   UNL     1       4.413   4.451  18.860  0.00  0.00    +0.000 A 
ATOM     15  C   UNL     1       4.090   5.791  18.623  0.00  0.00    +0.000 A 
ATOM     16  C   UNL     1       2.828   6.127  18.127  0.00  0.00    +0.000 A 
ATOM     17  C   UNL     1       1.876   5.124  17.937  0.00  0.00    +0.000 A 
ATOM     18  C   UNL     1       2.185   3.792  18.218  0.00  0.00    +0.000 A 
ENDBRANCH   8  16
ENDBRANCH   7   9
ENDBRANCH   1   7
BRANCH   4  19
ATOM     19  S   UNL     1      -1.886  12.891  20.369  0.00  0.00    +0.000 S 
BRANCH  19  20
ATOM     20  C   UNL     1      -1.876  12.177  22.039  0.00  0.00    +0.000 C 
BRANCH  20  21
ATOM     21  C   UNL     1      -3.175  12.509  22.749  0.00  0.00    +0.000 C 
ATOM     22  O   UNL     1      -3.196  12.736  23.955  0.00  0.00    +0.000 OA
ATOM     23  N   UNL     1      -4.291  12.435  21.925  0.00  0.00    +0.000 N 
ATOM     24  C   UNL     1      -5.595  12.632  22.266  0.00  0.00    +0.000 C 
ATOM     25  N   UNL     1      -6.520  12.046  21.586  0.00  0.00    +0.000 NA
ATOM     26  C   UNL     1      -7.836  12.407  22.162  0.00  0.00    +0.000 C 
ATOM     27  C   UNL     1      -7.671  12.867  23.604  0.00  0.00    +0.000 C 
ATOM     28  S   UNL     1      -6.059  13.656  23.580  0.00  0.00    +0.000 S 
ATOM     29  H   UNL     1      -4.191  11.933  21.048  0.00  0.00    +0.000 HD
ENDBRANCH  20  21
ENDBRANCH  19  20
ENDBRANCH   4  19
TORSDOF 6
ENDMDL
