MODEL 1
REMARK VINA RESULT:      -8.0      0.000      0.000
REMARK  Name = 
REMARK  11 active torsions:
REMARK  status: ('A' for Active; 'I' for Inactive)
REMARK    1  A    between atoms: C_1  and  C_2
REMARK    2  A    between atoms: C_2  and  O_3
REMARK    3  A    between atoms: O_3  and  C_4
REMARK    4  A    between atoms: N_8  and  C_9
REMARK    5  A    between atoms: C_11  and  C_12
REMARK    6  A    between atoms: C_14  and  N_15
REMARK    7  A    between atoms: N_15  and  C_16
REMARK    8  A    between atoms: C_16  and  C_17
REMARK    9  A    between atoms: C_22  and  C_23
REMARK   10  A    between atoms: C_27  and  O_28
REMARK   11  A    between atoms: O_28  and  C_29
REMARK                            x       y       z     vdW  Elec       q    Type
REMARK                         _______ _______ _______ _____ _____    ______ ____
ROOT
ATOM      1  C   UNL     1      -0.051  11.779  20.000  0.00  0.00    +0.000 A 
ATOM      2  C   UNL     1       0.122  10.478  19.470  0.00  0.00    +0.000 A 
ATOM      3  C   UNL     1       1.181  10.171  18.597  0.00  0.00    +0.000 A 
ATOM      4  C   UNL     1       1.962  11.230  18.136  0.00  0.00    +0.000 A 
ATOM      5  C   UNL     1       1.798  12.520  18.628  0.00  0.00    +0.000 A 
ATOM      6  C   UNL     1       0.862  12.786  19.629  0.00  0.00    +0.000 A 
ENDROOT
BRANCH   1  14
ATOM      7  C   UNL     1      -1.240  11.643  22.320  0.00  0.00    +0.000 A 
ATOM      8  C   UNL     1      -2.351  11.849  23.048  0.00  0.00    +0.000 A 
ATOM      9  C   UNL     1      -3.544  12.500  22.456  0.00  0.00    +0.000 A 
ATOM     10  O   UNL     1      -4.551  12.636  23.147  0.00  0.00    +0.000 OA
ATOM     11  N   UNL     1      -3.407  12.938  21.144  0.00  0.00    +0.000 N 
ATOM     12  C   UNL     1      -4.517  13.635  20.514  0.00  0.00    +0.000 C 
ATOM     13  C   UNL     1      -2.264  12.691  20.397  0.00  0.00    +0.000 A 
ATOM     14  C   UNL     1      -1.206  12.028  20.904  0.00  0.00    +0.000 A 
BRANCH   7  15
ATOM     15  O   UNL     1      -0.058  11.111  22.790  0.00  0.00    +0.000 OA
BRANCH  15  17
ATOM     16  C   UNL     1       1.165   9.101  22.353  0.00  0.00    +0.000 C 
ATOM     17  C   UNL     1      -0.028   9.708  23.067  0.00  0.00    +0.000 C 
ENDBRANCH  15  17
ENDBRANCH   7  15
ENDBRANCH   1  14
BRANCH   3  18
ATOM     18  N   UNL     1       1.341   8.867  18.107  0.00  0.00    +0.000 N 
ATOM     19  H   UNL     1       0.876   8.181  18.697  0.00  0.00    +0.000 HD
BRANCH  18  20
ATOM     20  C   UNL     1       2.693   8.433  17.762  0.00  0.00    +0.000 C 
BRANCH  20  21
ATOM     21  C   UNL     1       2.969   7.101  18.417  0.00  0.00    +0.000 A 
ATOM     22  C   UNL     1       2.252   6.743  19.574  0.00  0.00    +0.000 A 
ATOM     23  C   UNL     1       2.487   5.524  20.209  0.00  0.00    +0.000 A 
ATOM     24  C   UNL     1       3.432   4.638  19.699  0.00  0.00    +0.000 A 
ATOM     25  C   UNL     1       4.144   4.968  18.540  0.00  0.00    +0.000 A 
ATOM     26  C   UNL     1       3.913   6.193  17.896  0.00  0.00    +0.000 A 
BRANCH  26  27
ATOM     27  C   UNL     1       4.679   6.490  16.716  0.00  0.00    +0.000 C 
ATOM     28  N   UNL     1       5.285   6.778  15.770  0.00  0.00    +0.000 NA
ENDBRANCH  26  27
ENDBRANCH  20  21
ENDBRANCH  18  20
ENDBRANCH   3  18
BRANCH   6  29
ATOM     29  O   UNL     1       0.786  14.030  20.224  0.00  0.00    +0.000 OA
BRANCH  29  30
ATOM     30  C   UNL     1       0.839  15.164  19.431  0.00  0.00    +0.000 A 
ATOM     31  C   UNL     1      -0.393  15.680  19.016  0.00  0.00    +0.000 A 
ATOM     32  C   UNL     1      -0.448  16.853  18.253  0.00  0.00    +0.000 A 
ATOM     33  C   UNL     1       0.730  17.500  17.897  0.00  0.00    +0.000 A 
ATOM     34  F   UNL     1       0.674  18.631  17.182  0.00  0.00    +0.000 F 
ATOM     35  C   UNL     1       1.964  17.001  18.288  0.00  0.00    +0.000 A 
ATOM     36  C   UNL     1       2.012  15.850  19.072  0.00  0.00    +0.000 A 
ATOM     37  F   UNL     1       3.219  15.421  19.469  0.00  0.00    +0.000 F 
ENDBRANCH  29  30
ENDBRANCH   6  29
TORSDOF 9
ENDMDL
MODEL 2
REMARK VINA RESULT:      -7.8      1.027      1.707
REMARK  Name = 
REMARK  11 active torsions:
REMARK  status: ('A' for Active; 'I' for Inactive)
REMARK    1  A    between atoms: C_1  and  C_2
REMARK    2  A    between atoms: C_2  and  O_3
REMARK    3  A    between atoms: O_3  and  C_4
REMARK    4  A    between atoms: N_8  and  C_9
REMARK    5  A    between atoms: C_11  and  C_12
REMARK    6  A    between atoms: C_14  and  N_15
REMARK    7  A    between atoms: N_15  and  C_16
REMARK    8  A    between atoms: C_16  and  C_17
REMARK    9  A    between atoms: C_22  and  C_23
REMARK   10  A    between atoms: C_27  and  O_28
REMARK   11  A    between atoms: O_28  and  C_29
REMARK                            x       y       z     vdW  Elec       q    Type
REMARK                         _______ _______ _______ _____ _____    ______ ____
ROOT
ATOM      1  C   UNL     1       0.249  11.658  19.948  0.00  0.00    +0.000 A 
ATOM      2  C   UNL     1       0.427  10.367  19.397  0.00  0.00    +0.000 A 
ATOM      3  C   UNL     1       1.479  10.081  18.509  0.00  0.00    +0.000 A 
ATOM      4  C   UNL     1       2.247  11.154  18.057  0.00  0.00    +0.000 A 
ATOM      5  C   UNL     1       2.078  12.435  18.570  0.00  0.00    +0.000 A 
ATOM      6  C   UNL     1       1.150  12.677  19.585  0.00  0.00    +0.000 A 
ENDROOT
BRANCH   1  14
ATOM      7  C   UNL     1      -0.934  11.439  22.266  0.00  0.00    +0.000 A 
ATOM      8  C   UNL     1      -2.039  11.629  23.006  0.00  0.00    +0.000 A 
ATOM      9  C   UNL     1      -3.224  12.322  22.448  0.00  0.00    +0.000 A 
ATOM     10  O   UNL     1      -4.227  12.442  23.148  0.00  0.00    +0.000 OA
ATOM     11  N   UNL     1      -3.086  12.814  21.155  0.00  0.00    +0.000 N 
ATOM     12  C   UNL     1      -4.188  13.554  20.561  0.00  0.00    +0.000 C 
ATOM     13  C   UNL     1      -1.949  12.583  20.394  0.00  0.00    +0.000 A 
ATOM     14  C   UNL     1      -0.899  11.884  20.868  0.00  0.00    +0.000 A 
BRANCH   7  15
ATOM     15  O   UNL     1       0.242  10.870  22.707  0.00  0.00    +0.000 OA
BRANCH  15  17
ATOM     16  C   UNL     1      -0.418   8.618  22.238  0.00  0.00    +0.000 C 
ATOM     17  C   UNL     1       0.170   9.558  23.273  0.00  0.00    +0.000 C 
ENDBRANCH  15  17
ENDBRANCH   7  15
ENDBRANCH   1  14
BRANCH   3  18
ATOM     18  N   UNL     1       1.645   8.786  17.998  0.00  0.00    +0.000 N 
ATOM     19  H   UNL     1       0.806   8.455  17.527  0.00  0.00    +0.000 HD
BRANCH  18  20
ATOM     20  C   UNL     1       2.181   7.766  18.896  0.00  0.00    +0.000 C 
BRANCH  20  21
ATOM     21  C   UNL     1       3.095   6.850  18.116  0.00  0.00    +0.000 A 
ATOM     22  C   UNL     1       4.074   7.410  17.275  0.00  0.00    +0.000 A 
ATOM     23  C   UNL     1       4.929   6.594  16.534  0.00  0.00    +0.000 A 
ATOM     24  C   UNL     1       4.828   5.209  16.625  0.00  0.00    +0.000 A 
ATOM     25  C   UNL     1       3.871   4.632  17.468  0.00  0.00    +0.000 A 
ATOM     26  C   UNL     1       3.008   5.447  18.216  0.00  0.00    +0.000 A 
BRANCH  26  27
ATOM     27  C   UNL     1       2.035   4.805  19.057  0.00  0.00    +0.000 C 
ATOM     28  N   UNL     1       1.263   4.242  19.715  0.00  0.00    +0.000 NA
ENDBRANCH  26  27
ENDBRANCH  20  21
ENDBRANCH  18  20
ENDBRANCH   3  18
BRANCH   6  29
ATOM     29  O   UNL     1       1.071  13.912  20.199  0.00  0.00    +0.000 OA
BRANCH  29  30
ATOM     30  C   UNL     1       1.025  15.055  19.418  0.00  0.00    +0.000 A 
ATOM     31  C   UNL     1      -0.249  15.480  19.027  0.00  0.00    +0.000 A 
ATOM     32  C   UNL     1      -0.404  16.653  18.279  0.00  0.00    +0.000 A 
ATOM     33  C   UNL     1       0.715  17.393  17.914  0.00  0.00    +0.000 A 
ATOM     34  F   UNL     1       0.562  18.523  17.213  0.00  0.00    +0.000 F 
ATOM     35  C   UNL     1       1.989  16.985  18.281  0.00  0.00    +0.000 A 
ATOM     36  C   UNL     1       2.137  15.833  19.051  0.00  0.00    +0.000 A 
ATOM     37  F   UNL     1       3.379  15.492  19.425  0.00  0.00    +0.000 F 
ENDBRANCH  29  30
ENDBRANCH   6  29
TORSDOF 9
ENDMDL
MODEL 3
REMARK VINA RESULT:      -7.7      0.789      1.141
REMARK  Name = 
REMARK  11 active torsions:
REMARK  status: ('A' for Active; 'I' for Inactive)
REMARK    1  A    between atoms: C_1  and  C_2
REMARK    2  A    between atoms: C_2  and  O_3
REMARK    3  A    between atoms: O_3  and  C_4
REMARK    4  A    between atoms: N_8  and  C_9
REMARK    5  A    between atoms: C_11  and  C_12
REMARK    6  A    between atoms: C_14  and  N_15
REMARK    7  A    between atoms: N_15  and  C_16
REMARK    8  A    between atoms: C_16  and  C_17
REMARK    9  A    between atoms: C_22  and  C_23
REMARK   10  A    between atoms: C_27  and  O_28
REMARK   11  A    between atoms: O_28  and  C_29
REMARK                            x       y       z     vdW  Elec       q    Type
REMARK                         _______ _______ _______ _____ _____    ______ ____
ROOT
ATOM      1  C   UNL     1       0.153  11.727  19.915  0.00  0.00    +0.000 A 
ATOM      2  C   UNL     1       0.307  10.453  19.320  0.00  0.00    +0.000 A 
ATOM      3  C   UNL     1       1.358  10.176  18.427  0.00  0.00    +0.000 A 
ATOM      4  C   UNL     1       2.150  11.248  18.016  0.00  0.00    +0.000 A 
ATOM      5  C   UNL     1       2.005  12.513  18.573  0.00  0.00    +0.000 A 
ATOM      6  C   UNL     1       1.077  12.739  19.592  0.00  0.00    +0.000 A 
ENDROOT
BRANCH   1  14
ATOM      7  C   UNL     1      -1.006  11.540  22.248  0.00  0.00    +0.000 A 
ATOM      8  C   UNL     1      -2.111  11.718  22.991  0.00  0.00    +0.000 A 
ATOM      9  C   UNL     1      -3.321  12.357  22.422  0.00  0.00    +0.000 A 
ATOM     10  O   UNL     1      -4.322  12.467  23.127  0.00  0.00    +0.000 OA
ATOM     11  N   UNL     1      -3.208  12.815  21.115  0.00  0.00    +0.000 N 
ATOM     12  C   UNL     1      -4.336  13.502  20.508  0.00  0.00    +0.000 C 
ATOM     13  C   UNL     1      -2.069  12.597  20.351  0.00  0.00    +0.000 A 
ATOM     14  C   UNL     1      -0.995  11.945  20.837  0.00  0.00    +0.000 A 
BRANCH   7  15
ATOM     15  O   UNL     1       0.191  11.021  22.696  0.00  0.00    +0.000 OA
BRANCH  15  17
ATOM     16  C   UNL     1       1.155   8.875  22.260  0.00  0.00    +0.000 C 
ATOM     17  C   UNL     1       0.197   9.660  23.136  0.00  0.00    +0.000 C 
ENDBRANCH  15  17
ENDBRANCH   7  15
ENDBRANCH   1  14
BRANCH   3  18
ATOM     18  N   UNL     1       1.499   8.897  17.871  0.00  0.00    +0.000 N 
ATOM     19  H   UNL     1       0.945   8.204  18.369  0.00  0.00    +0.000 HD
BRANCH  18  20
ATOM     20  C   UNL     1       2.854   8.410  17.626  0.00  0.00    +0.000 C 
BRANCH  20  21
ATOM     21  C   UNL     1       3.027   7.067  18.296  0.00  0.00    +0.000 A 
ATOM     22  C   UNL     1       2.276   6.773  19.449  0.00  0.00    +0.000 A 
ATOM     23  C   UNL     1       2.416   5.546  20.097  0.00  0.00    +0.000 A 
ATOM     24  C   UNL     1       3.299   4.590  19.605  0.00  0.00    +0.000 A 
ATOM     25  C   UNL     1       4.044   4.857  18.450  0.00  0.00    +0.000 A 
ATOM     26  C   UNL     1       3.908   6.089  17.793  0.00  0.00    +0.000 A 
BRANCH  26  27
ATOM     27  C   UNL     1       4.704   6.318  16.618  0.00  0.00    +0.000 C 
ATOM     28  N   UNL     1       5.320   6.545  15.661  0.00  0.00    +0.000 NA
ENDBRANCH  26  27
ENDBRANCH  20  21
ENDBRANCH  18  20
ENDBRANCH   3  18
BRANCH   6  29
ATOM     29  O   UNL     1       1.020  13.953  20.249  0.00  0.00    +0.000 OA
BRANCH  29  30
ATOM     30  C   UNL     1       1.041  15.125  19.510  0.00  0.00    +0.000 A 
ATOM     31  C   UNL     1       2.305  15.576  19.112  0.00  0.00    +0.000 A 
ATOM     32  C   UNL     1       2.427  16.723  18.318  0.00  0.00    +0.000 A 
ATOM     33  C   UNL     1       1.288  17.422  17.934  0.00  0.00    +0.000 A 
ATOM     34  F   UNL     1       1.408  18.508  17.161  0.00  0.00    +0.000 F 
ATOM     35  C   UNL     1       0.027  16.999  18.326  0.00  0.00    +0.000 A 
ATOM     36  C   UNL     1      -0.093  15.840  19.091  0.00  0.00    +0.000 A 
ATOM     37  F   UNL     1      -1.330  15.437  19.415  0.00  0.00    +0.000 F 
ENDBRANCH  29  30
ENDBRANCH   6  29
TORSDOF 9
ENDMDL
MODEL 4
REMARK VINA RESULT:      -7.7      3.091      4.424
REMARK  Name = 
REMARK  11 active torsions:
REMARK  status: ('A' for Active; 'I' for Inactive)
REMARK    1  A    between atoms: C_1  and  C_2
REMARK    2  A    between atoms: C_2  and  O_3
REMARK    3  A    between atoms: O_3  and  C_4
REMARK    4  A    between atoms: N_8  and  C_9
REMARK    5  A    between atoms: C_11  and  C_12
REMARK    6  A    between atoms: C_14  and  N_15
REMARK    7  A    between atoms: N_15  and  C_16
REMARK    8  A    between atoms: C_16  and  C_17
REMARK    9  A    between atoms: C_22  and  C_23
REMARK   10  A    between atoms: C_27  and  O_28
REMARK   11  A    between atoms: O_28  and  C_29
REMARK                            x       y       z     vdW  Elec       q    Type
REMARK                         _______ _______ _______ _____ _____    ______ ____
ROOT
ATOM      1  C   UNL     1       0.490  11.055  19.501  0.00  0.00    +0.000 A 
ATOM      2  C   UNL     1       1.418  10.009  19.714  0.00  0.00    +0.000 A 
ATOM      3  C   UNL     1       1.490   8.898  18.854  0.00  0.00    +0.000 A 
ATOM      4  C   UNL     1       0.504   8.778  17.875  0.00  0.00    +0.000 A 
ATOM      5  C   UNL     1      -0.431   9.785  17.660  0.00  0.00    +0.000 A 
ATOM      6  C   UNL     1      -0.385  10.967  18.400  0.00  0.00    +0.000 A 
ENDROOT
BRANCH   1  14
ATOM      7  C   UNL     1      -0.415  12.249  21.639  0.00  0.00    +0.000 A 
ATOM      8  C   UNL     1      -0.418  13.341  22.422  0.00  0.00    +0.000 A 
ATOM      9  C   UNL     1       0.485  14.483  22.146  0.00  0.00    +0.000 A 
ATOM     10  O   UNL     1       0.423  15.477  22.866  0.00  0.00    +0.000 OA
ATOM     11  N   UNL     1       1.367  14.316  21.085  0.00  0.00    +0.000 N 
ATOM     12  C   UNL     1       2.322  15.372  20.789  0.00  0.00    +0.000 C 
ATOM     13  C   UNL     1       1.338  13.194  20.269  0.00  0.00    +0.000 A 
ATOM     14  C   UNL     1       0.464  12.188  20.465  0.00  0.00    +0.000 A 
BRANCH   7  15
ATOM     15  O   UNL     1      -1.162  11.109  21.846  0.00  0.00    +0.000 OA
BRANCH  15  17
ATOM     16  C   UNL     1      -0.007   9.504  23.193  0.00  0.00    +0.000 C 
ATOM     17  C   UNL     1      -1.130  10.524  23.150  0.00  0.00    +0.000 C 
ENDBRANCH  15  17
ENDBRANCH   7  15
ENDBRANCH   1  14
BRANCH   3  18
ATOM     18  N   UNL     1       2.437   7.889  19.076  0.00  0.00    +0.000 N 
ATOM     19  H   UNL     1       2.963   8.045  19.933  0.00  0.00    +0.000 HD
BRANCH  18  20
ATOM     20  C   UNL     1       3.325   7.536  17.971  0.00  0.00    +0.000 C 
BRANCH  20  21
ATOM     21  C   UNL     1       3.240   6.048  17.722  0.00  0.00    +0.000 A 
ATOM     22  C   UNL     1       2.081   5.352  18.111  0.00  0.00    +0.000 A 
ATOM     23  C   UNL     1       1.971   3.978  17.904  0.00  0.00    +0.000 A 
ATOM     24  C   UNL     1       3.010   3.275  17.299  0.00  0.00    +0.000 A 
ATOM     25  C   UNL     1       4.165   3.952  16.890  0.00  0.00    +0.000 A 
ATOM     26  C   UNL     1       4.282   5.335  17.096  0.00  0.00    +0.000 A 
BRANCH  26  27
ATOM     27  C   UNL     1       5.493   5.981  16.668  0.00  0.00    +0.000 C 
ATOM     28  N   UNL     1       6.467   6.532  16.365  0.00  0.00    +0.000 NA
ENDBRANCH  26  27
ENDBRANCH  20  21
ENDBRANCH  18  20
ENDBRANCH   3  18
BRANCH   6  29
ATOM     29  O   UNL     1      -1.218  12.029  18.101  0.00  0.00    +0.000 OA
BRANCH  29  30
ATOM     30  C   UNL     1      -2.575  11.802  17.947  0.00  0.00    +0.000 A 
ATOM     31  C   UNL     1      -3.366  12.021  19.080  0.00  0.00    +0.000 A 
ATOM     32  C   UNL     1      -4.756  11.869  19.012  0.00  0.00    +0.000 A 
ATOM     33  C   UNL     1      -5.351  11.487  17.814  0.00  0.00    +0.000 A 
ATOM     34  F   UNL     1      -6.682  11.358  17.748  0.00  0.00    +0.000 F 
ATOM     35  C   UNL     1      -4.585  11.254  16.681  0.00  0.00    +0.000 A 
ATOM     36  C   UNL     1      -3.205  11.436  16.746  0.00  0.00    +0.000 A 
ATOM     37  F   UNL     1      -2.502  11.245  15.620  0.00  0.00    +0.000 F 
ENDBRANCH  29  30
ENDBRANCH   6  29
TORSDOF 9
ENDMDL
MODEL 5
REMARK VINA RESULT:      -7.7      3.412      8.095
REMARK  Name = 
REMARK  11 active torsions:
REMARK  status: ('A' for Active; 'I' for Inactive)
REMARK    1  A    between atoms: C_1  and  C_2
REMARK    2  A    between atoms: C_2  and  O_3
REMARK    3  A    between atoms: O_3  and  C_4
REMARK    4  A    between atoms: N_8  and  C_9
REMARK    5  A    between atoms: C_11  and  C_12
REMARK    6  A    between atoms: C_14  and  N_15
REMARK    7  A    between atoms: N_15  and  C_16
REMARK    8  A    between atoms: C_16  and  C_17
REMARK    9  A    between atoms: C_22  and  C_23
REMARK   10  A    between atoms: C_27  and  O_28
REMARK   11  A    between atoms: O_28  and  C_29
REMARK                            x       y       z     vdW  Elec       q    Type
REMARK                         _______ _______ _______ _____ _____    ______ ____
ROOT
ATOM      1  C   UNL     1      -1.377  11.946  18.959  0.00  0.00    +0.000 A 
ATOM      2  C   UNL     1      -2.778  11.969  18.770  0.00  0.00    +0.000 A 
ATOM      3  C   UNL     1      -3.449  10.939  18.087  0.00  0.00    +0.000 A 
ATOM      4  C   UNL     1      -2.668   9.972  17.455  0.00  0.00    +0.000 A 
ATOM      5  C   UNL     1      -1.287   9.939  17.611  0.00  0.00    +0.000 A 
ATOM      6  C   UNL     1      -0.643  10.861  18.438  0.00  0.00    +0.000 A 
ENDROOT
BRANCH   1  14
ATOM      7  C   UNL     1      -0.554  13.136  21.133  0.00  0.00    +0.000 A 
ATOM      8  C   UNL     1      -0.026  14.231  21.705  0.00  0.00    +0.000 A 
ATOM      9  C   UNL     1       0.416  15.384  20.886  0.00  0.00    +0.000 A 
ATOM     10  O   UNL     1       0.860  16.380  21.453  0.00  0.00    +0.000 OA
ATOM     11  N   UNL     1       0.314  15.225  19.509  0.00  0.00    +0.000 N 
ATOM     12  C   UNL     1       0.780  16.293  18.640  0.00  0.00    +0.000 C 
ATOM     13  C   UNL     1      -0.261  14.100  18.935  0.00  0.00    +0.000 A 
ATOM     14  C   UNL     1      -0.739  13.082  19.678  0.00  0.00    +0.000 A 
BRANCH   7  15
ATOM     15  O   UNL     1      -0.933  11.986  21.793  0.00  0.00    +0.000 OA
BRANCH  15  17
ATOM     16  C   UNL     1      -3.187  12.425  22.466  0.00  0.00    +0.000 C 
ATOM     17  C   UNL     1      -1.776  12.129  22.940  0.00  0.00    +0.000 C 
ENDBRANCH  15  17
ENDBRANCH   7  15
ENDBRANCH   1  14
BRANCH   3  18
ATOM     18  N   UNL     1      -4.843  10.978  17.936  0.00  0.00    +0.000 N 
ATOM     19  H   UNL     1      -5.133  10.661  17.014  0.00  0.00    +0.000 HD
BRANCH  18  20
ATOM     20  C   UNL     1      -5.531  12.211  18.311  0.00  0.00    +0.000 C 
BRANCH  20  21
ATOM     21  C   UNL     1      -6.354  11.961  19.553  0.00  0.00    +0.000 A 
ATOM     22  C   UNL     1      -6.997  10.720  19.714  0.00  0.00    +0.000 A 
ATOM     23  C   UNL     1      -7.770  10.459  20.844  0.00  0.00    +0.000 A 
ATOM     24  C   UNL     1      -7.910  11.426  21.837  0.00  0.00    +0.000 A 
ATOM     25  C   UNL     1      -7.265  12.661  21.704  0.00  0.00    +0.000 A 
ATOM     26  C   UNL     1      -6.485  12.930  20.568  0.00  0.00    +0.000 A 
BRANCH  26  27
ATOM     27  C   UNL     1      -5.854  14.218  20.474  0.00  0.00    +0.000 C 
ATOM     28  N   UNL     1      -5.391  15.279  20.397  0.00  0.00    +0.000 NA
ENDBRANCH  26  27
ENDBRANCH  20  21
ENDBRANCH  18  20
ENDBRANCH   3  18
BRANCH   6  29
ATOM     29  O   UNL     1       0.707  10.754  18.712  0.00  0.00    +0.000 OA
BRANCH  29  30
ATOM     30  C   UNL     1       1.238   9.512  19.018  0.00  0.00    +0.000 A 
ATOM     31  C   UNL     1       1.995   8.904  18.010  0.00  0.00    +0.000 A 
ATOM     32  C   UNL     1       2.617   7.671  18.241  0.00  0.00    +0.000 A 
ATOM     33  C   UNL     1       2.472   7.044  19.473  0.00  0.00    +0.000 A 
ATOM     34  F   UNL     1       3.082   5.873  19.696  0.00  0.00    +0.000 F 
ATOM     35  C   UNL     1       1.718   7.623  20.483  0.00  0.00    +0.000 A 
ATOM     36  C   UNL     1       1.126   8.864  20.260  0.00  0.00    +0.000 A 
ATOM     37  F   UNL     1       0.441   9.415  21.273  0.00  0.00    +0.000 F 
ENDBRANCH  29  30
ENDBRANCH   6  29
TORSDOF 9
ENDMDL
MODEL 6
REMARK VINA RESULT:      -7.7      3.030      4.467
REMARK  Name = 
REMARK  11 active torsions:
REMARK  status: ('A' for Active; 'I' for Inactive)
REMARK    1  A    between atoms: C_1  and  C_2
REMARK    2  A    between atoms: C_2  and  O_3
REMARK    3  A    between atoms: O_3  and  C_4
REMARK    4  A    between atoms: N_8  and  C_9
REMARK    5  A    between atoms: C_11  and  C_12
REMARK    6  A    between atoms: C_14  and  N_15
REMARK    7  A    between atoms: N_15  and  C_16
REMARK    8  A    between atoms: C_16  and  C_17
REMARK    9  A    between atoms: C_22  and  C_23
REMARK   10  A    between atoms: C_27  and  O_28
REMARK   11  A    between atoms: O_28  and  C_29
REMARK                            x       y       z     vdW  Elec       q    Type
REMARK                         _______ _______ _______ _____ _____    ______ ____
ROOT
ATOM      1  C   UNL     1       0.178  10.738  20.001  0.00  0.00    +0.000 A 
ATOM      2  C   UNL     1       1.032   9.692  20.422  0.00  0.00    +0.000 A 
ATOM      3  C   UNL     1       1.441   8.673  19.543  0.00  0.00    +0.000 A 
ATOM      4  C   UNL     1       0.843   8.632  18.284  0.00  0.00    +0.000 A 
ATOM      5  C   UNL     1      -0.015   9.639  17.855  0.00  0.00    +0.000 A 
ATOM      6  C   UNL     1      -0.276  10.744  18.668  0.00  0.00    +0.000 A 
ENDROOT
BRANCH   1  14
ATOM      7  C   UNL     1       0.463  13.057  21.168  0.00  0.00    +0.000 A 
ATOM      8  C   UNL     1       0.073  13.904  22.135  0.00  0.00    +0.000 A 
ATOM      9  C   UNL     1      -1.072  13.581  23.020  0.00  0.00    +0.000 A 
ATOM     10  O   UNL     1      -1.371  14.367  23.915  0.00  0.00    +0.000 OA
ATOM     11  N   UNL     1      -1.744  12.398  22.734  0.00  0.00    +0.000 N 
ATOM     12  C   UNL     1      -2.912  12.043  23.524  0.00  0.00    +0.000 C 
ATOM     13  C   UNL     1      -1.311  11.521  21.750  0.00  0.00    +0.000 A 
ATOM     14  C   UNL     1      -0.222  11.770  20.996  0.00  0.00    +0.000 A 
BRANCH   7  15
ATOM     15  O   UNL     1       1.467  13.289  20.251  0.00  0.00    +0.000 OA
BRANCH  15  17
ATOM     16  C   UNL     1       1.379  15.270  18.911  0.00  0.00    +0.000 C 
ATOM     17  C   UNL     1       1.973  14.623  20.149  0.00  0.00    +0.000 C 
ENDBRANCH  15  17
ENDBRANCH   7  15
ENDBRANCH   1  14
BRANCH   3  18
ATOM     18  N   UNL     1       2.308   7.662  19.983  0.00  0.00    +0.000 N 
ATOM     19  H   UNL     1       3.043   8.029  20.582  0.00  0.00    +0.000 HD
BRANCH  18  20
ATOM     20  C   UNL     1       2.852   6.752  18.978  0.00  0.00    +0.000 C 
BRANCH  20  21
ATOM     21  C   UNL     1       2.386   5.347  19.278  0.00  0.00    +0.000 A 
ATOM     22  C   UNL     1       1.494   5.132  20.344  0.00  0.00    +0.000 A 
ATOM     23  C   UNL     1       1.048   3.847  20.654  0.00  0.00    +0.000 A 
ATOM     24  C   UNL     1       1.478   2.757  19.902  0.00  0.00    +0.000 A 
ATOM     25  C   UNL     1       2.353   2.951  18.827  0.00  0.00    +0.000 A 
ATOM     26  C   UNL     1       2.804   4.242  18.510  0.00  0.00    +0.000 A 
BRANCH  26  27
ATOM     27  C   UNL     1       3.711   4.385  17.404  0.00  0.00    +0.000 C 
ATOM     28  N   UNL     1       4.458   4.453  16.519  0.00  0.00    +0.000 NA
ENDBRANCH  26  27
ENDBRANCH  20  21
ENDBRANCH  18  20
ENDBRANCH   3  18
BRANCH   6  29
ATOM     29  O   UNL     1      -1.012  11.816  18.200  0.00  0.00    +0.000 OA
BRANCH  29  30
ATOM     30  C   UNL     1      -2.369  11.658  17.975  0.00  0.00    +0.000 A 
ATOM     31  C   UNL     1      -3.212  12.028  19.029  0.00  0.00    +0.000 A 
ATOM     32  C   UNL     1      -4.603  11.953  18.880  0.00  0.00    +0.000 A 
ATOM     33  C   UNL     1      -5.146  11.499  17.684  0.00  0.00    +0.000 A 
ATOM     34  F   UNL     1      -6.477  11.445  17.539  0.00  0.00    +0.000 F 
ATOM     35  C   UNL     1      -4.329  11.117  16.630  0.00  0.00    +0.000 A 
ATOM     36  C   UNL     1      -2.947  11.221  16.771  0.00  0.00    +0.000 A 
ATOM     37  F   UNL     1      -2.190  10.885  15.717  0.00  0.00    +0.000 F 
ENDBRANCH  29  30
ENDBRANCH   6  29
TORSDOF 9
ENDMDL
MODEL 7
REMARK VINA RESULT:      -7.7      3.236      5.428
REMARK  Name = 
REMARK  11 active torsions:
REMARK  status: ('A' for Active; 'I' for Inactive)
REMARK    1  A    between atoms: C_1  and  C_2
REMARK    2  A    between atoms: C_2  and  O_3
REMARK    3  A    between atoms: O_3  and  C_4
REMARK    4  A    between atoms: N_8  and  C_9
REMARK    5  A    between atoms: C_11  and  C_12
REMARK    6  A    between atoms: C_14  and  N_15
REMARK    7  A    between atoms: N_15  and  C_16
REMARK    8  A    between atoms: C_16  and  C_17
REMARK    9  A    between atoms: C_22  and  C_23
REMARK   10  A    between atoms: C_27  and  O_28
REMARK   11  A    between atoms: O_28  and  C_29
REMARK                            x       y       z     vdW  Elec       q    Type
REMARK                         _______ _______ _______ _____ _____    ______ ____
ROOT
ATOM      1  C   UNL     1       0.030  11.896  21.333  0.00  0.00    +0.000 A 
ATOM      2  C   UNL     1       0.902  10.787  21.224  0.00  0.00    +0.000 A 
ATOM      3  C   UNL     1       0.715   9.623  21.991  0.00  0.00    +0.000 A 
ATOM      4  C   UNL     1      -0.261   9.659  22.986  0.00  0.00    +0.000 A 
ATOM      5  C   UNL     1      -1.117  10.746  23.125  0.00  0.00    +0.000 A 
ATOM      6  C   UNL     1      -1.043  11.825  22.242  0.00  0.00    +0.000 A 
ENDROOT
BRANCH   1  14
ATOM      7  C   UNL     1      -0.473  13.470  19.311  0.00  0.00    +0.000 A 
ATOM      8  C   UNL     1      -0.115  14.538  18.579  0.00  0.00    +0.000 A 
ATOM      9  C   UNL     1       1.039  15.382  18.970  0.00  0.00    +0.000 A 
ATOM     10  O   UNL     1       1.355  16.328  18.251  0.00  0.00    +0.000 OA
ATOM     11  N   UNL     1       1.665  15.038  20.162  0.00  0.00    +0.000 N 
ATOM     12  C   UNL     1       2.771  15.854  20.638  0.00  0.00    +0.000 C 
ATOM     13  C   UNL     1       1.301  13.915  20.891  0.00  0.00    +0.000 A 
ATOM     14  C   UNL     1       0.305  13.098  20.499  0.00  0.00    +0.000 A 
BRANCH   7  15
ATOM     15  O   UNL     1      -1.566  12.663  19.075  0.00  0.00    +0.000 OA
BRANCH  15  17
ATOM     16  C   UNL     1      -1.326  10.436  18.231  0.00  0.00    +0.000 C 
ATOM     17  C   UNL     1      -1.570  11.890  17.872  0.00  0.00    +0.000 C 
ENDBRANCH  15  17
ENDBRANCH   7  15
ENDBRANCH   1  14
BRANCH   3  18
ATOM     18  N   UNL     1       1.581   8.530  21.844  0.00  0.00    +0.000 N 
ATOM     19  H   UNL     1       2.473   8.805  21.441  0.00  0.00    +0.000 HD
BRANCH  18  20
ATOM     20  C   UNL     1       1.056   7.332  21.194  0.00  0.00    +0.000 C 
BRANCH  20  21
ATOM     21  C   UNL     1       1.935   6.982  20.016  0.00  0.00    +0.000 A 
ATOM     22  C   UNL     1       2.185   7.956  19.032  0.00  0.00    +0.000 A 
ATOM     23  C   UNL     1       2.985   7.664  17.928  0.00  0.00    +0.000 A 
ATOM     24  C   UNL     1       3.555   6.402  17.788  0.00  0.00    +0.000 A 
ATOM     25  C   UNL     1       3.331   5.424  18.764  0.00  0.00    +0.000 A 
ATOM     26  C   UNL     1       2.527   5.710  19.878  0.00  0.00    +0.000 A 
BRANCH  26  27
ATOM     27  C   UNL     1       2.319   4.667  20.845  0.00  0.00    +0.000 C 
ATOM     28  N   UNL     1       2.180   3.794  21.597  0.00  0.00    +0.000 NA
ENDBRANCH  26  27
ENDBRANCH  20  21
ENDBRANCH  18  20
ENDBRANCH   3  18
BRANCH   6  29
ATOM     29  O   UNL     1      -1.976  12.843  22.280  0.00  0.00    +0.000 OA
BRANCH  29  30
ATOM     30  C   UNL     1      -2.006  13.693  23.373  0.00  0.00    +0.000 A 
ATOM     31  C   UNL     1      -0.948  14.605  23.469  0.00  0.00    +0.000 A 
ATOM     32  C   UNL     1      -0.915  15.540  24.511  0.00  0.00    +0.000 A 
ATOM     33  C   UNL     1      -1.932  15.554  25.459  0.00  0.00    +0.000 A 
ATOM     34  F   UNL     1      -1.905  16.461  26.444  0.00  0.00    +0.000 F 
ATOM     35  C   UNL     1      -2.983  14.653  25.390  0.00  0.00    +0.000 A 
ATOM     36  C   UNL     1      -3.028  13.743  24.336  0.00  0.00    +0.000 A 
ATOM     37  F   UNL     1      -4.082  12.916  24.275  0.00  0.00    +0.000 F 
ENDBRANCH  29  30
ENDBRANCH   6  29
TORSDOF 9
ENDMDL
MODEL 8
REMARK VINA RESULT:      -7.6      2.933      5.464
REMARK  Name = 
REMARK  11 active torsions:
REMARK  status: ('A' for Active; 'I' for Inactive)
REMARK    1  A    between atoms: C_1  and  C_2
REMARK    2  A    between atoms: C_2  and  O_3
REMARK    3  A    between atoms: O_3  and  C_4
REMARK    4  A    between atoms: N_8  and  C_9
REMARK    5  A    between atoms: C_11  and  C_12
REMARK    6  A    between atoms: C_14  and  N_15
REMARK    7  A    between atoms: N_15  and  C_16
REMARK    8  A    between atoms: C_16  and  C_17
REMARK    9  A    between atoms: C_22  and  C_23
REMARK   10  A    between atoms: C_27  and  O_28
REMARK   11  A    between atoms: O_28  and  C_29
REMARK                            x       y       z     vdW  Elec       q    Type
REMARK                         _______ _______ _______ _____ _____    ______ ____
ROOT
ATOM      1  C   UNL     1       0.314  11.317  21.173  0.00  0.00    +0.000 A 
ATOM      2  C   UNL     1       0.826  10.022  20.926  0.00  0.00    +0.000 A 
ATOM      3  C   UNL     1       0.417   8.909  21.682  0.00  0.00    +0.000 A 
ATOM      4  C   UNL     1      -0.386   9.149  22.797  0.00  0.00    +0.000 A 
ATOM      5  C   UNL     1      -0.886  10.417  23.071  0.00  0.00    +0.000 A 
ATOM      6  C   UNL     1      -0.623  11.486  22.212  0.00  0.00    +0.000 A 
ENDROOT
BRANCH   1  14
ATOM      7  C   UNL     1       0.077  13.009  19.198  0.00  0.00    +0.000 A 
ATOM      8  C   UNL     1       0.628  13.987  18.460  0.00  0.00    +0.000 A 
ATOM      9  C   UNL     1       1.959  14.544  18.801  0.00  0.00    +0.000 A 
ATOM     10  O   UNL     1       2.442  15.412  18.077  0.00  0.00    +0.000 OA
ATOM     11  N   UNL     1       2.549  14.044  19.955  0.00  0.00    +0.000 N 
ATOM     12  C   UNL     1       3.830  14.583  20.382  0.00  0.00    +0.000 C 
ATOM     13  C   UNL     1       1.980  13.013  20.689  0.00  0.00    +0.000 A 
ATOM     14  C   UNL     1       0.808  12.446  20.340  0.00  0.00    +0.000 A 
BRANCH   7  15
ATOM     15  O   UNL     1      -1.178  12.470  19.011  0.00  0.00    +0.000 OA
BRANCH  15  17
ATOM     16  C   UNL     1      -1.533  10.396  17.871  0.00  0.00    +0.000 C 
ATOM     17  C   UNL     1      -1.470  11.905  17.729  0.00  0.00    +0.000 C 
ENDBRANCH  15  17
ENDBRANCH   7  15
ENDBRANCH   1  14
BRANCH   3  18
ATOM     18  N   UNL     1       0.924   7.633  21.398  0.00  0.00    +0.000 N 
ATOM     19  H   UNL     1       1.241   7.155  22.238  0.00  0.00    +0.000 HD
BRANCH  18  20
ATOM     20  C   UNL     1       1.909   7.518  20.325  0.00  0.00    +0.000 C 
BRANCH  20  21
ATOM     21  C   UNL     1       1.978   6.080  19.867  0.00  0.00    +0.000 A 
ATOM     22  C   UNL     1       1.292   5.093  20.598  0.00  0.00    +0.000 A 
ATOM     23  C   UNL     1       1.340   3.755  20.209  0.00  0.00    +0.000 A 
ATOM     24  C   UNL     1       2.066   3.378  19.082  0.00  0.00    +0.000 A 
ATOM     25  C   UNL     1       2.743   4.347  18.332  0.00  0.00    +0.000 A 
ATOM     26  C   UNL     1       2.698   5.696  18.719  0.00  0.00    +0.000 A 
BRANCH  26  27
ATOM     27  C   UNL     1       3.420   6.650  17.921  0.00  0.00    +0.000 C 
ATOM     28  N   UNL     1       4.005   7.450  17.319  0.00  0.00    +0.000 NA
ENDBRANCH  26  27
ENDBRANCH  20  21
ENDBRANCH  18  20
ENDBRANCH   3  18
BRANCH   6  29
ATOM     29  O   UNL     1      -1.227  12.715  22.395  0.00  0.00    +0.000 OA
BRANCH  29  30
ATOM     30  C   UNL     1      -2.573  12.766  22.716  0.00  0.00    +0.000 A 
ATOM     31  C   UNL     1      -2.874  12.934  24.072  0.00  0.00    +0.000 A 
ATOM     32  C   UNL     1      -4.206  13.049  24.490  0.00  0.00    +0.000 A 
ATOM     33  C   UNL     1      -5.232  12.985  23.554  0.00  0.00    +0.000 A 
ATOM     34  F   UNL     1      -6.503  13.112  23.957  0.00  0.00    +0.000 F 
ATOM     35  C   UNL     1      -4.957  12.807  22.207  0.00  0.00    +0.000 A 
ATOM     36  C   UNL     1      -3.630  12.723  21.791  0.00  0.00    +0.000 A 
ATOM     37  F   UNL     1      -3.400  12.597  20.476  0.00  0.00    +0.000 F 
ENDBRANCH  29  30
ENDBRANCH   6  29
TORSDOF 9
ENDMDL
MODEL 9
REMARK VINA RESULT:      -7.6      2.075      3.232
REMARK  Name = 
REMARK  11 active torsions:
REMARK  status: ('A' for Active; 'I' for Inactive)
REMARK    1  A    between atoms: C_1  and  C_2
REMARK    2  A    between atoms: C_2  and  O_3
REMARK    3  A    between atoms: O_3  and  C_4
REMARK    4  A    between atoms: N_8  and  C_9
REMARK    5  A    between atoms: C_11  and  C_12
REMARK    6  A    between atoms: C_14  and  N_15
REMARK    7  A    between atoms: N_15  and  C_16
REMARK    8  A    between atoms: C_16  and  C_17
REMARK    9  A    between atoms: C_22  and  C_23
REMARK   10  A    between atoms: C_27  and  O_28
REMARK   11  A    between atoms: O_28  and  C_29
REMARK                            x       y       z     vdW  Elec       q    Type
REMARK                         _______ _______ _______ _____ _____    ______ ____
ROOT
ATOM      1  C   UNL     1       0.158  10.668  19.786  0.00  0.00    +0.000 A 
ATOM      2  C   UNL     1       0.446   9.453  20.451  0.00  0.00    +0.000 A 
ATOM      3  C   UNL     1       1.404   8.549  19.957  0.00  0.00    +0.000 A 
ATOM      4  C   UNL     1       1.945   8.810  18.698  0.00  0.00    +0.000 A 
ATOM      5  C   UNL     1       1.661   9.989  18.017  0.00  0.00    +0.000 A 
ATOM      6  C   UNL     1       0.848  10.966  18.595  0.00  0.00    +0.000 A 
ENDROOT
BRANCH   1  14
ATOM      7  C   UNL     1      -2.195  11.800  19.754  0.00  0.00    +0.000 A 
ATOM      8  C   UNL     1      -3.048  12.675  20.311  0.00  0.00    +0.000 A 
ATOM      9  C   UNL     1      -2.704  13.388  21.564  0.00  0.00    +0.000 A 
ATOM     10  O   UNL     1      -3.498  14.208  22.019  0.00  0.00    +0.000 OA
ATOM     11  N   UNL     1      -1.492  13.038  22.148  0.00  0.00    +0.000 N 
ATOM     12  C   UNL     1      -1.113  13.655  23.408  0.00  0.00    +0.000 C 
ATOM     13  C   UNL     1      -0.609  12.153  21.544  0.00  0.00    +0.000 A 
ATOM     14  C   UNL     1      -0.881  11.563  20.364  0.00  0.00    +0.000 A 
BRANCH   7  15
ATOM     15  O   UNL     1      -2.442  11.037  18.632  0.00  0.00    +0.000 OA
BRANCH  15  17
ATOM     16  C   UNL     1      -4.660  10.606  17.843  0.00  0.00    +0.000 C 
ATOM     17  C   UNL     1      -3.443  11.504  17.723  0.00  0.00    +0.000 C 
ENDBRANCH  15  17
ENDBRANCH   7  15
ENDBRANCH   1  14
BRANCH   3  18
ATOM     18  N   UNL     1       1.687   7.364  20.651  0.00  0.00    +0.000 N 
ATOM     19  H   UNL     1       1.793   7.526  21.650  0.00  0.00    +0.000 HD
BRANCH  18  20
ATOM     20  C   UNL     1       2.761   6.517  20.138  0.00  0.00    +0.000 C 
BRANCH  20  21
ATOM     21  C   UNL     1       2.179   5.197  19.690  0.00  0.00    +0.000 A 
ATOM     22  C   UNL     1       1.227   4.555  20.503  0.00  0.00    +0.000 A 
ATOM     23  C   UNL     1       0.675   3.331  20.124  0.00  0.00    +0.000 A 
ATOM     24  C   UNL     1       1.057   2.730  18.928  0.00  0.00    +0.000 A 
ATOM     25  C   UNL     1       1.992   3.360  18.098  0.00  0.00    +0.000 A 
ATOM     26  C   UNL     1       2.551   4.592  18.473  0.00  0.00    +0.000 A 
BRANCH  26  27
ATOM     27  C   UNL     1       3.514   5.191  17.591  0.00  0.00    +0.000 C 
ATOM     28  N   UNL     1       4.298   5.713  16.913  0.00  0.00    +0.000 NA
ENDBRANCH  26  27
ENDBRANCH  20  21
ENDBRANCH  18  20
ENDBRANCH   3  18
BRANCH   6  29
ATOM     29  O   UNL     1       0.673  12.196  17.992  0.00  0.00    +0.000 OA
BRANCH  29  30
ATOM     30  C   UNL     1       1.409  13.280  18.440  0.00  0.00    +0.000 A 
ATOM     31  C   UNL     1       2.796  13.183  18.289  0.00  0.00    +0.000 A 
ATOM     32  C   UNL     1       3.624  14.249  18.664  0.00  0.00    +0.000 A 
ATOM     33  C   UNL     1       3.063  15.403  19.200  0.00  0.00    +0.000 A 
ATOM     34  F   UNL     1       3.856  16.426  19.542  0.00  0.00    +0.000 F 
ATOM     35  C   UNL     1       1.691  15.517  19.368  0.00  0.00    +0.000 A 
ATOM     36  C   UNL     1       0.869  14.466  18.966  0.00  0.00    +0.000 A 
ATOM     37  F   UNL     1      -0.455  14.629  19.102  0.00  0.00    +0.000 F 
ENDBRANCH  29  30
ENDBRANCH   6  29
TORSDOF 9
ENDMDL
