MODEL 1
REMARK VINA RESULT:      -8.2      0.000      0.000
REMARK  Name = 
REMARK  5 active torsions:
REMARK  status: ('A' for Active; 'I' for Inactive)
REMARK    1  A    between atoms: C_1  and  C_2
REMARK    2  A    between atoms: C_5  and  C_6
REMARK    3  A    between atoms: C_7  and  C_8
REMARK    4  A    between atoms: C_10  and  N_11
REMARK    5  A    between atoms: N_11  and  C_12
REMARK                            x       y       z     vdW  Elec       q    Type
REMARK                         _______ _______ _______ _____ _____    ______ ____
ROOT
ATOM      1  C   UNL     1       4.808   4.899  17.192  0.00  0.00    +0.000 A 
ATOM      2  C   UNL     1       4.390   5.785  18.164  0.00  0.00    +0.000 A 
ATOM      3  C   UNL     1       3.314   5.408  18.938  0.00  0.00    +0.000 A 
ATOM      4  N   UNL     1       2.699   4.228  18.756  0.00  0.00    +0.000 NA
ATOM      5  C   UNL     1       3.176   3.435  17.792  0.00  0.00    +0.000 A 
ATOM      6  N   UNL     1       4.208   3.712  16.988  0.00  0.00    +0.000 NA
ENDROOT
BRANCH   1  13
ATOM      7  C   UNL     1       5.379   4.059  14.028  0.00  0.00    +0.000 C 
ATOM      8  C   UNL     1       6.201   4.853  14.974  0.00  0.00    +0.000 A 
ATOM      9  N   UNL     1       7.370   5.354  14.564  0.00  0.00    +0.000 NA
ATOM     10  O   UNL     1       7.872   6.067  15.632  0.00  0.00    +0.000 OA
ATOM     11  C   UNL     1       7.009   5.992  16.680  0.00  0.00    +0.000 A 
ATOM     12  C   UNL     1       7.420   6.711  17.903  0.00  0.00    +0.000 C 
ATOM     13  C   UNL     1       5.923   5.216  16.323  0.00  0.00    +0.000 A 
ENDBRANCH   1  13
BRANCH   3  14
ATOM     14  N   UNL     1       2.850   6.323  19.913  0.00  0.00    +0.000 N 
ATOM     15  H   UNL     1       2.527   5.840  20.743  0.00  0.00    +0.000 HD
BRANCH  14  16
ATOM     16  C   UNL     1       2.161   7.526  19.657  0.00  0.00    +0.000 A 
ATOM     17  C   UNL     1       2.177   8.093  18.377  0.00  0.00    +0.000 A 
ATOM     18  C   UNL     1       1.485   9.280  18.118  0.00  0.00    +0.000 A 
ATOM     19  C   UNL     1       0.760   9.889  19.134  0.00  0.00    +0.000 A 
ATOM     20  F   UNL     1       0.100  11.027  18.885  0.00  0.00    +0.000 F 
ATOM     21  C   UNL     1       0.704   9.332  20.402  0.00  0.00    +0.000 A 
ATOM     22  C   UNL     1       1.400   8.150  20.659  0.00  0.00    +0.000 A 
ENDBRANCH  14  16
ENDBRANCH   3  14
TORSDOF 3
ENDMDL
MODEL 2
REMARK VINA RESULT:      -8.2      0.123      1.060
REMARK  Name = 
REMARK  5 active torsions:
REMARK  status: ('A' for Active; 'I' for Inactive)
REMARK    1  A    between atoms: C_1  and  C_2
REMARK    2  A    between atoms: C_5  and  C_6
REMARK    3  A    between atoms: C_7  and  C_8
REMARK    4  A    between atoms: C_10  and  N_11
REMARK    5  A    between atoms: N_11  and  C_12
REMARK                            x       y       z     vdW  Elec       q    Type
REMARK                         _______ _______ _______ _____ _____    ______ ____
ROOT
ATOM      1  C   UNL     1       4.746   4.909  17.076  0.00  0.00    +0.000 A 
ATOM      2  C   UNL     1       4.365   5.788  18.069  0.00  0.00    +0.000 A 
ATOM      3  C   UNL     1       3.264   5.446  18.824  0.00  0.00    +0.000 A 
ATOM      4  N   UNL     1       2.592   4.304  18.605  0.00  0.00    +0.000 NA
ATOM      5  C   UNL     1       3.038   3.513  17.623  0.00  0.00    +0.000 A 
ATOM      6  N   UNL     1       4.089   3.759  16.836  0.00  0.00    +0.000 NA
ENDROOT
BRANCH   1  13
ATOM      7  C   UNL     1       5.372   3.993  13.944  0.00  0.00    +0.000 C 
ATOM      8  C   UNL     1       6.185   4.796  14.891  0.00  0.00    +0.000 A 
ATOM      9  N   UNL     1       7.370   5.272  14.495  0.00  0.00    +0.000 NA
ATOM     10  O   UNL     1       7.859   6.001  15.558  0.00  0.00    +0.000 OA
ATOM     11  C   UNL     1       6.973   5.961  16.589  0.00  0.00    +0.000 A 
ATOM     12  C   UNL     1       7.368   6.701  17.805  0.00  0.00    +0.000 C 
ATOM     13  C   UNL     1       5.884   5.192  16.225  0.00  0.00    +0.000 A 
ENDBRANCH   1  13
BRANCH   3  14
ATOM     14  N   UNL     1       2.838   6.357  19.819  0.00  0.00    +0.000 N 
ATOM     15  H   UNL     1       2.568   5.872  20.667  0.00  0.00    +0.000 HD
BRANCH  14  16
ATOM     16  C   UNL     1       2.116   7.548  19.597  0.00  0.00    +0.000 A 
ATOM     17  C   UNL     1       1.382   8.134  20.637  0.00  0.00    +0.000 A 
ATOM     18  C   UNL     1       0.675   9.321  20.422  0.00  0.00    +0.000 A 
ATOM     19  C   UNL     1       0.717   9.932  19.176  0.00  0.00    +0.000 A 
ATOM     20  F   UNL     1       0.037  11.067  18.973  0.00  0.00    +0.000 F 
ATOM     21  C   UNL     1       1.460   9.387  18.140  0.00  0.00    +0.000 A 
ATOM     22  C   UNL     1       2.161   8.200  18.355  0.00  0.00    +0.000 A 
ENDBRANCH  14  16
ENDBRANCH   3  14
TORSDOF 3
ENDMDL
MODEL 3
REMARK VINA RESULT:      -8.2      3.671      7.012
REMARK  Name = 
REMARK  5 active torsions:
REMARK  status: ('A' for Active; 'I' for Inactive)
REMARK    1  A    between atoms: C_1  and  C_2
REMARK    2  A    between atoms: C_5  and  C_6
REMARK    3  A    between atoms: C_7  and  C_8
REMARK    4  A    between atoms: C_10  and  N_11
REMARK    5  A    between atoms: N_11  and  C_12
REMARK                            x       y       z     vdW  Elec       q    Type
REMARK                         _______ _______ _______ _____ _____    ______ ____
ROOT
ATOM      1  C   UNL     1       5.382   5.174  18.665  0.00  0.00    +0.000 A 
ATOM      2  C   UNL     1       5.626   5.356  17.318  0.00  0.00    +0.000 A 
ATOM      3  C   UNL     1       6.917   5.665  16.949  0.00  0.00    +0.000 A 
ATOM      4  N   UNL     1       7.897   5.781  17.860  0.00  0.00    +0.000 NA
ATOM      5  C   UNL     1       7.567   5.584  19.140  0.00  0.00    +0.000 A 
ATOM      6  N   UNL     1       6.346   5.287  19.597  0.00  0.00    +0.000 NA
ENDROOT
BRANCH   1  13
ATOM      7  C   UNL     1       2.635   7.039  18.773  0.00  0.00    +0.000 C 
ATOM      8  C   UNL     1       2.867   5.644  19.222  0.00  0.00    +0.000 A 
ATOM      9  N   UNL     1       1.857   4.954  19.762  0.00  0.00    +0.000 NA
ATOM     10  O   UNL     1       2.360   3.699  20.035  0.00  0.00    +0.000 OA
ATOM     11  C   UNL     1       3.666   3.637  19.663  0.00  0.00    +0.000 A 
ATOM     12  C   UNL     1       4.341   2.345  19.901  0.00  0.00    +0.000 C 
ATOM     13  C   UNL     1       4.053   4.859  19.146  0.00  0.00    +0.000 A 
ENDBRANCH   1  13
BRANCH   3  14
ATOM     14  N   UNL     1       7.174   5.893  15.577  0.00  0.00    +0.000 N 
ATOM     15  H   UNL     1       7.146   6.882  15.359  0.00  0.00    +0.000 HD
BRANCH  14  16
ATOM     16  C   UNL     1       6.760   5.071  14.508  0.00  0.00    +0.000 A 
ATOM     17  C   UNL     1       7.558   4.943  13.364  0.00  0.00    +0.000 A 
ATOM     18  C   UNL     1       7.156   4.119  12.308  0.00  0.00    +0.000 A 
ATOM     19  C   UNL     1       5.968   3.407  12.405  0.00  0.00    +0.000 A 
ATOM     20  F   UNL     1       5.584   2.620  11.392  0.00  0.00    +0.000 F 
ATOM     21  C   UNL     1       5.176   3.493  13.540  0.00  0.00    +0.000 A 
ATOM     22  C   UNL     1       5.576   4.320  14.589  0.00  0.00    +0.000 A 
ENDBRANCH  14  16
ENDBRANCH   3  14
TORSDOF 3
ENDMDL
MODEL 4
REMARK VINA RESULT:      -8.2      3.703      6.970
REMARK  Name = 
REMARK  5 active torsions:
REMARK  status: ('A' for Active; 'I' for Inactive)
REMARK    1  A    between atoms: C_1  and  C_2
REMARK    2  A    between atoms: C_5  and  C_6
REMARK    3  A    between atoms: C_7  and  C_8
REMARK    4  A    between atoms: C_10  and  N_11
REMARK    5  A    between atoms: N_11  and  C_12
REMARK                            x       y       z     vdW  Elec       q    Type
REMARK                         _______ _______ _______ _____ _____    ______ ____
ROOT
ATOM      1  C   UNL     1       5.370   5.109  18.605  0.00  0.00    +0.000 A 
ATOM      2  C   UNL     1       5.644   5.274  17.262  0.00  0.00    +0.000 A 
ATOM      3  C   UNL     1       6.927   5.645  16.923  0.00  0.00    +0.000 A 
ATOM      4  N   UNL     1       7.871   5.836  17.859  0.00  0.00    +0.000 NA
ATOM      5  C   UNL     1       7.513   5.651  19.133  0.00  0.00    +0.000 A 
ATOM      6  N   UNL     1       6.297   5.296  19.562  0.00  0.00    +0.000 NA
ENDROOT
BRANCH   1  13
ATOM      7  C   UNL     1       4.301   2.313  20.046  0.00  0.00    +0.000 C 
ATOM      8  C   UNL     1       3.558   3.536  19.655  0.00  0.00    +0.000 A 
ATOM      9  N   UNL     1       2.245   3.608  19.893  0.00  0.00    +0.000 NA
ATOM     10  O   UNL     1       1.851   4.859  19.467  0.00  0.00    +0.000 OA
ATOM     11  C   UNL     1       2.923   5.534  18.973  0.00  0.00    +0.000 A 
ATOM     12  C   UNL     1       2.649   6.897  18.472  0.00  0.00    +0.000 C 
ATOM     13  C   UNL     1       4.045   4.732  19.055  0.00  0.00    +0.000 A 
ENDBRANCH   1  13
BRANCH   3  14
ATOM     14  N   UNL     1       7.212   5.855  15.554  0.00  0.00    +0.000 N 
ATOM     15  H   UNL     1       7.234   6.844  15.333  0.00  0.00    +0.000 HD
BRANCH  14  16
ATOM     16  C   UNL     1       6.776   5.049  14.483  0.00  0.00    +0.000 A 
ATOM     17  C   UNL     1       7.577   4.889  13.344  0.00  0.00    +0.000 A 
ATOM     18  C   UNL     1       7.152   4.080  12.286  0.00  0.00    +0.000 A 
ATOM     19  C   UNL     1       5.936   3.415  12.375  0.00  0.00    +0.000 A 
ATOM     20  F   UNL     1       5.530   2.643  11.359  0.00  0.00    +0.000 F 
ATOM     21  C   UNL     1       5.139   3.533  13.503  0.00  0.00    +0.000 A 
ATOM     22  C   UNL     1       5.563   4.344  14.555  0.00  0.00    +0.000 A 
ENDBRANCH  14  16
ENDBRANCH   3  14
TORSDOF 3
ENDMDL
MODEL 5
REMARK VINA RESULT:      -8.1      0.992      1.439
REMARK  Name = 
REMARK  5 active torsions:
REMARK  status: ('A' for Active; 'I' for Inactive)
REMARK    1  A    between atoms: C_1  and  C_2
REMARK    2  A    between atoms: C_5  and  C_6
REMARK    3  A    between atoms: C_7  and  C_8
REMARK    4  A    between atoms: C_10  and  N_11
REMARK    5  A    between atoms: N_11  and  C_12
REMARK                            x       y       z     vdW  Elec       q    Type
REMARK                         _______ _______ _______ _____ _____    ______ ____
ROOT
ATOM      1  C   UNL     1       5.250   4.857  18.202  0.00  0.00    +0.000 A 
ATOM      2  C   UNL     1       4.331   5.708  18.781  0.00  0.00    +0.000 A 
ATOM      3  C   UNL     1       3.511   5.180  19.755  0.00  0.00    +0.000 A 
ATOM      4  N   UNL     1       3.605   3.893  20.127  0.00  0.00    +0.000 NA
ATOM      5  C   UNL     1       4.527   3.146  19.512  0.00  0.00    +0.000 A 
ATOM      6  N   UNL     1       5.363   3.564  18.556  0.00  0.00    +0.000 NA
ENDROOT
BRANCH   1  13
ATOM      7  C   UNL     1       5.228   4.280  14.930  0.00  0.00    +0.000 C 
ATOM      8  C   UNL     1       6.169   5.073  15.759  0.00  0.00    +0.000 A 
ATOM      9  N   UNL     1       7.196   5.694  15.171  0.00  0.00    +0.000 NA
ATOM     10  O   UNL     1       7.854   6.373  16.175  0.00  0.00    +0.000 OA
ATOM     11  C   UNL     1       7.226   6.158  17.362  0.00  0.00    +0.000 A 
ATOM     12  C   UNL     1       7.826   6.824  18.535  0.00  0.00    +0.000 C 
ATOM     13  C   UNL     1       6.144   5.322  17.161  0.00  0.00    +0.000 A 
ENDBRANCH   1  13
BRANCH   3  14
ATOM     14  N   UNL     1       2.537   6.030  20.329  0.00  0.00    +0.000 N 
ATOM     15  H   UNL     1       1.813   5.495  20.795  0.00  0.00    +0.000 HD
BRANCH  14  16
ATOM     16  C   UNL     1       2.076   7.248  19.787  0.00  0.00    +0.000 A 
ATOM     17  C   UNL     1       1.469   8.205  20.610  0.00  0.00    +0.000 A 
ATOM     18  C   UNL     1       1.022   9.417  20.076  0.00  0.00    +0.000 A 
ATOM     19  C   UNL     1       1.200   9.681  18.725  0.00  0.00    +0.000 A 
ATOM     20  F   UNL     1       0.769  10.842  18.215  0.00  0.00    +0.000 F 
ATOM     21  C   UNL     1       1.824   8.763  17.895  0.00  0.00    +0.000 A 
ATOM     22  C   UNL     1       2.265   7.552  18.429  0.00  0.00    +0.000 A 
ENDBRANCH  14  16
ENDBRANCH   3  14
TORSDOF 3
ENDMDL
MODEL 6
REMARK VINA RESULT:      -8.1      3.689      7.032
REMARK  Name = 
REMARK  5 active torsions:
REMARK  status: ('A' for Active; 'I' for Inactive)
REMARK    1  A    between atoms: C_1  and  C_2
REMARK    2  A    between atoms: C_5  and  C_6
REMARK    3  A    between atoms: C_7  and  C_8
REMARK    4  A    between atoms: C_10  and  N_11
REMARK    5  A    between atoms: N_11  and  C_12
REMARK                            x       y       z     vdW  Elec       q    Type
REMARK                         _______ _______ _______ _____ _____    ______ ____
ROOT
ATOM      1  C   UNL     1       5.341   5.090  18.595  0.00  0.00    +0.000 A 
ATOM      2  C   UNL     1       5.681   5.203  17.262  0.00  0.00    +0.000 A 
ATOM      3  C   UNL     1       6.979   5.562  16.972  0.00  0.00    +0.000 A 
ATOM      4  N   UNL     1       7.877   5.790  17.945  0.00  0.00    +0.000 NA
ATOM      5  C   UNL     1       7.456   5.653  19.207  0.00  0.00    +0.000 A 
ATOM      6  N   UNL     1       6.221   5.314  19.588  0.00  0.00    +0.000 NA
ENDROOT
BRANCH   1  13
ATOM      7  C   UNL     1       2.500   6.797  18.370  0.00  0.00    +0.000 C 
ATOM      8  C   UNL     1       2.768   5.448  18.927  0.00  0.00    +0.000 A 
ATOM      9  N   UNL     1       1.756   4.736  19.433  0.00  0.00    +0.000 NA
ATOM     10  O   UNL     1       2.301   3.531  19.825  0.00  0.00    +0.000 OA
ATOM     11  C   UNL     1       3.634   3.521  19.559  0.00  0.00    +0.000 A 
ATOM     12  C   UNL     1       4.355   2.287  19.932  0.00  0.00    +0.000 C 
ATOM     13  C   UNL     1       3.996   4.729  18.993  0.00  0.00    +0.000 A 
ENDBRANCH   1  13
BRANCH   3  14
ATOM     14  N   UNL     1       7.332   5.721  15.611  0.00  0.00    +0.000 N 
ATOM     15  H   UNL     1       7.466   6.698  15.380  0.00  0.00    +0.000 HD
BRANCH  14  16
ATOM     16  C   UNL     1       6.849   4.948  14.535  0.00  0.00    +0.000 A 
ATOM     17  C   UNL     1       5.629   4.269  14.643  0.00  0.00    +0.000 A 
ATOM     18  C   UNL     1       5.142   3.512  13.573  0.00  0.00    +0.000 A 
ATOM     19  C   UNL     1       5.864   3.451  12.388  0.00  0.00    +0.000 A 
ATOM     20  F   UNL     1       5.397   2.724  11.366  0.00  0.00    +0.000 F 
ATOM     21  C   UNL     1       7.059   4.139  12.246  0.00  0.00    +0.000 A 
ATOM     22  C   UNL     1       7.545   4.889  13.317  0.00  0.00    +0.000 A 
ENDBRANCH  14  16
ENDBRANCH   3  14
TORSDOF 3
ENDMDL
MODEL 7
REMARK VINA RESULT:      -8.1      1.608      1.987
REMARK  Name = 
REMARK  5 active torsions:
REMARK  status: ('A' for Active; 'I' for Inactive)
REMARK    1  A    between atoms: C_1  and  C_2
REMARK    2  A    between atoms: C_5  and  C_6
REMARK    3  A    between atoms: C_7  and  C_8
REMARK    4  A    between atoms: C_10  and  N_11
REMARK    5  A    between atoms: N_11  and  C_12
REMARK                            x       y       z     vdW  Elec       q    Type
REMARK                         _______ _______ _______ _____ _____    ______ ____
ROOT
ATOM      1  C   UNL     1       4.394   5.362  17.466  0.00  0.00    +0.000 A 
ATOM      2  C   UNL     1       4.011   6.669  17.685  0.00  0.00    +0.000 A 
ATOM      3  C   UNL     1       2.691   6.891  18.013  0.00  0.00    +0.000 A 
ATOM      4  N   UNL     1       1.815   5.879  18.117  0.00  0.00    +0.000 NA
ATOM      5  C   UNL     1       2.279   4.646  17.890  0.00  0.00    +0.000 A 
ATOM      6  N   UNL     1       3.536   4.330  17.562  0.00  0.00    +0.000 NA
ENDROOT
BRANCH   1  13
ATOM      7  C   UNL     1       5.677   4.394  14.558  0.00  0.00    +0.000 C 
ATOM      8  C   UNL     1       6.330   4.599  15.875  0.00  0.00    +0.000 A 
ATOM      9  N   UNL     1       7.645   4.390  15.993  0.00  0.00    +0.000 NA
ATOM     10  O   UNL     1       7.961   4.700  17.299  0.00  0.00    +0.000 OA
ATOM     11  C   UNL     1       6.840   5.091  17.963  0.00  0.00    +0.000 A 
ATOM     12  C   UNL     1       7.027   5.453  19.383  0.00  0.00    +0.000 C 
ATOM     13  C   UNL     1       5.759   5.035  17.105  0.00  0.00    +0.000 A 
ENDBRANCH   1  13
BRANCH   3  14
ATOM     14  N   UNL     1       2.274   8.230  18.201  0.00  0.00    +0.000 N 
ATOM     15  H   UNL     1       2.987   8.882  17.894  0.00  0.00    +0.000 HD
BRANCH  14  16
ATOM     16  C   UNL     1       1.495   8.713  19.273  0.00  0.00    +0.000 A 
ATOM     17  C   UNL     1       1.608   8.137  20.545  0.00  0.00    +0.000 A 
ATOM     18  C   UNL     1       0.845   8.621  21.612  0.00  0.00    +0.000 A 
ATOM     19  C   UNL     1      -0.015   9.693  21.413  0.00  0.00    +0.000 A 
ATOM     20  F   UNL     1      -0.746  10.153  22.435  0.00  0.00    +0.000 F 
ATOM     21  C   UNL     1      -0.122  10.299  20.170  0.00  0.00    +0.000 A 
ATOM     22  C   UNL     1       0.636   9.811  19.106  0.00  0.00    +0.000 A 
ENDBRANCH  14  16
ENDBRANCH   3  14
TORSDOF 3
ENDMDL
MODEL 8
REMARK VINA RESULT:      -8.0      1.598      1.859
REMARK  Name = 
REMARK  5 active torsions:
REMARK  status: ('A' for Active; 'I' for Inactive)
REMARK    1  A    between atoms: C_1  and  C_2
REMARK    2  A    between atoms: C_5  and  C_6
REMARK    3  A    between atoms: C_7  and  C_8
REMARK    4  A    between atoms: C_10  and  N_11
REMARK    5  A    between atoms: N_11  and  C_12
REMARK                            x       y       z     vdW  Elec       q    Type
REMARK                         _______ _______ _______ _____ _____    ______ ____
ROOT
ATOM      1  C   UNL     1       4.390   5.291  17.481  0.00  0.00    +0.000 A 
ATOM      2  C   UNL     1       3.949   6.589  17.644  0.00  0.00    +0.000 A 
ATOM      3  C   UNL     1       2.624   6.767  17.975  0.00  0.00    +0.000 A 
ATOM      4  N   UNL     1       1.796   5.721  18.136  0.00  0.00    +0.000 NA
ATOM      5  C   UNL     1       2.313   4.502  17.960  0.00  0.00    +0.000 A 
ATOM      6  N   UNL     1       3.580   4.228  17.634  0.00  0.00    +0.000 NA
ENDROOT
BRANCH   1  13
ATOM      7  C   UNL     1       5.705   4.364  14.575  0.00  0.00    +0.000 C 
ATOM      8  C   UNL     1       6.350   4.592  15.891  0.00  0.00    +0.000 A 
ATOM      9  N   UNL     1       7.671   4.427  16.010  0.00  0.00    +0.000 NA
ATOM     10  O   UNL     1       7.977   4.749  17.316  0.00  0.00    +0.000 OA
ATOM     11  C   UNL     1       6.843   5.103  17.979  0.00  0.00    +0.000 A 
ATOM     12  C   UNL     1       7.018   5.472  19.398  0.00  0.00    +0.000 C 
ATOM     13  C   UNL     1       5.764   5.010  17.120  0.00  0.00    +0.000 A 
ENDBRANCH   1  13
BRANCH   3  14
ATOM     14  N   UNL     1       2.148   8.093  18.107  0.00  0.00    +0.000 N 
ATOM     15  H   UNL     1       2.718   8.740  17.574  0.00  0.00    +0.000 HD
BRANCH  14  16
ATOM     16  C   UNL     1       1.589   8.661  19.270  0.00  0.00    +0.000 A 
ATOM     17  C   UNL     1       0.856   9.852  19.193  0.00  0.00    +0.000 A 
ATOM     18  C   UNL     1       0.291  10.412  20.343  0.00  0.00    +0.000 A 
ATOM     19  C   UNL     1       0.442   9.770  21.566  0.00  0.00    +0.000 A 
ATOM     20  F   UNL     1      -0.098  10.309  22.666  0.00  0.00    +0.000 F 
ATOM     21  C   UNL     1       1.137   8.575  21.663  0.00  0.00    +0.000 A 
ATOM     22  C   UNL     1       1.704   8.022  20.515  0.00  0.00    +0.000 A 
ENDBRANCH  14  16
ENDBRANCH   3  14
TORSDOF 3
ENDMDL
MODEL 9
REMARK VINA RESULT:      -8.0      4.692      7.802
REMARK  Name = 
REMARK  5 active torsions:
REMARK  status: ('A' for Active; 'I' for Inactive)
REMARK    1  A    between atoms: C_1  and  C_2
REMARK    2  A    between atoms: C_5  and  C_6
REMARK    3  A    between atoms: C_7  and  C_8
REMARK    4  A    between atoms: C_10  and  N_11
REMARK    5  A    between atoms: N_11  and  C_12
REMARK                            x       y       z     vdW  Elec       q    Type
REMARK                         _______ _______ _______ _____ _____    ______ ____
ROOT
ATOM      1  C   UNL     1       0.276  10.172  20.099  0.00  0.00    +0.000 A 
ATOM      2  C   UNL     1       1.110   9.174  19.638  0.00  0.00    +0.000 A 
ATOM      3  C   UNL     1       1.524   8.228  20.550  0.00  0.00    +0.000 A 
ATOM      4  N   UNL     1       1.130   8.273  21.833  0.00  0.00    +0.000 NA
ATOM      5  C   UNL     1       0.319   9.275  22.187  0.00  0.00    +0.000 A 
ATOM      6  N   UNL     1      -0.132  10.241  21.380  0.00  0.00    +0.000 NA
ENDROOT
BRANCH   1  13
ATOM      7  C   UNL     1       1.404  13.259  19.614  0.00  0.00    +0.000 C 
ATOM      8  C   UNL     1       0.253  12.551  19.003  0.00  0.00    +0.000 A 
ATOM      9  N   UNL     1      -0.498  13.183  18.095  0.00  0.00    +0.000 NA
ATOM     10  O   UNL     1      -1.445  12.269  17.685  0.00  0.00    +0.000 OA
ATOM     11  C   UNL     1      -1.266  11.094  18.345  0.00  0.00    +0.000 A 
ATOM     12  C   UNL     1      -2.217  10.016  18.007  0.00  0.00    +0.000 C 
ATOM     13  C   UNL     1      -0.198  11.216  19.214  0.00  0.00    +0.000 A 
ENDBRANCH   1  13
BRANCH   3  14
ATOM     14  N   UNL     1       2.411   7.222  20.101  0.00  0.00    +0.000 N 
ATOM     15  H   UNL     1       3.177   7.620  19.571  0.00  0.00    +0.000 HD
BRANCH  14  16
ATOM     16  C   UNL     1       2.049   5.926  19.679  0.00  0.00    +0.000 A 
ATOM     17  C   UNL     1       1.499   5.013  20.589  0.00  0.00    +0.000 A 
ATOM     18  C   UNL     1       1.128   3.732  20.170  0.00  0.00    +0.000 A 
ATOM     19  C   UNL     1       1.288   3.370  18.839  0.00  0.00    +0.000 A 
ATOM     20  F   UNL     1       0.934   2.141  18.441  0.00  0.00    +0.000 F 
ATOM     21  C   UNL     1       1.801   4.265  17.913  0.00  0.00    +0.000 A 
ATOM     22  C   UNL     1       2.175   5.541  18.334  0.00  0.00    +0.000 A 
ENDBRANCH  14  16
ENDBRANCH   3  14
TORSDOF 3
ENDMDL
