MODEL 1
REMARK VINA RESULT:      -6.7      0.000      0.000
REMARK  Name = 
REMARK  4 active torsions:
REMARK  status: ('A' for Active; 'I' for Inactive)
REMARK    1  A    between atoms: N_4  and  C_5
REMARK    2  A    between atoms: C_11  and  O_12
REMARK    3  A    between atoms: O_12  and  C_13
REMARK    4  A    between atoms: C_13  and  C_14
REMARK                            x       y       z     vdW  Elec       q    Type
REMARK                         _______ _______ _______ _____ _____    ______ ____
ROOT
ATOM      1  C   UNL     1       5.136   3.889  17.151  0.00  0.00    +0.000 A 
ATOM      2  C   UNL     1       3.766   3.654  17.287  0.00  0.00    +0.000 A 
ATOM      3  C   UNL     1       3.123   3.980  18.476  0.00  0.00    +0.000 A 
ATOM      4 BR   UNL     1       1.279   3.650  18.686  0.00  0.00    +0.000 Br
ATOM      5  C   UNL     1       3.864   4.535  19.503  0.00  0.00    +0.000 A 
ATOM      6  N   UNL     1       5.196   4.758  19.428  0.00  0.00    +0.000 NA
ATOM      7  C   UNL     1       5.801   4.422  18.266  0.00  0.00    +0.000 A 
ENDROOT
BRANCH   1  11
ATOM      8  N   UNL     1       6.603   3.746  13.829  0.00  0.00    +0.000 N 
ATOM      9  C   UNL     1       6.023   4.379  14.886  0.00  0.00    +0.000 C 
ATOM     10  O   UNL     1       5.694   5.550  14.764  0.00  0.00    +0.000 OA
ATOM     11  N   UNL     1       5.853   3.566  15.973  0.00  0.00    +0.000 N 
ATOM     12  H   UNL     1       6.810   4.361  13.048  0.00  0.00    +0.000 HD
ATOM     13  H   UNL     1       7.238   2.978  13.968  0.00  0.00    +0.000 HD
ATOM     14  H   UNL     1       6.349   2.684  15.988  0.00  0.00    +0.000 HD
ENDBRANCH   1  11
BRANCH   7  15
ATOM     15  O   UNL     1       7.170   4.625  18.177  0.00  0.00    +0.000 OA
BRANCH  15  16
ATOM     16  C   UNL     1       7.568   5.905  18.715  0.00  0.00    +0.000 C 
BRANCH  16  17
ATOM     17  C   UNL     1       7.455   7.055  17.715  0.00  0.00    +0.000 C 
ATOM     18  F   UNL     1       8.218   8.120  18.055  0.00  0.00    +0.000 F 
ATOM     19  F   UNL     1       7.878   6.652  16.490  0.00  0.00    +0.000 F 
ATOM     20  F   UNL     1       6.182   7.485  17.572  0.00  0.00    +0.000 F 
ENDBRANCH  16  17
ENDBRANCH  15  16
ENDBRANCH   7  15
TORSDOF 4
ENDMDL
MODEL 2
REMARK VINA RESULT:      -6.4      4.149      5.225
REMARK  Name = 
REMARK  4 active torsions:
REMARK  status: ('A' for Active; 'I' for Inactive)
REMARK    1  A    between atoms: N_4  and  C_5
REMARK    2  A    between atoms: C_11  and  O_12
REMARK    3  A    between atoms: O_12  and  C_13
REMARK    4  A    between atoms: C_13  and  C_14
REMARK                            x       y       z     vdW  Elec       q    Type
REMARK                         _______ _______ _______ _____ _____    ______ ____
ROOT
ATOM      1  C   UNL     1       5.368   4.397  18.033  0.00  0.00    +0.000 A 
ATOM      2  C   UNL     1       5.945   4.112  16.793  0.00  0.00    +0.000 A 
ATOM      3  C   UNL     1       5.842   5.030  15.755  0.00  0.00    +0.000 A 
ATOM      4 BR   UNL     1       6.596   4.654  14.069  0.00  0.00    +0.000 Br
ATOM      5  C   UNL     1       5.163   6.215  15.978  0.00  0.00    +0.000 A 
ATOM      6  N   UNL     1       4.566   6.524  17.151  0.00  0.00    +0.000 NA
ATOM      7  C   UNL     1       4.670   5.610  18.143  0.00  0.00    +0.000 A 
ENDROOT
BRANCH   1  11
ATOM      8  N   UNL     1       4.701   1.981  20.664  0.00  0.00    +0.000 N 
ATOM      9  C   UNL     1       4.464   2.586  19.468  0.00  0.00    +0.000 C 
ATOM     10  O   UNL     1       3.450   2.295  18.850  0.00  0.00    +0.000 OA
ATOM     11  N   UNL     1       5.424   3.499  19.126  0.00  0.00    +0.000 N 
ATOM     12  H   UNL     1       4.041   1.243  20.887  0.00  0.00    +0.000 HD
ATOM     13  H   UNL     1       5.639   1.855  21.007  0.00  0.00    +0.000 HD
ATOM     14  H   UNL     1       6.295   3.487  19.641  0.00  0.00    +0.000 HD
ENDBRANCH   1  11
BRANCH   7  15
ATOM     15  O   UNL     1       4.049   5.901  19.348  0.00  0.00    +0.000 OA
BRANCH  15  16
ATOM     16  C   UNL     1       2.614   5.991  19.214  0.00  0.00    +0.000 C 
BRANCH  16  17
ATOM     17  C   UNL     1       1.847   5.247  20.307  0.00  0.00    +0.000 C 
ATOM     18  F   UNL     1       2.662   4.694  21.234  0.00  0.00    +0.000 F 
ATOM     19  F   UNL     1       1.031   6.105  20.972  0.00  0.00    +0.000 F 
ATOM     20  F   UNL     1       1.063   4.267  19.806  0.00  0.00    +0.000 F 
ENDBRANCH  16  17
ENDBRANCH  15  16
ENDBRANCH   7  15
TORSDOF 4
ENDMDL
MODEL 3
REMARK VINA RESULT:      -6.4      4.181      5.032
REMARK  Name = 
REMARK  4 active torsions:
REMARK  status: ('A' for Active; 'I' for Inactive)
REMARK    1  A    between atoms: N_4  and  C_5
REMARK    2  A    between atoms: C_11  and  O_12
REMARK    3  A    between atoms: O_12  and  C_13
REMARK    4  A    between atoms: C_13  and  C_14
REMARK                            x       y       z     vdW  Elec       q    Type
REMARK                         _______ _______ _______ _____ _____    ______ ____
ROOT
ATOM      1  C   UNL     1       4.751   3.805  17.628  0.00  0.00    +0.000 A 
ATOM      2  C   UNL     1       5.361   3.765  16.372  0.00  0.00    +0.000 A 
ATOM      3  C   UNL     1       6.098   4.857  15.927  0.00  0.00    +0.000 A 
ATOM      4 BR   UNL     1       6.910   4.831  14.226  0.00  0.00    +0.000 Br
ATOM      5  C   UNL     1       6.209   5.965  16.747  0.00  0.00    +0.000 A 
ATOM      6  N   UNL     1       5.617   6.060  17.959  0.00  0.00    +0.000 NA
ATOM      7  C   UNL     1       4.896   4.990  18.366  0.00  0.00    +0.000 A 
ENDROOT
BRANCH   1  11
ATOM      8  N   UNL     1       2.119   1.515  18.644  0.00  0.00    +0.000 N 
ATOM      9  C   UNL     1       2.648   2.514  17.886  0.00  0.00    +0.000 C 
ATOM     10  O   UNL     1       1.919   3.116  17.111  0.00  0.00    +0.000 OA
ATOM     11  N   UNL     1       3.975   2.734  18.135  0.00  0.00    +0.000 N 
ATOM     12  H   UNL     1       1.158   1.287  18.408  0.00  0.00    +0.000 HD
ATOM     13  H   UNL     1       2.688   0.750  18.967  0.00  0.00    +0.000 HD
ATOM     14  H   UNL     1       4.483   2.032  18.658  0.00  0.00    +0.000 HD
ENDBRANCH   1  11
BRANCH   7  15
ATOM     15  O   UNL     1       4.265   5.076  19.598  0.00  0.00    +0.000 OA
BRANCH  15  16
ATOM     16  C   UNL     1       3.079   5.899  19.548  0.00  0.00    +0.000 C 
BRANCH  16  17
ATOM     17  C   UNL     1       1.962   5.423  20.476  0.00  0.00    +0.000 C 
ATOM     18  F   UNL     1       1.213   6.442  20.958  0.00  0.00    +0.000 F 
ATOM     19  F   UNL     1       1.113   4.605  19.803  0.00  0.00    +0.000 F 
ATOM     20  F   UNL     1       2.435   4.722  21.529  0.00  0.00    +0.000 F 
ENDBRANCH  16  17
ENDBRANCH  15  16
ENDBRANCH   7  15
TORSDOF 4
ENDMDL
MODEL 4
REMARK VINA RESULT:      -6.4      3.716      4.390
REMARK  Name = 
REMARK  4 active torsions:
REMARK  status: ('A' for Active; 'I' for Inactive)
REMARK    1  A    between atoms: N_4  and  C_5
REMARK    2  A    between atoms: C_11  and  O_12
REMARK    3  A    between atoms: O_12  and  C_13
REMARK    4  A    between atoms: C_13  and  C_14
REMARK                            x       y       z     vdW  Elec       q    Type
REMARK                         _______ _______ _______ _____ _____    ______ ____
ROOT
ATOM      1  C   UNL     1       4.615   5.719  17.605  0.00  0.00    +0.000 A 
ATOM      2  C   UNL     1       3.904   6.898  17.373  0.00  0.00    +0.000 A 
ATOM      3  C   UNL     1       2.930   7.309  18.276  0.00  0.00    +0.000 A 
ATOM      4 BR   UNL     1       1.945   8.886  17.968  0.00  0.00    +0.000 Br
ATOM      5  C   UNL     1       2.688   6.530  19.394  0.00  0.00    +0.000 A 
ATOM      6  N   UNL     1       3.332   5.369  19.649  0.00  0.00    +0.000 NA
ATOM      7  C   UNL     1       4.266   4.984  18.750  0.00  0.00    +0.000 A 
ENDROOT
BRANCH   1  11
ATOM      8  N   UNL     1       7.456   5.264  15.386  0.00  0.00    +0.000 N 
ATOM      9  C   UNL     1       6.776   5.871  16.397  0.00  0.00    +0.000 C 
ATOM     10  O   UNL     1       7.234   6.895  16.884  0.00  0.00    +0.000 OA
ATOM     11  N   UNL     1       5.607   5.237  16.718  0.00  0.00    +0.000 N 
ATOM     12  H   UNL     1       8.364   5.677  15.197  0.00  0.00    +0.000 HD
ATOM     13  H   UNL     1       7.380   4.273  15.230  0.00  0.00    +0.000 HD
ATOM     14  H   UNL     1       5.463   4.301  16.363  0.00  0.00    +0.000 HD
ENDBRANCH   1  11
BRANCH   7  15
ATOM     15  O   UNL     1       4.924   3.787  18.985  0.00  0.00    +0.000 OA
BRANCH  15  16
ATOM     16  C   UNL     1       4.072   2.812  19.625  0.00  0.00    +0.000 C 
BRANCH  16  17
ATOM     17  C   UNL     1       3.339   1.896  18.645  0.00  0.00    +0.000 C 
ATOM     18  F   UNL     1       3.271   2.414  17.397  0.00  0.00    +0.000 F 
ATOM     19  F   UNL     1       3.992   0.711  18.537  0.00  0.00    +0.000 F 
ATOM     20  F   UNL     1       2.080   1.618  19.049  0.00  0.00    +0.000 F 
ENDBRANCH  16  17
ENDBRANCH  15  16
ENDBRANCH   7  15
TORSDOF 4
ENDMDL
MODEL 5
REMARK VINA RESULT:      -6.4      3.972      5.359
REMARK  Name = 
REMARK  4 active torsions:
REMARK  status: ('A' for Active; 'I' for Inactive)
REMARK    1  A    between atoms: N_4  and  C_5
REMARK    2  A    between atoms: C_11  and  O_12
REMARK    3  A    between atoms: O_12  and  C_13
REMARK    4  A    between atoms: C_13  and  C_14
REMARK                            x       y       z     vdW  Elec       q    Type
REMARK                         _______ _______ _______ _____ _____    ______ ____
ROOT
ATOM      1  C   UNL     1       6.663   4.538  16.981  0.00  0.00    +0.000 A 
ATOM      2  C   UNL     1       7.427   4.820  15.847  0.00  0.00    +0.000 A 
ATOM      3  C   UNL     1       6.839   4.779  14.588  0.00  0.00    +0.000 A 
ATOM      4 BR   UNL     1       7.860   5.136  13.044  0.00  0.00    +0.000 Br
ATOM      5  C   UNL     1       5.497   4.456  14.490  0.00  0.00    +0.000 A 
ATOM      6  N   UNL     1       4.722   4.150  15.556  0.00  0.00    +0.000 NA
ATOM      7  C   UNL     1       5.321   4.186  16.768  0.00  0.00    +0.000 A 
ENDROOT
BRANCH   1  11
ATOM      8  N   UNL     1       8.362   5.303  20.100  0.00  0.00    +0.000 N 
ATOM      9  C   UNL     1       7.765   5.625  18.920  0.00  0.00    +0.000 C 
ATOM     10  O   UNL     1       7.809   6.784  18.533  0.00  0.00    +0.000 OA
ATOM     11  N   UNL     1       7.204   4.548  18.289  0.00  0.00    +0.000 N 
ATOM     12  H   UNL     1       8.708   6.107  20.616  0.00  0.00    +0.000 HD
ATOM     13  H   UNL     1       8.036   4.529  20.654  0.00  0.00    +0.000 HD
ATOM     14  H   UNL     1       7.080   3.697  18.823  0.00  0.00    +0.000 HD
ENDBRANCH   1  11
BRANCH   7  15
ATOM     15  O   UNL     1       4.547   3.858  17.871  0.00  0.00    +0.000 OA
BRANCH  15  16
ATOM     16  C   UNL     1       3.363   4.678  17.972  0.00  0.00    +0.000 C 
BRANCH  16  17
ATOM     17  C   UNL     1       2.058   3.886  17.909  0.00  0.00    +0.000 C 
ATOM     18  F   UNL     1       1.564   3.594  19.134  0.00  0.00    +0.000 F 
ATOM     19  F   UNL     1       1.104   4.608  17.269  0.00  0.00    +0.000 F 
ATOM     20  F   UNL     1       2.197   2.725  17.230  0.00  0.00    +0.000 F 
ENDBRANCH  16  17
ENDBRANCH  15  16
ENDBRANCH   7  15
TORSDOF 4
ENDMDL
MODEL 6
REMARK VINA RESULT:      -6.4      3.616      4.347
REMARK  Name = 
REMARK  4 active torsions:
REMARK  status: ('A' for Active; 'I' for Inactive)
REMARK    1  A    between atoms: N_4  and  C_5
REMARK    2  A    between atoms: C_11  and  O_12
REMARK    3  A    between atoms: O_12  and  C_13
REMARK    4  A    between atoms: C_13  and  C_14
REMARK                            x       y       z     vdW  Elec       q    Type
REMARK                         _______ _______ _______ _____ _____    ______ ____
ROOT
ATOM      1  C   UNL     1       4.624   5.778  17.747  0.00  0.00    +0.000 A 
ATOM      2  C   UNL     1       3.869   6.917  17.455  0.00  0.00    +0.000 A 
ATOM      3  C   UNL     1       2.865   7.322  18.326  0.00  0.00    +0.000 A 
ATOM      4 BR   UNL     1       1.821   8.844  17.938  0.00  0.00    +0.000 Br
ATOM      5  C   UNL     1       2.636   6.580  19.471  0.00  0.00    +0.000 A 
ATOM      6  N   UNL     1       3.322   5.457  19.784  0.00  0.00    +0.000 NA
ATOM      7  C   UNL     1       4.287   5.077  18.915  0.00  0.00    +0.000 A 
ENDROOT
BRANCH   1  11
ATOM      8  N   UNL     1       7.485   5.364  15.545  0.00  0.00    +0.000 N 
ATOM      9  C   UNL     1       6.760   6.002  16.504  0.00  0.00    +0.000 C 
ATOM     10  O   UNL     1       7.129   7.102  16.889  0.00  0.00    +0.000 OA
ATOM     11  N   UNL     1       5.651   5.303  16.896  0.00  0.00    +0.000 N 
ATOM     12  H   UNL     1       8.353   5.834  15.308  0.00  0.00    +0.000 HD
ATOM     13  H   UNL     1       7.494   4.360  15.482  0.00  0.00    +0.000 HD
ATOM     14  H   UNL     1       5.586   4.329  16.630  0.00  0.00    +0.000 HD
ENDBRANCH   1  11
BRANCH   7  15
ATOM     15  O   UNL     1       4.989   3.918  19.209  0.00  0.00    +0.000 OA
BRANCH  15  16
ATOM     16  C   UNL     1       4.117   2.834  19.598  0.00  0.00    +0.000 C 
BRANCH  16  17
ATOM     17  C   UNL     1       3.530   2.063  18.416  0.00  0.00    +0.000 C 
ATOM     18  F   UNL     1       3.725   0.727  18.515  0.00  0.00    +0.000 F 
ATOM     19  F   UNL     1       2.188   2.254  18.353  0.00  0.00    +0.000 F 
ATOM     20  F   UNL     1       4.043   2.470  17.234  0.00  0.00    +0.000 F 
ENDBRANCH  16  17
ENDBRANCH  15  16
ENDBRANCH   7  15
TORSDOF 4
ENDMDL
MODEL 7
REMARK VINA RESULT:      -6.4      1.215      1.248
REMARK  Name = 
REMARK  4 active torsions:
REMARK  status: ('A' for Active; 'I' for Inactive)
REMARK    1  A    between atoms: N_4  and  C_5
REMARK    2  A    between atoms: C_11  and  O_12
REMARK    3  A    between atoms: O_12  and  C_13
REMARK    4  A    between atoms: C_13  and  C_14
REMARK                            x       y       z     vdW  Elec       q    Type
REMARK                         _______ _______ _______ _____ _____    ______ ____
ROOT
ATOM      1  C   UNL     1       5.782   4.835  16.670  0.00  0.00    +0.000 A 
ATOM      2  C   UNL     1       4.488   4.311  16.635  0.00  0.00    +0.000 A 
ATOM      3  C   UNL     1       3.930   3.769  17.788  0.00  0.00    +0.000 A 
ATOM      4 BR   UNL     1       2.193   3.038  17.756  0.00  0.00    +0.000 Br
ATOM      5  C   UNL     1       4.679   3.762  18.951  0.00  0.00    +0.000 A 
ATOM      6  N   UNL     1       5.945   4.233  19.028  0.00  0.00    +0.000 NA
ATOM      7  C   UNL     1       6.470   4.745  17.891  0.00  0.00    +0.000 A 
ENDROOT
BRANCH   1  11
ATOM      8  N   UNL     1       7.481   5.451  13.518  0.00  0.00    +0.000 N 
ATOM      9  C   UNL     1       6.719   4.719  14.375  0.00  0.00    +0.000 C 
ATOM     10  O   UNL     1       6.416   3.575  14.066  0.00  0.00    +0.000 OA
ATOM     11  N   UNL     1       6.413   5.387  15.529  0.00  0.00    +0.000 N 
ATOM     12  H   UNL     1       7.642   4.996  12.624  0.00  0.00    +0.000 HD
ATOM     13  H   UNL     1       7.425   6.455  13.499  0.00  0.00    +0.000 HD
ATOM     14  H   UNL     1       6.570   6.387  15.554  0.00  0.00    +0.000 HD
ENDBRANCH   1  11
BRANCH   7  15
ATOM     15  O   UNL     1       7.772   5.216  17.945  0.00  0.00    +0.000 OA
BRANCH  15  16
ATOM     16  C   UNL     1       7.884   6.424  18.729  0.00  0.00    +0.000 C 
BRANCH  16  17
ATOM     17  C   UNL     1       7.756   7.705  17.906  0.00  0.00    +0.000 C 
ATOM     18  F   UNL     1       8.427   8.746  18.451  0.00  0.00    +0.000 F 
ATOM     19  F   UNL     1       8.276   7.518  16.666  0.00  0.00    +0.000 F 
ATOM     20  F   UNL     1       6.469   8.081  17.742  0.00  0.00    +0.000 F 
ENDBRANCH  16  17
ENDBRANCH  15  16
ENDBRANCH   7  15
TORSDOF 4
ENDMDL
MODEL 8
REMARK VINA RESULT:      -6.3      3.991      5.464
REMARK  Name = 
REMARK  4 active torsions:
REMARK  status: ('A' for Active; 'I' for Inactive)
REMARK    1  A    between atoms: N_4  and  C_5
REMARK    2  A    between atoms: C_11  and  O_12
REMARK    3  A    between atoms: O_12  and  C_13
REMARK    4  A    between atoms: C_13  and  C_14
REMARK                            x       y       z     vdW  Elec       q    Type
REMARK                         _______ _______ _______ _____ _____    ______ ____
ROOT
ATOM      1  C   UNL     1       6.649   4.534  17.263  0.00  0.00    +0.000 A 
ATOM      2  C   UNL     1       7.359   4.722  16.075  0.00  0.00    +0.000 A 
ATOM      3  C   UNL     1       6.690   4.689  14.857  0.00  0.00    +0.000 A 
ATOM      4 BR   UNL     1       7.635   4.919  13.242  0.00  0.00    +0.000 Br
ATOM      5  C   UNL     1       5.325   4.466  14.853  0.00  0.00    +0.000 A 
ATOM      6  N   UNL     1       4.598   4.253  15.973  0.00  0.00    +0.000 NA
ATOM      7  C   UNL     1       5.273   4.280  17.145  0.00  0.00    +0.000 A 
ENDROOT
BRANCH   1  11
ATOM      8  N   UNL     1       8.560   5.283  20.262  0.00  0.00    +0.000 N 
ATOM      9  C   UNL     1       7.899   5.609  19.117  0.00  0.00    +0.000 C 
ATOM     10  O   UNL     1       7.949   6.763  18.716  0.00  0.00    +0.000 OA
ATOM     11  N   UNL     1       7.271   4.542  18.535  0.00  0.00    +0.000 N 
ATOM     12  H   UNL     1       8.958   6.081  20.746  0.00  0.00    +0.000 HD
ATOM     13  H   UNL     1       8.249   4.523  20.844  0.00  0.00    +0.000 HD
ATOM     14  H   UNL     1       7.159   3.700  19.085  0.00  0.00    +0.000 HD
ENDBRANCH   1  11
BRANCH   7  15
ATOM     15  O   UNL     1       4.549   4.045  18.304  0.00  0.00    +0.000 OA
BRANCH  15  16
ATOM     16  C   UNL     1       3.361   3.263  18.057  0.00  0.00    +0.000 C 
BRANCH  16  17
ATOM     17  C   UNL     1       3.321   1.943  18.827  0.00  0.00    +0.000 C 
ATOM     18  F   UNL     1       3.980   2.006  20.006  0.00  0.00    +0.000 F 
ATOM     19  F   UNL     1       2.037   1.612  19.118  0.00  0.00    +0.000 F 
ATOM     20  F   UNL     1       3.841   0.920  18.115  0.00  0.00    +0.000 F 
ENDBRANCH  16  17
ENDBRANCH  15  16
ENDBRANCH   7  15
TORSDOF 4
ENDMDL
MODEL 9
REMARK VINA RESULT:      -6.3      1.191      1.468
REMARK  Name = 
REMARK  4 active torsions:
REMARK  status: ('A' for Active; 'I' for Inactive)
REMARK    1  A    between atoms: N_4  and  C_5
REMARK    2  A    between atoms: C_11  and  O_12
REMARK    3  A    between atoms: O_12  and  C_13
REMARK    4  A    between atoms: C_13  and  C_14
REMARK                            x       y       z     vdW  Elec       q    Type
REMARK                         _______ _______ _______ _____ _____    ______ ____
ROOT
ATOM      1  C   UNL     1       4.462   4.363  17.479  0.00  0.00    +0.000 A 
ATOM      2  C   UNL     1       3.141   3.922  17.581  0.00  0.00    +0.000 A 
ATOM      3  C   UNL     1       2.738   3.198  18.697  0.00  0.00    +0.000 A 
ATOM      4 BR   UNL     1       0.964   2.575  18.841  0.00  0.00    +0.000 Br
ATOM      5  C   UNL     1       3.665   2.929  19.688  0.00  0.00    +0.000 A 
ATOM      6  N   UNL     1       4.960   3.313  19.623  0.00  0.00    +0.000 NA
ATOM      7  C   UNL     1       5.331   4.006  18.523  0.00  0.00    +0.000 A 
ENDROOT
BRANCH   1  11
ATOM      8  N   UNL     1       6.169   5.556  14.502  0.00  0.00    +0.000 N 
ATOM      9  C   UNL     1       5.706   4.593  15.345  0.00  0.00    +0.000 C 
ATOM     10  O   UNL     1       6.024   3.430  15.144  0.00  0.00    +0.000 OA
ATOM     11  N   UNL     1       4.941   5.092  16.364  0.00  0.00    +0.000 N 
ATOM     12  H   UNL     1       6.666   5.189  13.696  0.00  0.00    +0.000 HD
ATOM     13  H   UNL     1       5.656   6.409  14.354  0.00  0.00    +0.000 HD
ATOM     14  H   UNL     1       4.609   6.045  16.285  0.00  0.00    +0.000 HD
ENDBRANCH   1  11
BRANCH   7  15
ATOM     15  O   UNL     1       6.660   4.392  18.429  0.00  0.00    +0.000 OA
BRANCH  15  16
ATOM     16  C   UNL     1       6.906   5.664  19.068  0.00  0.00    +0.000 C 
BRANCH  16  17
ATOM     17  C   UNL     1       7.479   6.724  18.129  0.00  0.00    +0.000 C 
ATOM     18  F   UNL     1       6.563   7.653  17.769  0.00  0.00    +0.000 F 
ATOM     19  F   UNL     1       8.489   7.393  18.740  0.00  0.00    +0.000 F 
ATOM     20  F   UNL     1       7.989   6.185  17.000  0.00  0.00    +0.000 F 
ENDBRANCH  16  17
ENDBRANCH  15  16
ENDBRANCH   7  15
TORSDOF 4
ENDMDL
