MODEL 1
REMARK VINA RESULT:      -8.4      0.000      0.000
REMARK  Name = 
REMARK  10 active torsions:
REMARK  status: ('A' for Active; 'I' for Inactive)
REMARK    1  A    between atoms: C_2  and  O_3
REMARK    2  A    between atoms: C_2  and  C_4
REMARK    3  A    between atoms: C_4  and  N_5
REMARK    4  A    between atoms: N_5  and  S_6
REMARK    5  A    between atoms: S_6  and  C_9
REMARK    6  A    between atoms: C_18  and  S_19
REMARK    7  A    between atoms: S_19  and  N_22
REMARK    8  A    between atoms: N_22  and  C_23
REMARK    9  A    between atoms: C_23  and  C_24
REMARK   10  A    between atoms: C_24  and  O_26
REMARK                            x       y       z     vdW  Elec       q    Type
REMARK                         _______ _______ _______ _____ _____    ______ ____
ROOT
ATOM      1  C   UNL     1       3.475   5.098  18.620  0.00  0.00    +0.000 A 
ATOM      2  C   UNL     1       2.974   5.036  19.935  0.00  0.00    +0.000 A 
ATOM      3  C   UNL     1       2.258   6.116  20.468  0.00  0.00    +0.000 A 
ATOM      4  C   UNL     1       2.059   7.239  19.677  0.00  0.00    +0.000 A 
ATOM      5  C   UNL     1       2.561   7.288  18.358  0.00  0.00    +0.000 A 
ATOM      6  C   UNL     1       3.280   6.231  17.817  0.00  0.00    +0.000 A 
ATOM      7  C   UNL     1       2.216   8.624  17.718  0.00  0.00    +0.000 C 
ATOM      8  C   UNL     1       1.480   9.336  18.840  0.00  0.00    +0.000 A 
ATOM      9  C   UNL     1       0.920  10.608  18.838  0.00  0.00    +0.000 A 
ATOM     10  C   UNL     1       0.281  11.037  20.010  0.00  0.00    +0.000 A 
ATOM     11  C   UNL     1       0.196  10.203  21.142  0.00  0.00    +0.000 A 
ATOM     12  C   UNL     1       0.760   8.923  21.127  0.00  0.00    +0.000 A 
ATOM     13  C   UNL     1       1.400   8.495  19.975  0.00  0.00    +0.000 A 
ENDROOT
BRANCH   1  14
ATOM     14  S   UNL     1       4.489   3.761  18.004  0.00  0.00    +0.000 S 
ATOM     15  O   UNL     1       4.751   3.981  16.600  0.00  0.00    +0.000 OA
ATOM     16  O   UNL     1       3.901   2.538  18.499  0.00  0.00    +0.000 OA
BRANCH  14  17
ATOM     17  N   UNL     1       5.958   3.969  18.853  0.00  0.00    +0.000 NA
ATOM     18  H   UNL     1       5.804   3.751  19.843  0.00  0.00    +0.000 HD
BRANCH  17  19
ATOM     19  C   UNL     1       6.563   5.326  18.685  0.00  0.00    +0.000 C 
BRANCH  19  21
ATOM     20  O   UNL     1       7.499   6.328  16.686  0.00  0.00    +0.000 OA
ATOM     21  C   UNL     1       7.392   5.355  17.415  0.00  0.00    +0.000 C 
BRANCH  21  22
ATOM     22  O   UNL     1       7.989   4.166  17.153  0.00  0.00    +0.000 OA
ATOM     23  H   UNL     1       7.719   3.501  17.826  0.00  0.00    +0.000 HD
ENDBRANCH  21  22
ENDBRANCH  19  21
ENDBRANCH  17  19
ENDBRANCH  14  17
ENDBRANCH   1  14
BRANCH  10  24
ATOM     24  S   UNL     1      -0.538  12.612  20.041  0.00  0.00    +0.000 S 
ATOM     25  O   UNL     1      -1.562  12.543  21.057  0.00  0.00    +0.000 OA
ATOM     26  O   UNL     1       0.451  13.663  20.019  0.00  0.00    +0.000 OA
BRANCH  24  27
ATOM     27  N   UNL     1      -1.380  12.668  18.562  0.00  0.00    +0.000 NA
ATOM     28  H   UNL     1      -0.681  12.475  17.832  0.00  0.00    +0.000 HD
BRANCH  27  29
ATOM     29  C   UNL     1      -2.582  11.785  18.497  0.00  0.00    +0.000 C 
BRANCH  29  30
ATOM     30  C   UNL     1      -2.481  10.873  17.287  0.00  0.00    +0.000 C 
ATOM     31  O   UNL     1      -2.612   9.660  17.318  0.00  0.00    +0.000 OA
BRANCH  30  32
ATOM     32  O   UNL     1      -2.260  11.560  16.137  0.00  0.00    +0.000 OA
ATOM     33  H   UNL     1      -2.925  12.278  16.054  0.00  0.00    +0.000 HD
ENDBRANCH  30  32
ENDBRANCH  29  30
ENDBRANCH  27  29
ENDBRANCH  24  27
ENDBRANCH  10  24
TORSDOF 10
ENDMDL
MODEL 2
REMARK VINA RESULT:      -8.3      1.407      1.463
REMARK  Name = 
REMARK  10 active torsions:
REMARK  status: ('A' for Active; 'I' for Inactive)
REMARK    1  A    between atoms: C_2  and  O_3
REMARK    2  A    between atoms: C_2  and  C_4
REMARK    3  A    between atoms: C_4  and  N_5
REMARK    4  A    between atoms: N_5  and  S_6
REMARK    5  A    between atoms: S_6  and  C_9
REMARK    6  A    between atoms: C_18  and  S_19
REMARK    7  A    between atoms: S_19  and  N_22
REMARK    8  A    between atoms: N_22  and  C_23
REMARK    9  A    between atoms: C_23  and  C_24
REMARK   10  A    between atoms: C_24  and  O_26
REMARK                            x       y       z     vdW  Elec       q    Type
REMARK                         _______ _______ _______ _____ _____    ______ ____
ROOT
ATOM      1  C   UNL     1       3.753   5.395  18.724  0.00  0.00    +0.000 A 
ATOM      2  C   UNL     1       3.102   5.291  19.970  0.00  0.00    +0.000 A 
ATOM      3  C   UNL     1       2.235   6.304  20.399  0.00  0.00    +0.000 A 
ATOM      4  C   UNL     1       2.035   7.404  19.577  0.00  0.00    +0.000 A 
ATOM      5  C   UNL     1       2.687   7.495  18.326  0.00  0.00    +0.000 A 
ATOM      6  C   UNL     1       3.557   6.505  17.890  0.00  0.00    +0.000 A 
ATOM      7  C   UNL     1       2.305   8.793  17.633  0.00  0.00    +0.000 C 
ATOM      8  C   UNL     1       1.378   9.439  18.649  0.00  0.00    +0.000 A 
ATOM      9  C   UNL     1       0.712  10.655  18.564  0.00  0.00    +0.000 A 
ATOM     10  C   UNL     1      -0.099  11.027  19.644  0.00  0.00    +0.000 A 
ATOM     11  C   UNL     1      -0.247  10.192  20.768  0.00  0.00    +0.000 A 
ATOM     12  C   UNL     1       0.426   8.967  20.838  0.00  0.00    +0.000 A 
ATOM     13  C   UNL     1       1.236   8.596  19.776  0.00  0.00    +0.000 A 
ENDROOT
BRANCH   1  14
ATOM     14  S   UNL     1       4.948   4.153  18.252  0.00  0.00    +0.000 S 
ATOM     15  O   UNL     1       4.350   3.278  17.270  0.00  0.00    +0.000 OA
ATOM     16  O   UNL     1       5.531   3.657  19.477  0.00  0.00    +0.000 OA
BRANCH  14  17
ATOM     17  N   UNL     1       6.164   5.066  17.473  0.00  0.00    +0.000 NA
ATOM     18  H   UNL     1       6.124   4.882  16.465  0.00  0.00    +0.000 HD
BRANCH  17  19
ATOM     19  C   UNL     1       7.537   4.827  18.014  0.00  0.00    +0.000 C 
BRANCH  19  21
ATOM     20  O   UNL     1       8.202   7.058  18.691  0.00  0.00    +0.000 OA
ATOM     21  C   UNL     1       7.887   5.921  19.004  0.00  0.00    +0.000 C 
BRANCH  21  22
ATOM     22  O   UNL     1       7.840   5.496  20.292  0.00  0.00    +0.000 OA
ATOM     23  H   UNL     1       7.672   6.260  20.889  0.00  0.00    +0.000 HD
ENDBRANCH  21  22
ENDBRANCH  19  21
ENDBRANCH  17  19
ENDBRANCH  14  17
ENDBRANCH   1  14
BRANCH  10  24
ATOM     24  S   UNL     1      -1.052  12.523  19.557  0.00  0.00    +0.000 S 
ATOM     25  O   UNL     1      -2.110  12.416  20.534  0.00  0.00    +0.000 OA
ATOM     26  O   UNL     1      -0.158  13.655  19.516  0.00  0.00    +0.000 OA
BRANCH  24  27
ATOM     27  N   UNL     1      -1.830  12.428  18.045  0.00  0.00    +0.000 NA
ATOM     28  H   UNL     1      -1.080  12.453  17.341  0.00  0.00    +0.000 HD
BRANCH  27  29
ATOM     29  C   UNL     1      -2.762  11.272  17.897  0.00  0.00    +0.000 C 
BRANCH  29  30
ATOM     30  C   UNL     1      -4.181  11.782  17.708  0.00  0.00    +0.000 C 
ATOM     31  O   UNL     1      -4.865  11.580  16.718  0.00  0.00    +0.000 OA
BRANCH  30  32
ATOM     32  O   UNL     1      -4.633  12.470  18.788  0.00  0.00    +0.000 OA
ATOM     33  H   UNL     1      -5.523  12.835  18.591  0.00  0.00    +0.000 HD
ENDBRANCH  30  32
ENDBRANCH  29  30
ENDBRANCH  27  29
ENDBRANCH  24  27
ENDBRANCH  10  24
TORSDOF 10
ENDMDL
MODEL 3
REMARK VINA RESULT:      -8.2      0.975      9.057
REMARK  Name = 
REMARK  10 active torsions:
REMARK  status: ('A' for Active; 'I' for Inactive)
REMARK    1  A    between atoms: C_2  and  O_3
REMARK    2  A    between atoms: C_2  and  C_4
REMARK    3  A    between atoms: C_4  and  N_5
REMARK    4  A    between atoms: N_5  and  S_6
REMARK    5  A    between atoms: S_6  and  C_9
REMARK    6  A    between atoms: C_18  and  S_19
REMARK    7  A    between atoms: S_19  and  N_22
REMARK    8  A    between atoms: N_22  and  C_23
REMARK    9  A    between atoms: C_23  and  C_24
REMARK   10  A    between atoms: C_24  and  O_26
REMARK                            x       y       z     vdW  Elec       q    Type
REMARK                         _______ _______ _______ _____ _____    ______ ____
ROOT
ATOM      1  C   UNL     1       0.460  11.208  19.397  0.00  0.00    +0.000 A 
ATOM      2  C   UNL     1       0.172  10.590  20.630  0.00  0.00    +0.000 A 
ATOM      3  C   UNL     1       0.598   9.279  20.877  0.00  0.00    +0.000 A 
ATOM      4  C   UNL     1       1.302   8.608  19.887  0.00  0.00    +0.000 A 
ATOM      5  C   UNL     1       1.591   9.239  18.657  0.00  0.00    +0.000 A 
ATOM      6  C   UNL     1       1.168  10.535  18.392  0.00  0.00    +0.000 A 
ATOM      7  C   UNL     1       2.358   8.290  17.751  0.00  0.00    +0.000 C 
ATOM      8  C   UNL     1       2.450   7.036  18.605  0.00  0.00    +0.000 A 
ATOM      9  C   UNL     1       3.051   5.821  18.299  0.00  0.00    +0.000 A 
ATOM     10  C   UNL     1       3.005   4.812  19.270  0.00  0.00    +0.000 A 
ATOM     11  C   UNL     1       2.387   5.026  20.517  0.00  0.00    +0.000 A 
ATOM     12  C   UNL     1       1.790   6.257  20.813  0.00  0.00    +0.000 A 
ATOM     13  C   UNL     1       1.825   7.257  19.855  0.00  0.00    +0.000 A 
ENDROOT
BRANCH   1  14
ATOM     14  S   UNL     1      -0.199  12.834  19.056  0.00  0.00    +0.000 S 
ATOM     15  O   UNL     1       0.878  13.692  18.617  0.00  0.00    +0.000 OA
ATOM     16  O   UNL     1      -1.053  13.173  20.170  0.00  0.00    +0.000 OA
BRANCH  14  17
ATOM     17  N   UNL     1      -1.231  12.559  17.721  0.00  0.00    +0.000 NA
ATOM     18  H   UNL     1      -1.497  13.462  17.315  0.00  0.00    +0.000 HD
BRANCH  17  19
ATOM     19  C   UNL     1      -2.435  11.736  18.050  0.00  0.00    +0.000 C 
BRANCH  19  21
ATOM     20  O   UNL     1      -4.033  10.488  16.722  0.00  0.00    +0.000 OA
ATOM     21  C   UNL     1      -3.021  11.168  16.772  0.00  0.00    +0.000 C 
BRANCH  21  22
ATOM     22  O   UNL     1      -2.282  11.472  15.676  0.00  0.00    +0.000 OA
ATOM     23  H   UNL     1      -1.850  10.660  15.328  0.00  0.00    +0.000 HD
ENDBRANCH  21  22
ENDBRANCH  19  21
ENDBRANCH  17  19
ENDBRANCH  14  17
ENDBRANCH   1  14
BRANCH  10  24
ATOM     24  S   UNL     1       3.836   3.270  18.980  0.00  0.00    +0.000 S 
ATOM     25  O   UNL     1       3.556   2.412  20.107  0.00  0.00    +0.000 OA
ATOM     26  O   UNL     1       3.599   2.851  17.620  0.00  0.00    +0.000 OA
BRANCH  24  27
ATOM     27  N   UNL     1       5.488   3.662  19.115  0.00  0.00    +0.000 NA
ATOM     28  H   UNL     1       5.989   2.764  19.140  0.00  0.00    +0.000 HD
BRANCH  27  29
ATOM     29  C   UNL     1       5.990   4.608  18.075  0.00  0.00    +0.000 C 
BRANCH  29  30
ATOM     30  C   UNL     1       7.503   4.710  18.166  0.00  0.00    +0.000 C 
ATOM     31  O   UNL     1       8.111   5.206  19.100  0.00  0.00    +0.000 OA
BRANCH  30  32
ATOM     32  O   UNL     1       8.126   4.151  17.096  0.00  0.00    +0.000 OA
ATOM     33  H   UNL     1       7.868   4.635  16.281  0.00  0.00    +0.000 HD
ENDBRANCH  30  32
ENDBRANCH  29  30
ENDBRANCH  27  29
ENDBRANCH  24  27
ENDBRANCH  10  24
TORSDOF 10
ENDMDL
MODEL 4
REMARK VINA RESULT:      -8.2      1.001      1.086
REMARK  Name = 
REMARK  10 active torsions:
REMARK  status: ('A' for Active; 'I' for Inactive)
REMARK    1  A    between atoms: C_2  and  O_3
REMARK    2  A    between atoms: C_2  and  C_4
REMARK    3  A    between atoms: C_4  and  N_5
REMARK    4  A    between atoms: N_5  and  S_6
REMARK    5  A    between atoms: S_6  and  C_9
REMARK    6  A    between atoms: C_18  and  S_19
REMARK    7  A    between atoms: S_19  and  N_22
REMARK    8  A    between atoms: N_22  and  C_23
REMARK    9  A    between atoms: C_23  and  C_24
REMARK   10  A    between atoms: C_24  and  O_26
REMARK                            x       y       z     vdW  Elec       q    Type
REMARK                         _______ _______ _______ _____ _____    ______ ____
ROOT
ATOM      1  C   UNL     1       3.231   4.836  19.129  0.00  0.00    +0.000 A 
ATOM      2  C   UNL     1       2.572   5.027  20.360  0.00  0.00    +0.000 A 
ATOM      3  C   UNL     1       1.934   6.243  20.637  0.00  0.00    +0.000 A 
ATOM      4  C   UNL     1       1.968   7.247  19.680  0.00  0.00    +0.000 A 
ATOM      5  C   UNL     1       2.627   7.043  18.447  0.00  0.00    +0.000 A 
ATOM      6  C   UNL     1       3.272   5.848  18.160  0.00  0.00    +0.000 A 
ATOM      7  C   UNL     1       2.525   8.294  17.589  0.00  0.00    +0.000 C 
ATOM      8  C   UNL     1       1.751   9.241  18.491  0.00  0.00    +0.000 A 
ATOM      9  C   UNL     1       1.353  10.547  18.239  0.00  0.00    +0.000 A 
ATOM     10  C   UNL     1       0.635  11.212  19.242  0.00  0.00    +0.000 A 
ATOM     11  C   UNL     1       0.315  10.574  20.456  0.00  0.00    +0.000 A 
ATOM     12  C   UNL     1       0.718   9.255  20.694  0.00  0.00    +0.000 A 
ATOM     13  C   UNL     1       1.435   8.594  19.709  0.00  0.00    +0.000 A 
ENDROOT
BRANCH   1  14
ATOM     14  S   UNL     1       4.142   3.324  18.847  0.00  0.00    +0.000 S 
ATOM     15  O   UNL     1       3.653   2.703  17.638  0.00  0.00    +0.000 OA
ATOM     16  O   UNL     1       4.185   2.629  20.112  0.00  0.00    +0.000 OA
BRANCH  14  17
ATOM     17  N   UNL     1       5.730   3.883  18.547  0.00  0.00    +0.000 NA
ATOM     18  H   UNL     1       6.391   3.121  18.733  0.00  0.00    +0.000 HD
BRANCH  17  19
ATOM     19  C   UNL     1       6.091   5.114  19.315  0.00  0.00    +0.000 C 
BRANCH  19  21
ATOM     20  O   UNL     1       7.774   5.915  17.765  0.00  0.00    +0.000 OA
ATOM     21  C   UNL     1       7.473   5.579  18.899  0.00  0.00    +0.000 C 
BRANCH  21  22
ATOM     22  O   UNL     1       8.363   5.559  19.923  0.00  0.00    +0.000 OA
ATOM     23  H   UNL     1       8.237   4.743  20.458  0.00  0.00    +0.000 HD
ENDBRANCH  21  22
ENDBRANCH  19  21
ENDBRANCH  17  19
ENDBRANCH  14  17
ENDBRANCH   1  14
BRANCH  10  24
ATOM     24  S   UNL     1       0.015  12.849  18.945  0.00  0.00    +0.000 S 
ATOM     25  O   UNL     1      -0.750  13.236  20.107  0.00  0.00    +0.000 OA
ATOM     26  O   UNL     1       1.077  13.672  18.418  0.00  0.00    +0.000 OA
BRANCH  24  27
ATOM     27  N   UNL     1      -1.133  12.636  17.705  0.00  0.00    +0.000 NA
ATOM     28  H   UNL     1      -0.596  12.392  16.863  0.00  0.00    +0.000 HD
BRANCH  27  29
ATOM     29  C   UNL     1      -2.225  11.670  18.029  0.00  0.00    +0.000 C 
BRANCH  29  30
ATOM     30  C   UNL     1      -2.472  10.761  16.838  0.00  0.00    +0.000 C 
ATOM     31  O   UNL     1      -2.802   9.589  16.916  0.00  0.00    +0.000 OA
BRANCH  30  32
ATOM     32  O   UNL     1      -2.318  11.406  15.653  0.00  0.00    +0.000 OA
ATOM     33  H   UNL     1      -3.193  11.493  15.214  0.00  0.00    +0.000 HD
ENDBRANCH  30  32
ENDBRANCH  29  30
ENDBRANCH  27  29
ENDBRANCH  24  27
ENDBRANCH  10  24
TORSDOF 10
ENDMDL
MODEL 5
REMARK VINA RESULT:      -8.2      1.136      1.300
REMARK  Name = 
REMARK  10 active torsions:
REMARK  status: ('A' for Active; 'I' for Inactive)
REMARK    1  A    between atoms: C_2  and  O_3
REMARK    2  A    between atoms: C_2  and  C_4
REMARK    3  A    between atoms: C_4  and  N_5
REMARK    4  A    between atoms: N_5  and  S_6
REMARK    5  A    between atoms: S_6  and  C_9
REMARK    6  A    between atoms: C_18  and  S_19
REMARK    7  A    between atoms: S_19  and  N_22
REMARK    8  A    between atoms: N_22  and  C_23
REMARK    9  A    between atoms: C_23  and  C_24
REMARK   10  A    between atoms: C_24  and  O_26
REMARK                            x       y       z     vdW  Elec       q    Type
REMARK                         _______ _______ _______ _____ _____    ______ ____
ROOT
ATOM      1  C   UNL     1       3.583   5.125  18.328  0.00  0.00    +0.000 A 
ATOM      2  C   UNL     1       3.184   4.818  19.644  0.00  0.00    +0.000 A 
ATOM      3  C   UNL     1       2.479   5.760  20.404  0.00  0.00    +0.000 A 
ATOM      4  C   UNL     1       2.187   6.992  19.836  0.00  0.00    +0.000 A 
ATOM      5  C   UNL     1       2.586   7.287  18.513  0.00  0.00    +0.000 A 
ATOM      6  C   UNL     1       3.294   6.368  17.749  0.00  0.00    +0.000 A 
ATOM      7  C   UNL     1       2.153   8.695  18.140  0.00  0.00    +0.000 C 
ATOM      8  C   UNL     1       1.482   9.174  19.417  0.00  0.00    +0.000 A 
ATOM      9  C   UNL     1       0.886  10.402  19.674  0.00  0.00    +0.000 A 
ATOM     10  C   UNL     1       0.324  10.597  20.943  0.00  0.00    +0.000 A 
ATOM     11  C   UNL     1       0.350   9.580  21.917  0.00  0.00    +0.000 A 
ATOM     12  C   UNL     1       0.951   8.346  21.642  0.00  0.00    +0.000 A 
ATOM     13  C   UNL     1       1.514   8.149  20.391  0.00  0.00    +0.000 A 
ENDROOT
BRANCH   1  14
ATOM     14  S   UNL     1       4.588   3.957  17.421  0.00  0.00    +0.000 S 
ATOM     15  O   UNL     1       4.913   4.522  16.132  0.00  0.00    +0.000 OA
ATOM     16  O   UNL     1       3.949   2.669  17.563  0.00  0.00    +0.000 OA
BRANCH  14  17
ATOM     17  N   UNL     1       6.025   3.888  18.344  0.00  0.00    +0.000 NA
ATOM     18  H   UNL     1       5.800   4.081  19.325  0.00  0.00    +0.000 HD
BRANCH  17  19
ATOM     19  C   UNL     1       7.104   4.796  17.847  0.00  0.00    +0.000 C 
BRANCH  19  21
ATOM     20  O   UNL     1       7.561   5.350  20.162  0.00  0.00    +0.000 OA
ATOM     21  C   UNL     1       7.589   5.673  18.985  0.00  0.00    +0.000 C 
BRANCH  21  22
ATOM     22  O   UNL     1       8.037   6.881  18.561  0.00  0.00    +0.000 OA
ATOM     23  H   UNL     1       8.988   6.817  18.315  0.00  0.00    +0.000 HD
ENDBRANCH  21  22
ENDBRANCH  19  21
ENDBRANCH  17  19
ENDBRANCH  14  17
ENDBRANCH   1  14
BRANCH  10  24
ATOM     24  S   UNL     1      -0.537  12.107  21.304  0.00  0.00    +0.000 S 
ATOM     25  O   UNL     1      -1.714  11.759  22.065  0.00  0.00    +0.000 OA
ATOM     26  O   UNL     1       0.408  13.096  21.763  0.00  0.00    +0.000 OA
BRANCH  24  27
ATOM     27  N   UNL     1      -1.121  12.620  19.788  0.00  0.00    +0.000 NA
ATOM     28  H   UNL     1      -0.319  12.570  19.146  0.00  0.00    +0.000 HD
BRANCH  27  29
ATOM     29  C   UNL     1      -2.329  11.886  19.308  0.00  0.00    +0.000 C 
BRANCH  29  30
ATOM     30  C   UNL     1      -2.289  11.774  17.793  0.00  0.00    +0.000 C 
ATOM     31  O   UNL     1      -3.069  11.115  17.125  0.00  0.00    +0.000 OA
BRANCH  30  32
ATOM     32  O   UNL     1      -1.299  12.524  17.244  0.00  0.00    +0.000 OA
ATOM     33  H   UNL     1      -1.572  13.468  17.237  0.00  0.00    +0.000 HD
ENDBRANCH  30  32
ENDBRANCH  29  30
ENDBRANCH  27  29
ENDBRANCH  24  27
ENDBRANCH  10  24
TORSDOF 10
ENDMDL
MODEL 6
REMARK VINA RESULT:      -8.2      1.026      8.970
REMARK  Name = 
REMARK  10 active torsions:
REMARK  status: ('A' for Active; 'I' for Inactive)
REMARK    1  A    between atoms: C_2  and  O_3
REMARK    2  A    between atoms: C_2  and  C_4
REMARK    3  A    between atoms: C_4  and  N_5
REMARK    4  A    between atoms: N_5  and  S_6
REMARK    5  A    between atoms: S_6  and  C_9
REMARK    6  A    between atoms: C_18  and  S_19
REMARK    7  A    between atoms: S_19  and  N_22
REMARK    8  A    between atoms: N_22  and  C_23
REMARK    9  A    between atoms: C_23  and  C_24
REMARK   10  A    between atoms: C_24  and  O_26
REMARK                            x       y       z     vdW  Elec       q    Type
REMARK                         _______ _______ _______ _____ _____    ______ ____
ROOT
ATOM      1  C   UNL     1       0.507  11.095  19.239  0.00  0.00    +0.000 A 
ATOM      2  C   UNL     1       0.233  10.428  20.449  0.00  0.00    +0.000 A 
ATOM      3  C   UNL     1       0.711   9.129  20.663  0.00  0.00    +0.000 A 
ATOM      4  C   UNL     1       1.452   8.518  19.662  0.00  0.00    +0.000 A 
ATOM      5  C   UNL     1       1.728   9.198  18.454  0.00  0.00    +0.000 A 
ATOM      6  C   UNL     1       1.254  10.482  18.223  0.00  0.00    +0.000 A 
ATOM      7  C   UNL     1       2.544   8.308  17.530  0.00  0.00    +0.000 C 
ATOM      8  C   UNL     1       2.679   7.034  18.347  0.00  0.00    +0.000 A 
ATOM      9  C   UNL     1       3.333   5.855  18.012  0.00  0.00    +0.000 A 
ATOM     10  C   UNL     1       3.319   4.816  18.953  0.00  0.00    +0.000 A 
ATOM     11  C   UNL     1       2.679   4.967  20.198  0.00  0.00    +0.000 A 
ATOM     12  C   UNL     1       2.028   6.162  20.523  0.00  0.00    +0.000 A 
ATOM     13  C   UNL     1       2.032   7.191  19.595  0.00  0.00    +0.000 A 
ENDROOT
BRANCH   1  14
ATOM     14  S   UNL     1      -0.215  12.702  18.939  0.00  0.00    +0.000 S 
ATOM     15  O   UNL     1       0.838  13.633  18.605  0.00  0.00    +0.000 OA
ATOM     16  O   UNL     1      -1.147  12.941  20.016  0.00  0.00    +0.000 OA
BRANCH  14  17
ATOM     17  N   UNL     1      -1.154  12.445  17.534  0.00  0.00    +0.000 NA
ATOM     18  H   UNL     1      -1.665  13.306  17.314  0.00  0.00    +0.000 HD
BRANCH  17  19
ATOM     19  C   UNL     1      -2.081  11.275  17.635  0.00  0.00    +0.000 C 
BRANCH  19  21
ATOM     20  O   UNL     1      -2.694  10.613  15.385  0.00  0.00    +0.000 OA
ATOM     21  C   UNL     1      -2.966  11.227  16.404  0.00  0.00    +0.000 C 
BRANCH  21  22
ATOM     22  O   UNL     1      -4.095  11.967  16.541  0.00  0.00    +0.000 OA
ATOM     23  H   UNL     1      -3.866  12.924  16.564  0.00  0.00    +0.000 HD
ENDBRANCH  21  22
ENDBRANCH  19  21
ENDBRANCH  17  19
ENDBRANCH  14  17
ENDBRANCH   1  14
BRANCH  10  24
ATOM     24  S   UNL     1       4.217   3.320  18.626  0.00  0.00    +0.000 S 
ATOM     25  O   UNL     1       4.975   3.006  19.815  0.00  0.00    +0.000 OA
ATOM     26  O   UNL     1       3.336   2.361  18.004  0.00  0.00    +0.000 OA
BRANCH  24  27
ATOM     27  N   UNL     1       5.376   3.780  17.466  0.00  0.00    +0.000 NA
ATOM     28  H   UNL     1       4.846   4.190  16.686  0.00  0.00    +0.000 HD
BRANCH  27  29
ATOM     29  C   UNL     1       6.463   4.659  17.989  0.00  0.00    +0.000 C 
BRANCH  29  30
ATOM     30  C   UNL     1       7.099   5.422  16.840  0.00  0.00    +0.000 C 
ATOM     31  O   UNL     1       7.000   6.626  16.666  0.00  0.00    +0.000 OA
BRANCH  30  32
ATOM     32  O   UNL     1       7.833   4.619  16.027  0.00  0.00    +0.000 OA
ATOM     33  H   UNL     1       8.779   4.874  16.086  0.00  0.00    +0.000 HD
ENDBRANCH  30  32
ENDBRANCH  29  30
ENDBRANCH  27  29
ENDBRANCH  24  27
ENDBRANCH  10  24
TORSDOF 10
ENDMDL
MODEL 7
REMARK VINA RESULT:      -8.2      1.969      2.698
REMARK  Name = 
REMARK  10 active torsions:
REMARK  status: ('A' for Active; 'I' for Inactive)
REMARK    1  A    between atoms: C_2  and  O_3
REMARK    2  A    between atoms: C_2  and  C_4
REMARK    3  A    between atoms: C_4  and  N_5
REMARK    4  A    between atoms: N_5  and  S_6
REMARK    5  A    between atoms: S_6  and  C_9
REMARK    6  A    between atoms: C_18  and  S_19
REMARK    7  A    between atoms: S_19  and  N_22
REMARK    8  A    between atoms: N_22  and  C_23
REMARK    9  A    between atoms: C_23  and  C_24
REMARK   10  A    between atoms: C_24  and  O_26
REMARK                            x       y       z     vdW  Elec       q    Type
REMARK                         _______ _______ _______ _____ _____    ______ ____
ROOT
ATOM      1  C   UNL     1       3.176   5.086  18.702  0.00  0.00    +0.000 A 
ATOM      2  C   UNL     1       2.699   4.808  19.998  0.00  0.00    +0.000 A 
ATOM      3  C   UNL     1       2.044   5.802  20.737  0.00  0.00    +0.000 A 
ATOM      4  C   UNL     1       1.880   7.057  20.167  0.00  0.00    +0.000 A 
ATOM      5  C   UNL     1       2.356   7.323  18.864  0.00  0.00    +0.000 A 
ATOM      6  C   UNL     1       3.015   6.352  18.122  0.00  0.00    +0.000 A 
ATOM      7  C   UNL     1       2.058   8.765  18.485  0.00  0.00    +0.000 C 
ATOM      8  C   UNL     1       1.378   9.292  19.737  0.00  0.00    +0.000 A 
ATOM      9  C   UNL     1       0.877  10.565  19.980  0.00  0.00    +0.000 A 
ATOM     10  C   UNL     1       0.282  10.801  21.227  0.00  0.00    +0.000 A 
ATOM     11  C   UNL     1       0.183   9.781  22.193  0.00  0.00    +0.000 A 
ATOM     12  C   UNL     1       0.689   8.503  21.932  0.00  0.00    +0.000 A 
ATOM     13  C   UNL     1       1.284   8.264  20.704  0.00  0.00    +0.000 A 
ENDROOT
BRANCH   1  14
ATOM     14  S   UNL     1       4.115   3.842  17.828  0.00  0.00    +0.000 S 
ATOM     15  O   UNL     1       4.325   4.284  16.468  0.00  0.00    +0.000 OA
ATOM     16  O   UNL     1       3.506   2.570  18.143  0.00  0.00    +0.000 OA
BRANCH  14  17
ATOM     17  N   UNL     1       5.625   3.866  18.628  0.00  0.00    +0.000 NA
ATOM     18  H   UNL     1       5.477   3.670  19.624  0.00  0.00    +0.000 HD
BRANCH  17  19
ATOM     19  C   UNL     1       6.389   5.136  18.434  0.00  0.00    +0.000 C 
BRANCH  19  21
ATOM     20  O   UNL     1       7.505   5.506  16.314  0.00  0.00    +0.000 OA
ATOM     21  C   UNL     1       7.464   4.922  17.385  0.00  0.00    +0.000 C 
BRANCH  21  22
ATOM     22  O   UNL     1       8.372   3.983  17.750  0.00  0.00    +0.000 OA
ATOM     23  H   UNL     1       8.384   3.894  18.730  0.00  0.00    +0.000 HD
ENDBRANCH  21  22
ENDBRANCH  19  21
ENDBRANCH  17  19
ENDBRANCH  14  17
ENDBRANCH   1  14
BRANCH  10  24
ATOM     24  S   UNL     1      -0.464  12.376  21.564  0.00  0.00    +0.000 S 
ATOM     25  O   UNL     1       0.607  13.327  21.750  0.00  0.00    +0.000 OA
ATOM     26  O   UNL     1      -1.537  12.605  20.627  0.00  0.00    +0.000 OA
BRANCH  24  27
ATOM     27  N   UNL     1      -1.161  12.180  23.105  0.00  0.00    +0.000 NA
ATOM     28  H   UNL     1      -0.381  12.221  23.774  0.00  0.00    +0.000 HD
BRANCH  27  29
ATOM     29  C   UNL     1      -2.271  13.130  23.411  0.00  0.00    +0.000 C 
BRANCH  29  30
ATOM     30  C   UNL     1      -3.594  12.384  23.419  0.00  0.00    +0.000 C 
ATOM     31  O   UNL     1      -4.149  11.966  24.422  0.00  0.00    +0.000 OA
BRANCH  30  32
ATOM     32  O   UNL     1      -4.125  12.255  22.175  0.00  0.00    +0.000 OA
ATOM     33  H   UNL     1      -5.084  12.057  22.250  0.00  0.00    +0.000 HD
ENDBRANCH  30  32
ENDBRANCH  29  30
ENDBRANCH  27  29
ENDBRANCH  24  27
ENDBRANCH  10  24
TORSDOF 10
ENDMDL
MODEL 8
REMARK VINA RESULT:      -8.1      1.388      2.552
REMARK  Name = 
REMARK  10 active torsions:
REMARK  status: ('A' for Active; 'I' for Inactive)
REMARK    1  A    between atoms: C_2  and  O_3
REMARK    2  A    between atoms: C_2  and  C_4
REMARK    3  A    between atoms: C_4  and  N_5
REMARK    4  A    between atoms: N_5  and  S_6
REMARK    5  A    between atoms: S_6  and  C_9
REMARK    6  A    between atoms: C_18  and  S_19
REMARK    7  A    between atoms: S_19  and  N_22
REMARK    8  A    between atoms: N_22  and  C_23
REMARK    9  A    between atoms: C_23  and  C_24
REMARK   10  A    between atoms: C_24  and  O_26
REMARK                            x       y       z     vdW  Elec       q    Type
REMARK                         _______ _______ _______ _____ _____    ______ ____
ROOT
ATOM      1  C   UNL     1       3.782   5.773  18.555  0.00  0.00    +0.000 A 
ATOM      2  C   UNL     1       3.193   5.535  19.812  0.00  0.00    +0.000 A 
ATOM      3  C   UNL     1       2.300   6.465  20.360  0.00  0.00    +0.000 A 
ATOM      4  C   UNL     1       2.013   7.617  19.642  0.00  0.00    +0.000 A 
ATOM      5  C   UNL     1       2.604   7.843  18.379  0.00  0.00    +0.000 A 
ATOM      6  C   UNL     1       3.499   6.936  17.826  0.00  0.00    +0.000 A 
ATOM      7  C   UNL     1       2.133   9.173  17.814  0.00  0.00    +0.000 C 
ATOM      8  C   UNL     1       1.223   9.687  18.917  0.00  0.00    +0.000 A 
ATOM      9  C   UNL     1       0.499  10.871  18.961  0.00  0.00    +0.000 A 
ATOM     10  C   UNL     1      -0.281  11.113  20.101  0.00  0.00    +0.000 A 
ATOM     11  C   UNL     1      -0.340  10.181  21.156  0.00  0.00    +0.000 A 
ATOM     12  C   UNL     1       0.391   8.990  21.094  0.00  0.00    +0.000 A 
ATOM     13  C   UNL     1       1.170   8.748  19.973  0.00  0.00    +0.000 A 
ENDROOT
BRANCH   1  14
ATOM     14  S   UNL     1       5.011   4.635  17.932  0.00  0.00    +0.000 S 
ATOM     15  O   UNL     1       5.614   3.941  19.047  0.00  0.00    +0.000 OA
ATOM     16  O   UNL     1       5.793   5.365  16.961  0.00  0.00    +0.000 OA
BRANCH  14  17
ATOM     17  N   UNL     1       4.078   3.505  17.051  0.00  0.00    +0.000 NA
ATOM     18  H   UNL     1       3.301   3.997  16.599  0.00  0.00    +0.000 HD
BRANCH  17  19
ATOM     19  C   UNL     1       3.588   2.357  17.874  0.00  0.00    +0.000 C 
BRANCH  19  21
ATOM     20  O   UNL     1       1.405   3.376  17.600  0.00  0.00    +0.000 OA
ATOM     21  C   UNL     1       2.083   2.460  18.037  0.00  0.00    +0.000 C 
BRANCH  21  22
ATOM     22  O   UNL     1       1.562   1.432  18.752  0.00  0.00    +0.000 OA
ATOM     23  H   UNL     1       1.380   0.670  18.157  0.00  0.00    +0.000 HD
ENDBRANCH  21  22
ENDBRANCH  19  21
ENDBRANCH  17  19
ENDBRANCH  14  17
ENDBRANCH   1  14
BRANCH  10  24
ATOM     24  S   UNL     1      -1.304  12.561  20.178  0.00  0.00    +0.000 S 
ATOM     25  O   UNL     1      -2.410  12.259  21.056  0.00  0.00    +0.000 OA
ATOM     26  O   UNL     1      -0.470  13.724  20.369  0.00  0.00    +0.000 OA
BRANCH  24  27
ATOM     27  N   UNL     1      -1.985  12.668  18.621  0.00  0.00    +0.000 NA
ATOM     28  H   UNL     1      -1.198  12.598  17.964  0.00  0.00    +0.000 HD
BRANCH  27  29
ATOM     29  C   UNL     1      -3.085  11.693  18.356  0.00  0.00    +0.000 C 
BRANCH  29  30
ATOM     30  C   UNL     1      -2.702  10.797  17.191  0.00  0.00    +0.000 C 
ATOM     31  O   UNL     1      -2.792   9.580  17.192  0.00  0.00    +0.000 OA
BRANCH  30  32
ATOM     32  O   UNL     1      -2.273  11.503  16.113  0.00  0.00    +0.000 OA
ATOM     33  H   UNL     1      -1.375  11.857  16.292  0.00  0.00    +0.000 HD
ENDBRANCH  30  32
ENDBRANCH  29  30
ENDBRANCH  27  29
ENDBRANCH  24  27
ENDBRANCH  10  24
TORSDOF 10
ENDMDL
MODEL 9
REMARK VINA RESULT:      -8.0      1.687      3.338
REMARK  Name = 
REMARK  10 active torsions:
REMARK  status: ('A' for Active; 'I' for Inactive)
REMARK    1  A    between atoms: C_2  and  O_3
REMARK    2  A    between atoms: C_2  and  C_4
REMARK    3  A    between atoms: C_4  and  N_5
REMARK    4  A    between atoms: N_5  and  S_6
REMARK    5  A    between atoms: S_6  and  C_9
REMARK    6  A    between atoms: C_18  and  S_19
REMARK    7  A    between atoms: S_19  and  N_22
REMARK    8  A    between atoms: N_22  and  C_23
REMARK    9  A    between atoms: C_23  and  C_24
REMARK   10  A    between atoms: C_24  and  O_26
REMARK                            x       y       z     vdW  Elec       q    Type
REMARK                         _______ _______ _______ _____ _____    ______ ____
ROOT
ATOM      1  C   UNL     1       3.790   5.405  18.855  0.00  0.00    +0.000 A 
ATOM      2  C   UNL     1       3.944   6.226  17.720  0.00  0.00    +0.000 A 
ATOM      3  C   UNL     1       3.278   7.456  17.644  0.00  0.00    +0.000 A 
ATOM      4  C   UNL     1       2.468   7.843  18.702  0.00  0.00    +0.000 A 
ATOM      5  C   UNL     1       2.325   7.015  19.839  0.00  0.00    +0.000 A 
ATOM      6  C   UNL     1       2.971   5.789  19.926  0.00  0.00    +0.000 A 
ATOM      7  C   UNL     1       1.382   7.663  20.840  0.00  0.00    +0.000 C 
ATOM      8  C   UNL     1       0.987   8.945  20.127  0.00  0.00    +0.000 A 
ATOM      9  C   UNL     1       0.136   9.952  20.562  0.00  0.00    +0.000 A 
ATOM     10  C   UNL     1      -0.061  11.049  19.712  0.00  0.00    +0.000 A 
ATOM     11  C   UNL     1       0.593  11.134  18.468  0.00  0.00    +0.000 A 
ATOM     12  C   UNL     1       1.452  10.114  18.044  0.00  0.00    +0.000 A 
ATOM     13  C   UNL     1       1.646   9.023  18.877  0.00  0.00    +0.000 A 
ENDROOT
BRANCH   1  14
ATOM     14  S   UNL     1       4.549   3.788  18.877  0.00  0.00    +0.000 S 
ATOM     15  O   UNL     1       5.949   3.933  19.204  0.00  0.00    +0.000 OA
ATOM     16  O   UNL     1       4.100   3.107  17.686  0.00  0.00    +0.000 OA
BRANCH  14  17
ATOM     17  N   UNL     1       3.778   3.019  20.195  0.00  0.00    +0.000 NA
ATOM     18  H   UNL     1       4.434   2.360  20.626  0.00  0.00    +0.000 HD
BRANCH  17  19
ATOM     19  C   UNL     1       2.494   2.345  19.831  0.00  0.00    +0.000 C 
BRANCH  19  21
ATOM     20  O   UNL     1       1.568   2.520  22.065  0.00  0.00    +0.000 OA
ATOM     21  C   UNL     1       1.436   2.687  20.863  0.00  0.00    +0.000 C 
BRANCH  21  22
ATOM     22  O   UNL     1       0.301   3.180  20.306  0.00  0.00    +0.000 OA
ATOM     23  H   UNL     1       0.116   4.078  20.663  0.00  0.00    +0.000 HD
ENDBRANCH  21  22
ENDBRANCH  19  21
ENDBRANCH  17  19
ENDBRANCH  14  17
ENDBRANCH   1  14
BRANCH  10  24
ATOM     24  S   UNL     1      -1.061  12.414  20.250  0.00  0.00    +0.000 S 
ATOM     25  O   UNL     1      -1.894  11.936  21.329  0.00  0.00    +0.000 OA
ATOM     26  O   UNL     1      -0.232  13.587  20.384  0.00  0.00    +0.000 OA
BRANCH  24  27
ATOM     27  N   UNL     1      -2.126  12.682  18.949  0.00  0.00    +0.000 NA
ATOM     28  H   UNL     1      -1.536  12.976  18.159  0.00  0.00    +0.000 HD
BRANCH  27  29
ATOM     29  C   UNL     1      -3.029  11.535  18.638  0.00  0.00    +0.000 C 
BRANCH  29  30
ATOM     30  C   UNL     1      -3.284  11.477  17.142  0.00  0.00    +0.000 C 
ATOM     31  O   UNL     1      -4.385  11.359  16.629  0.00  0.00    +0.000 OA
BRANCH  30  32
ATOM     32  O   UNL     1      -2.144  11.607  16.416  0.00  0.00    +0.000 OA
ATOM     33  H   UNL     1      -1.487  10.943  16.720  0.00  0.00    +0.000 HD
ENDBRANCH  30  32
ENDBRANCH  29  30
ENDBRANCH  27  29
ENDBRANCH  24  27
ENDBRANCH  10  24
TORSDOF 10
ENDMDL
