MODEL 1
REMARK VINA RESULT:      -8.1      0.000      0.000
REMARK  Name = 
REMARK  8 active torsions:
REMARK  status: ('A' for Active; 'I' for Inactive)
REMARK    1  A    between atoms: O_1  and  C_2
REMARK    2  A    between atoms: C_2  and  C_3
REMARK    3  A    between atoms: C_2  and  C_30
REMARK    4  A    between atoms: C_3  and  N_4
REMARK    5  A    between atoms: N_11  and  C_12
REMARK    6  A    between atoms: C_12  and  C_13
REMARK    7  A    between atoms: C_19  and  C_20
REMARK    8  A    between atoms: C_24  and  C_25
REMARK                            x       y       z     vdW  Elec       q    Type
REMARK                         _______ _______ _______ _____ _____    ______ ____
ROOT
ATOM      1  N   UNL     1       4.828   4.522  16.546  0.00  0.00    +0.000 N 
ATOM      2  C   UNL     1       3.898   4.047  17.477  0.00  0.00    +0.000 A 
ATOM      3  C   UNL     1       3.861   2.675  17.794  0.00  0.00    +0.000 A 
ATOM      4  C   UNL     1       2.986   2.166  18.756  0.00  0.00    +0.000 A 
ATOM      5  C   UNL     1       2.106   3.011  19.410  0.00  0.00    +0.000 A 
ATOM      6  C   UNL     1       2.131   4.377  19.131  0.00  0.00    +0.000 A 
ATOM      7  C   UNL     1       3.036   4.929  18.206  0.00  0.00    +0.000 A 
ATOM      8  N   UNL     1       3.057   6.318  18.016  0.00  0.00    +0.000 N 
ATOM      9  C   UNL     1       3.820   6.800  16.854  0.00  0.00    +0.000 C 
ATOM     10  C   UNL     1       5.088   5.971  16.543  0.00  0.00    +0.000 C 
ENDROOT
BRANCH  10  11
ATOM     11  C   UNL     1       6.289   6.288  17.442  0.00  0.00    +0.000 A 
ATOM     12  C   UNL     1       6.858   5.333  18.300  0.00  0.00    +0.000 A 
ATOM     13  C   UNL     1       7.926   5.651  19.138  0.00  0.00    +0.000 A 
ATOM     14  C   UNL     1       8.466   6.934  19.118  0.00  0.00    +0.000 A 
ATOM     15  C   UNL     1       7.947   7.904  18.255  0.00  0.00    +0.000 A 
ATOM     16  C   UNL     1       6.865   7.570  17.419  0.00  0.00    +0.000 A 
BRANCH  15  17
ATOM     17  C   UNL     1       8.528   9.296  18.212  0.00  0.00    +0.000 C 
ATOM     18  F   UNL     1       9.238   9.629  19.327  0.00  0.00    +0.000 F 
ATOM     19  F   UNL     1       9.377   9.475  17.162  0.00  0.00    +0.000 F 
ATOM     20  F   UNL     1       7.568  10.253  18.084  0.00  0.00    +0.000 F 
ENDBRANCH  15  17
ENDBRANCH  10  11
BRANCH   1  21
ATOM     21  C   UNL     1       5.235   3.749  15.352  0.00  0.00    +0.000 C 
BRANCH  21  22
ATOM     22  C   UNL     1       6.123   4.545  14.381  0.00  0.00    +0.000 C 
BRANCH  22  23
ATOM     23  C   UNL     1       6.074   3.911  12.978  0.00  0.00    +0.000 C 
ATOM     24  F   UNL     1       6.414   2.596  13.009  0.00  0.00    +0.000 F 
ATOM     25  F   UNL     1       4.854   3.993  12.400  0.00  0.00    +0.000 F 
ATOM     26  F   UNL     1       6.955   4.515  12.145  0.00  0.00    +0.000 F 
ENDBRANCH  22  23
BRANCH  22  27
ATOM     27  O   UNL     1       7.469   4.638  14.900  0.00  0.00    +0.000 OA
ATOM     28  H   UNL     1       7.447   4.261  15.799  0.00  0.00    +0.000 HD
ENDBRANCH  22  27
ENDBRANCH  21  22
ENDBRANCH   1  21
BRANCH   8  29
ATOM     29  C   UNL     1       2.942   7.229  19.166  0.00  0.00    +0.000 C 
BRANCH  29  30
ATOM     30  C   UNL     1       1.892   8.304  19.056  0.00  0.00    +0.000 A 
ATOM     31  C   UNL     1       1.479   8.925  17.828  0.00  0.00    +0.000 A 
ATOM     32  C   UNL     1       0.510   9.886  18.013  0.00  0.00    +0.000 A 
ATOM     33  S   UNL     1       0.065  10.036  19.656  0.00  0.00    +0.000 S 
ATOM     34  C   UNL     1       1.175   8.822  20.122  0.00  0.00    +0.000 A 
ENDBRANCH  29  30
ENDBRANCH   8  29
TORSDOF 8
ENDMDL
MODEL 2
REMARK VINA RESULT:      -7.9      0.471      1.165
REMARK  Name = 
REMARK  8 active torsions:
REMARK  status: ('A' for Active; 'I' for Inactive)
REMARK    1  A    between atoms: O_1  and  C_2
REMARK    2  A    between atoms: C_2  and  C_3
REMARK    3  A    between atoms: C_2  and  C_30
REMARK    4  A    between atoms: C_3  and  N_4
REMARK    5  A    between atoms: N_11  and  C_12
REMARK    6  A    between atoms: C_12  and  C_13
REMARK    7  A    between atoms: C_19  and  C_20
REMARK    8  A    between atoms: C_24  and  C_25
REMARK                            x       y       z     vdW  Elec       q    Type
REMARK                         _______ _______ _______ _____ _____    ______ ____
ROOT
ATOM      1  N   UNL     1       4.831   4.718  16.608  0.00  0.00    +0.000 N 
ATOM      2  C   UNL     1       3.875   4.325  17.550  0.00  0.00    +0.000 A 
ATOM      3  C   UNL     1       3.793   2.974  17.945  0.00  0.00    +0.000 A 
ATOM      4  C   UNL     1       2.889   2.547  18.920  0.00  0.00    +0.000 A 
ATOM      5  C   UNL     1       2.026   3.453  19.511  0.00  0.00    +0.000 A 
ATOM      6  C   UNL     1       2.094   4.799  19.155  0.00  0.00    +0.000 A 
ATOM      7  C   UNL     1       3.028   5.271  18.213  0.00  0.00    +0.000 A 
ATOM      8  N   UNL     1       3.092   6.646  17.944  0.00  0.00    +0.000 N 
ATOM      9  C   UNL     1       3.885   7.038  16.769  0.00  0.00    +0.000 C 
ATOM     10  C   UNL     1       5.133   6.157  16.526  0.00  0.00    +0.000 C 
ENDROOT
BRANCH  10  11
ATOM     11  C   UNL     1       6.330   6.491  17.425  0.00  0.00    +0.000 A 
ATOM     12  C   UNL     1       6.913   5.545  18.283  0.00  0.00    +0.000 A 
ATOM     13  C   UNL     1       7.977   5.878  19.120  0.00  0.00    +0.000 A 
ATOM     14  C   UNL     1       8.498   7.169  19.099  0.00  0.00    +0.000 A 
ATOM     15  C   UNL     1       7.965   8.131  18.236  0.00  0.00    +0.000 A 
ATOM     16  C   UNL     1       6.888   7.782  17.400  0.00  0.00    +0.000 A 
BRANCH  15  17
ATOM     17  C   UNL     1       8.526   9.531  18.193  0.00  0.00    +0.000 C 
ATOM     18  F   UNL     1       9.607   9.664  17.374  0.00  0.00    +0.000 F 
ATOM     19  F   UNL     1       7.614  10.445  17.760  0.00  0.00    +0.000 F 
ATOM     20  F   UNL     1       8.934   9.963  19.419  0.00  0.00    +0.000 F 
ENDBRANCH  15  17
ENDBRANCH  10  11
BRANCH   1  21
ATOM     21  C   UNL     1       5.232   3.866  15.467  0.00  0.00    +0.000 C 
BRANCH  21  22
ATOM     22  C   UNL     1       6.123   4.592  14.444  0.00  0.00    +0.000 C 
BRANCH  22  23
ATOM     23  C   UNL     1       6.027   3.899  13.073  0.00  0.00    +0.000 C 
ATOM     24  F   UNL     1       6.870   4.459  12.167  0.00  0.00    +0.000 F 
ATOM     25  F   UNL     1       6.317   2.578  13.123  0.00  0.00    +0.000 F 
ATOM     26  F   UNL     1       4.779   4.016  12.559  0.00  0.00    +0.000 F 
ENDBRANCH  22  23
BRANCH  22  27
ATOM     27  O   UNL     1       7.481   4.669  14.933  0.00  0.00    +0.000 OA
ATOM     28  H   UNL     1       8.040   4.220  14.273  0.00  0.00    +0.000 HD
ENDBRANCH  22  27
ENDBRANCH  21  22
ENDBRANCH   1  21
BRANCH   8  29
ATOM     29  C   UNL     1       2.987   7.624  19.038  0.00  0.00    +0.000 C 
BRANCH  29  30
ATOM     30  C   UNL     1       1.797   8.546  18.988  0.00  0.00    +0.000 A 
ATOM     31  C   UNL     1       1.054   8.991  20.135  0.00  0.00    +0.000 A 
ATOM     32  C   UNL     1       0.005   9.820  19.806  0.00  0.00    +0.000 A 
ATOM     33  S   UNL     1      -0.085  10.097  18.122  0.00  0.00    +0.000 S 
ATOM     34  C   UNL     1       1.273   9.100  17.832  0.00  0.00    +0.000 A 
ENDBRANCH  29  30
ENDBRANCH   8  29
TORSDOF 8
ENDMDL
MODEL 3
REMARK VINA RESULT:      -7.8      8.270      9.852
REMARK  Name = 
REMARK  8 active torsions:
REMARK  status: ('A' for Active; 'I' for Inactive)
REMARK    1  A    between atoms: O_1  and  C_2
REMARK    2  A    between atoms: C_2  and  C_3
REMARK    3  A    between atoms: C_2  and  C_30
REMARK    4  A    between atoms: C_3  and  N_4
REMARK    5  A    between atoms: N_11  and  C_12
REMARK    6  A    between atoms: C_12  and  C_13
REMARK    7  A    between atoms: C_19  and  C_20
REMARK    8  A    between atoms: C_24  and  C_25
REMARK                            x       y       z     vdW  Elec       q    Type
REMARK                         _______ _______ _______ _____ _____    ______ ____
ROOT
ATOM      1  N   UNL     1      -0.909  11.371  19.133  0.00  0.00    +0.000 N 
ATOM      2  C   UNL     1      -0.753  10.800  20.400  0.00  0.00    +0.000 A 
ATOM      3  C   UNL     1      -0.373   9.448  20.519  0.00  0.00    +0.000 A 
ATOM      4  C   UNL     1      -0.155   8.852  21.762  0.00  0.00    +0.000 A 
ATOM      5  C   UNL     1      -0.334   9.583  22.924  0.00  0.00    +0.000 A 
ATOM      6  C   UNL     1      -0.693  10.927  22.840  0.00  0.00    +0.000 A 
ATOM      7  C   UNL     1      -0.870  11.572  21.601  0.00  0.00    +0.000 A 
ATOM      8  N   UNL     1      -1.168  12.943  21.581  0.00  0.00    +0.000 N 
ATOM      9  C   UNL     1      -1.606  13.489  20.287  0.00  0.00    +0.000 C 
ATOM     10  C   UNL     1      -0.919  12.842  19.062  0.00  0.00    +0.000 C 
ENDROOT
BRANCH  10  11
ATOM     11  C   UNL     1       0.498  13.360  18.783  0.00  0.00    +0.000 A 
ATOM     12  C   UNL     1       1.576  12.499  18.528  0.00  0.00    +0.000 A 
ATOM     13  C   UNL     1       2.864  12.987  18.313  0.00  0.00    +0.000 A 
ATOM     14  C   UNL     1       3.097  14.360  18.326  0.00  0.00    +0.000 A 
ATOM     15  C   UNL     1       2.043  15.252  18.546  0.00  0.00    +0.000 A 
ATOM     16  C   UNL     1       0.749  14.744  18.767  0.00  0.00    +0.000 A 
BRANCH  15  17
ATOM     17  C   UNL     1       2.276  16.743  18.552  0.00  0.00    +0.000 C 
ATOM     18  F   UNL     1       1.304  17.452  17.913  0.00  0.00    +0.000 F 
ATOM     19  F   UNL     1       2.345  17.255  19.812  0.00  0.00    +0.000 F 
ATOM     20  F   UNL     1       3.446  17.085  17.945  0.00  0.00    +0.000 F 
ENDBRANCH  15  17
ENDBRANCH  10  11
BRANCH   1  21
ATOM     21  C   UNL     1      -1.450  10.624  17.977  0.00  0.00    +0.000 C 
BRANCH  21  22
ATOM     22  C   UNL     1      -2.585  11.364  17.247  0.00  0.00    +0.000 C 
BRANCH  22  23
ATOM     23  C   UNL     1      -3.948  10.776  17.656  0.00  0.00    +0.000 C 
ATOM     24  F   UNL     1      -4.414  11.338  18.802  0.00  0.00    +0.000 F 
ATOM     25  F   UNL     1      -4.904  10.944  16.714  0.00  0.00    +0.000 F 
ATOM     26  F   UNL     1      -3.849   9.446  17.894  0.00  0.00    +0.000 F 
ENDBRANCH  22  23
BRANCH  22  27
ATOM     27  O   UNL     1      -2.368  11.321  15.818  0.00  0.00    +0.000 OA
ATOM     28  H   UNL     1      -2.207  10.387  15.589  0.00  0.00    +0.000 HD
ENDBRANCH  22  27
ENDBRANCH  21  22
ENDBRANCH   1  21
BRANCH   8  29
ATOM     29  C   UNL     1      -0.487  13.866  22.502  0.00  0.00    +0.000 C 
BRANCH  29  30
ATOM     30  C   UNL     1      -1.335  14.443  23.606  0.00  0.00    +0.000 A 
ATOM     31  C   UNL     1      -2.644  13.974  23.966  0.00  0.00    +0.000 A 
ATOM     32  C   UNL     1      -3.202  14.687  25.003  0.00  0.00    +0.000 A 
ATOM     33  S   UNL     1      -2.155  15.910  25.574  0.00  0.00    +0.000 S 
ATOM     34  C   UNL     1      -0.957  15.491  24.428  0.00  0.00    +0.000 A 
ENDBRANCH  29  30
ENDBRANCH   8  29
TORSDOF 8
ENDMDL
MODEL 4
REMARK VINA RESULT:      -7.7      8.498     10.139
REMARK  Name = 
REMARK  8 active torsions:
REMARK  status: ('A' for Active; 'I' for Inactive)
REMARK    1  A    between atoms: O_1  and  C_2
REMARK    2  A    between atoms: C_2  and  C_3
REMARK    3  A    between atoms: C_2  and  C_30
REMARK    4  A    between atoms: C_3  and  N_4
REMARK    5  A    between atoms: N_11  and  C_12
REMARK    6  A    between atoms: C_12  and  C_13
REMARK    7  A    between atoms: C_19  and  C_20
REMARK    8  A    between atoms: C_24  and  C_25
REMARK                            x       y       z     vdW  Elec       q    Type
REMARK                         _______ _______ _______ _____ _____    ______ ____
ROOT
ATOM      1  N   UNL     1      -1.033  11.517  19.391  0.00  0.00    +0.000 N 
ATOM      2  C   UNL     1      -0.787  10.834  20.586  0.00  0.00    +0.000 A 
ATOM      3  C   UNL     1      -0.134   9.585  20.560  0.00  0.00    +0.000 A 
ATOM      4  C   UNL     1       0.179   8.893  21.731  0.00  0.00    +0.000 A 
ATOM      5  C   UNL     1      -0.174   9.418  22.963  0.00  0.00    +0.000 A 
ATOM      6  C   UNL     1      -0.806  10.660  23.024  0.00  0.00    +0.000 A 
ATOM      7  C   UNL     1      -1.089  11.406  21.864  0.00  0.00    +0.000 A 
ATOM      8  N   UNL     1      -1.667  12.678  21.994  0.00  0.00    +0.000 N 
ATOM      9  C   UNL     1      -2.184  13.282  20.756  0.00  0.00    +0.000 C 
ATOM     10  C   UNL     1      -1.350  12.951  19.496  0.00  0.00    +0.000 C 
ENDROOT
BRANCH  10  11
ATOM     11  C   UNL     1      -0.069  13.781  19.348  0.00  0.00    +0.000 A 
ATOM     12  C   UNL     1       1.193  13.287  19.716  0.00  0.00    +0.000 A 
ATOM     13  C   UNL     1       2.341  14.071  19.608  0.00  0.00    +0.000 A 
ATOM     14  C   UNL     1       2.254  15.366  19.104  0.00  0.00    +0.000 A 
ATOM     15  C   UNL     1       1.020  15.882  18.698  0.00  0.00    +0.000 A 
ATOM     16  C   UNL     1      -0.132  15.082  18.818  0.00  0.00    +0.000 A 
BRANCH  15  17
ATOM     17  C   UNL     1       0.909  17.279  18.139  0.00  0.00    +0.000 C 
ATOM     18  F   UNL     1       1.061  18.258  19.075  0.00  0.00    +0.000 F 
ATOM     19  F   UNL     1       1.841  17.532  17.179  0.00  0.00    +0.000 F 
ATOM     20  F   UNL     1      -0.300  17.508  17.556  0.00  0.00    +0.000 F 
ENDBRANCH  15  17
ENDBRANCH  10  11
BRANCH   1  21
ATOM     21  C   UNL     1      -1.381  10.828  18.129  0.00  0.00    +0.000 C 
BRANCH  21  22
ATOM     22  C   UNL     1      -2.534  11.498  17.363  0.00  0.00    +0.000 C 
BRANCH  22  23
ATOM     23  C   UNL     1      -3.863  10.789  17.681  0.00  0.00    +0.000 C 
ATOM     24  F   UNL     1      -4.417  11.252  18.833  0.00  0.00    +0.000 F 
ATOM     25  F   UNL     1      -4.791  10.936  16.707  0.00  0.00    +0.000 F 
ATOM     26  F   UNL     1      -3.672   9.460  17.855  0.00  0.00    +0.000 F 
ENDBRANCH  22  23
BRANCH  22  27
ATOM     27  O   UNL     1      -2.243  11.522  15.947  0.00  0.00    +0.000 OA
ATOM     28  H   UNL     1      -3.096  11.416  15.486  0.00  0.00    +0.000 HD
ENDBRANCH  22  27
ENDBRANCH  21  22
ENDBRANCH   1  21
BRANCH   8  29
ATOM     29  C   UNL     1      -1.215  13.597  23.051  0.00  0.00    +0.000 C 
BRANCH  29  30
ATOM     30  C   UNL     1      -0.891  15.001  22.611  0.00  0.00    +0.000 A 
ATOM     31  C   UNL     1       0.435  15.546  22.519  0.00  0.00    +0.000 A 
ATOM     32  C   UNL     1       0.446  16.859  22.101  0.00  0.00    +0.000 A 
ATOM     33  S   UNL     1      -1.128  17.443  21.789  0.00  0.00    +0.000 S 
ATOM     34  C   UNL     1      -1.827  15.944  22.221  0.00  0.00    +0.000 A 
ENDBRANCH  29  30
ENDBRANCH   8  29
TORSDOF 8
ENDMDL
MODEL 5
REMARK VINA RESULT:      -7.7      0.665      1.200
REMARK  Name = 
REMARK  8 active torsions:
REMARK  status: ('A' for Active; 'I' for Inactive)
REMARK    1  A    between atoms: O_1  and  C_2
REMARK    2  A    between atoms: C_2  and  C_3
REMARK    3  A    between atoms: C_2  and  C_30
REMARK    4  A    between atoms: C_3  and  N_4
REMARK    5  A    between atoms: N_11  and  C_12
REMARK    6  A    between atoms: C_12  and  C_13
REMARK    7  A    between atoms: C_19  and  C_20
REMARK    8  A    between atoms: C_24  and  C_25
REMARK                            x       y       z     vdW  Elec       q    Type
REMARK                         _______ _______ _______ _____ _____    ______ ____
ROOT
ATOM      1  N   UNL     1       4.281   4.677  16.622  0.00  0.00    +0.000 N 
ATOM      2  C   UNL     1       3.489   4.072  17.603  0.00  0.00    +0.000 A 
ATOM      3  C   UNL     1       3.483   2.668  17.732  0.00  0.00    +0.000 A 
ATOM      4  C   UNL     1       2.749   2.025  18.730  0.00  0.00    +0.000 A 
ATOM      5  C   UNL     1       1.983   2.764  19.614  0.00  0.00    +0.000 A 
ATOM      6  C   UNL     1       1.982   4.155  19.524  0.00  0.00    +0.000 A 
ATOM      7  C   UNL     1       2.750   4.837  18.562  0.00  0.00    +0.000 A 
ATOM      8  N   UNL     1       2.759   6.240  18.564  0.00  0.00    +0.000 N 
ATOM      9  C   UNL     1       3.352   6.883  17.381  0.00  0.00    +0.000 C 
ATOM     10  C   UNL     1       4.553   6.116  16.780  0.00  0.00    +0.000 C 
ENDROOT
BRANCH  10  11
ATOM     11  C   UNL     1       5.875   6.317  17.532  0.00  0.00    +0.000 A 
ATOM     12  C   UNL     1       6.468   5.299  18.295  0.00  0.00    +0.000 A 
ATOM     13  C   UNL     1       7.650   5.512  19.002  0.00  0.00    +0.000 A 
ATOM     14  C   UNL     1       8.281   6.752  18.941  0.00  0.00    +0.000 A 
ATOM     15  C   UNL     1       7.738   7.782  18.167  0.00  0.00    +0.000 A 
ATOM     16  C   UNL     1       6.541   7.553  17.463  0.00  0.00    +0.000 A 
BRANCH  15  17
ATOM     17  C   UNL     1       8.415   9.128  18.081  0.00  0.00    +0.000 C 
ATOM     18  F   UNL     1       9.169   9.433  19.174  0.00  0.00    +0.000 F 
ATOM     19  F   UNL     1       9.252   9.223  17.011  0.00  0.00    +0.000 F 
ATOM     20  F   UNL     1       7.522  10.148  17.949  0.00  0.00    +0.000 F 
ENDBRANCH  15  17
ENDBRANCH  10  11
BRANCH   1  21
ATOM     21  C   UNL     1       4.503   4.079  15.287  0.00  0.00    +0.000 C 
BRANCH  21  22
ATOM     22  C   UNL     1       5.963   4.172  14.810  0.00  0.00    +0.000 C 
BRANCH  22  23
ATOM     23  C   UNL     1       6.050   3.851  13.307  0.00  0.00    +0.000 C 
ATOM     24  F   UNL     1       6.943   4.654  12.672  0.00  0.00    +0.000 F 
ATOM     25  F   UNL     1       6.415   2.573  13.056  0.00  0.00    +0.000 F 
ATOM     26  F   UNL     1       4.855   4.053  12.700  0.00  0.00    +0.000 F 
ENDBRANCH  22  23
BRANCH  22  27
ATOM     27  O   UNL     1       6.804   3.312  15.611  0.00  0.00    +0.000 OA
ATOM     28  H   UNL     1       6.277   2.517  15.813  0.00  0.00    +0.000 HD
ENDBRANCH  22  27
ENDBRANCH  21  22
ENDBRANCH   1  21
BRANCH   8  29
ATOM     29  C   UNL     1       2.821   6.983  19.832  0.00  0.00    +0.000 C 
BRANCH  29  30
ATOM     30  C   UNL     1       1.747   8.018  20.045  0.00  0.00    +0.000 A 
ATOM     31  C   UNL     1       0.923   8.116  21.218  0.00  0.00    +0.000 A 
ATOM     32  C   UNL     1       0.012   9.147  21.147  0.00  0.00    +0.000 A 
ATOM     33  S   UNL     1       0.152  10.024  19.688  0.00  0.00    +0.000 S 
ATOM     34  C   UNL     1       1.425   9.020  19.146  0.00  0.00    +0.000 A 
ENDBRANCH  29  30
ENDBRANCH   8  29
TORSDOF 8
ENDMDL
MODEL 6
REMARK VINA RESULT:      -7.7      7.862      9.804
REMARK  Name = 
REMARK  8 active torsions:
REMARK  status: ('A' for Active; 'I' for Inactive)
REMARK    1  A    between atoms: O_1  and  C_2
REMARK    2  A    between atoms: C_2  and  C_3
REMARK    3  A    between atoms: C_2  and  C_30
REMARK    4  A    between atoms: C_3  and  N_4
REMARK    5  A    between atoms: N_11  and  C_12
REMARK    6  A    between atoms: C_12  and  C_13
REMARK    7  A    between atoms: C_19  and  C_20
REMARK    8  A    between atoms: C_24  and  C_25
REMARK                            x       y       z     vdW  Elec       q    Type
REMARK                         _______ _______ _______ _____ _____    ______ ____
ROOT
ATOM      1  N   UNL     1      -1.117  11.402  19.541  0.00  0.00    +0.000 N 
ATOM      2  C   UNL     1      -0.736  10.760  20.724  0.00  0.00    +0.000 A 
ATOM      3  C   UNL     1       0.168   9.679  20.676  0.00  0.00    +0.000 A 
ATOM      4  C   UNL     1       0.616   9.043  21.834  0.00  0.00    +0.000 A 
ATOM      5  C   UNL     1       0.155   9.452  23.074  0.00  0.00    +0.000 A 
ATOM      6  C   UNL     1      -0.726  10.529  23.156  0.00  0.00    +0.000 A 
ATOM      7  C   UNL     1      -1.157  11.225  22.011  0.00  0.00    +0.000 A 
ATOM      8  N   UNL     1      -1.992  12.342  22.164  0.00  0.00    +0.000 N 
ATOM      9  C   UNL     1      -2.621  12.851  20.935  0.00  0.00    +0.000 C 
ATOM     10  C   UNL     1      -1.731  12.734  19.675  0.00  0.00    +0.000 C 
ENDROOT
BRANCH  10  11
ATOM     11  C   UNL     1      -0.655  13.820  19.555  0.00  0.00    +0.000 A 
ATOM     12  C   UNL     1      -0.889  15.154  19.926  0.00  0.00    +0.000 A 
ATOM     13  C   UNL     1       0.091  16.134  19.775  0.00  0.00    +0.000 A 
ATOM     14  C   UNL     1       1.342  15.794  19.267  0.00  0.00    +0.000 A 
ATOM     15  C   UNL     1       1.623  14.470  18.915  0.00  0.00    +0.000 A 
ATOM     16  C   UNL     1       0.623  13.492  19.068  0.00  0.00    +0.000 A 
BRANCH  15  17
ATOM     17  C   UNL     1       2.977  14.082  18.374  0.00  0.00    +0.000 C 
ATOM     18  F   UNL     1       3.044  12.794  17.937  0.00  0.00    +0.000 F 
ATOM     19  F   UNL     1       3.359  14.855  17.320  0.00  0.00    +0.000 F 
ATOM     20  F   UNL     1       3.962  14.209  19.306  0.00  0.00    +0.000 F 
ENDBRANCH  15  17
ENDBRANCH  10  11
BRANCH   1  21
ATOM     21  C   UNL     1      -1.305  10.684  18.262  0.00  0.00    +0.000 C 
BRANCH  21  22
ATOM     22  C   UNL     1      -2.472  11.229  17.420  0.00  0.00    +0.000 C 
BRANCH  22  23
ATOM     23  C   UNL     1      -3.461  10.096  17.091  0.00  0.00    +0.000 C 
ATOM     24  F   UNL     1      -4.749  10.525  17.130  0.00  0.00    +0.000 F 
ATOM     25  F   UNL     1      -3.260   9.553  15.868  0.00  0.00    +0.000 F 
ATOM     26  F   UNL     1      -3.365   9.092  17.995  0.00  0.00    +0.000 F 
ENDBRANCH  22  23
BRANCH  22  27
ATOM     27  O   UNL     1      -1.968  11.887  16.236  0.00  0.00    +0.000 OA
ATOM     28  H   UNL     1      -1.567  12.724  16.533  0.00  0.00    +0.000 HD
ENDBRANCH  22  27
ENDBRANCH  21  22
ENDBRANCH   1  21
BRANCH   8  29
ATOM     29  C   UNL     1      -1.750  13.311  23.244  0.00  0.00    +0.000 C 
BRANCH  29  30
ATOM     30  C   UNL     1      -2.785  14.394  23.405  0.00  0.00    +0.000 A 
ATOM     31  C   UNL     1      -2.587  15.776  23.067  0.00  0.00    +0.000 A 
ATOM     32  C   UNL     1      -3.693  16.555  23.325  0.00  0.00    +0.000 A 
ATOM     33  S   UNL     1      -4.989  15.635  23.950  0.00  0.00    +0.000 S 
ATOM     34  C   UNL     1      -4.069  14.196  23.883  0.00  0.00    +0.000 A 
ENDBRANCH  29  30
ENDBRANCH   8  29
TORSDOF 8
ENDMDL
MODEL 7
REMARK VINA RESULT:      -7.6      8.311      9.882
REMARK  Name = 
REMARK  8 active torsions:
REMARK  status: ('A' for Active; 'I' for Inactive)
REMARK    1  A    between atoms: O_1  and  C_2
REMARK    2  A    between atoms: C_2  and  C_3
REMARK    3  A    between atoms: C_2  and  C_30
REMARK    4  A    between atoms: C_3  and  N_4
REMARK    5  A    between atoms: N_11  and  C_12
REMARK    6  A    between atoms: C_12  and  C_13
REMARK    7  A    between atoms: C_19  and  C_20
REMARK    8  A    between atoms: C_24  and  C_25
REMARK                            x       y       z     vdW  Elec       q    Type
REMARK                         _______ _______ _______ _____ _____    ______ ____
ROOT
ATOM      1  N   UNL     1      -0.836  11.355  19.089  0.00  0.00    +0.000 N 
ATOM      2  C   UNL     1      -0.714  10.830  20.379  0.00  0.00    +0.000 A 
ATOM      3  C   UNL     1      -0.265   9.506  20.558  0.00  0.00    +0.000 A 
ATOM      4  C   UNL     1      -0.078   8.958  21.829  0.00  0.00    +0.000 A 
ATOM      5  C   UNL     1      -0.358   9.710  22.957  0.00  0.00    +0.000 A 
ATOM      6  C   UNL     1      -0.787  11.028  22.814  0.00  0.00    +0.000 A 
ATOM      7  C   UNL     1      -0.936  11.627  21.549  0.00  0.00    +0.000 A 
ATOM      8  N   UNL     1      -1.309  12.977  21.471  0.00  0.00    +0.000 N 
ATOM      9  C   UNL     1      -1.710  13.461  20.141  0.00  0.00    +0.000 C 
ATOM     10  C   UNL     1      -0.925  12.821  18.972  0.00  0.00    +0.000 C 
ENDROOT
BRANCH  10  11
ATOM     11  C   UNL     1       0.473  13.412  18.748  0.00  0.00    +0.000 A 
ATOM     12  C   UNL     1       1.602  12.608  18.529  0.00  0.00    +0.000 A 
ATOM     13  C   UNL     1       2.871  13.162  18.365  0.00  0.00    +0.000 A 
ATOM     14  C   UNL     1       3.033  14.545  18.393  0.00  0.00    +0.000 A 
ATOM     15  C   UNL     1       1.927  15.381  18.577  0.00  0.00    +0.000 A 
ATOM     16  C   UNL     1       0.654  14.806  18.747  0.00  0.00    +0.000 A 
BRANCH  15  17
ATOM     17  C   UNL     1       2.084  16.881  18.599  0.00  0.00    +0.000 C 
ATOM     18  F   UNL     1       2.308  17.427  17.371  0.00  0.00    +0.000 F 
ATOM     19  F   UNL     1       0.983  17.513  19.094  0.00  0.00    +0.000 F 
ATOM     20  F   UNL     1       3.126  17.281  19.379  0.00  0.00    +0.000 F 
ENDBRANCH  15  17
ENDBRANCH  10  11
BRANCH   1  21
ATOM     21  C   UNL     1      -1.274  10.546  17.930  0.00  0.00    +0.000 C 
BRANCH  21  22
ATOM     22  C   UNL     1      -2.423  11.189  17.134  0.00  0.00    +0.000 C 
BRANCH  22  23
ATOM     23  C   UNL     1      -3.779  10.721  17.692  0.00  0.00    +0.000 C 
ATOM     24  F   UNL     1      -3.769   9.396  17.994  0.00  0.00    +0.000 F 
ATOM     25  F   UNL     1      -4.150  11.381  18.813  0.00  0.00    +0.000 F 
ATOM     26  F   UNL     1      -4.764  10.898  16.779  0.00  0.00    +0.000 F 
ENDBRANCH  22  23
BRANCH  22  27
ATOM     27  O   UNL     1      -2.273  10.901  15.725  0.00  0.00    +0.000 OA
ATOM     28  H   UNL     1      -1.444  10.398  15.631  0.00  0.00    +0.000 HD
ENDBRANCH  22  27
ENDBRANCH  21  22
ENDBRANCH   1  21
BRANCH   8  29
ATOM     29  C   UNL     1      -0.730  13.964  22.396  0.00  0.00    +0.000 C 
BRANCH  29  30
ATOM     30  C   UNL     1      -1.677  14.560  23.404  0.00  0.00    +0.000 A 
ATOM     31  C   UNL     1      -1.295  15.051  24.699  0.00  0.00    +0.000 A 
ATOM     32  C   UNL     1      -2.361  15.533  25.425  0.00  0.00    +0.000 A 
ATOM     33  S   UNL     1      -3.827  15.427  24.554  0.00  0.00    +0.000 S 
ATOM     34  C   UNL     1      -3.038  14.728  23.209  0.00  0.00    +0.000 A 
ENDBRANCH  29  30
ENDBRANCH   8  29
TORSDOF 8
ENDMDL
MODEL 8
REMARK VINA RESULT:      -7.6      7.845      9.973
REMARK  Name = 
REMARK  8 active torsions:
REMARK  status: ('A' for Active; 'I' for Inactive)
REMARK    1  A    between atoms: O_1  and  C_2
REMARK    2  A    between atoms: C_2  and  C_3
REMARK    3  A    between atoms: C_2  and  C_30
REMARK    4  A    between atoms: C_3  and  N_4
REMARK    5  A    between atoms: N_11  and  C_12
REMARK    6  A    between atoms: C_12  and  C_13
REMARK    7  A    between atoms: C_19  and  C_20
REMARK    8  A    between atoms: C_24  and  C_25
REMARK                            x       y       z     vdW  Elec       q    Type
REMARK                         _______ _______ _______ _____ _____    ______ ____
ROOT
ATOM      1  N   UNL     1      -1.182  11.484  19.481  0.00  0.00    +0.000 N 
ATOM      2  C   UNL     1      -0.777  10.799  20.631  0.00  0.00    +0.000 A 
ATOM      3  C   UNL     1       0.103   9.703  20.521  0.00  0.00    +0.000 A 
ATOM      4  C   UNL     1       0.575   9.023  21.645  0.00  0.00    +0.000 A 
ATOM      5  C   UNL     1       0.163   9.404  22.911  0.00  0.00    +0.000 A 
ATOM      6  C   UNL     1      -0.693  10.495  23.054  0.00  0.00    +0.000 A 
ATOM      7  C   UNL     1      -1.146  11.233  21.945  0.00  0.00    +0.000 A 
ATOM      8  N   UNL     1      -1.953  12.361  22.158  0.00  0.00    +0.000 N 
ATOM      9  C   UNL     1      -2.610  12.919  20.966  0.00  0.00    +0.000 C 
ATOM     10  C   UNL     1      -1.765  12.823  19.674  0.00  0.00    +0.000 C 
ENDROOT
BRANCH  10  11
ATOM     11  C   UNL     1      -0.670  13.891  19.552  0.00  0.00    +0.000 A 
ATOM     12  C   UNL     1      -0.875  15.224  19.940  0.00  0.00    +0.000 A 
ATOM     13  C   UNL     1       0.120  16.189  19.786  0.00  0.00    +0.000 A 
ATOM     14  C   UNL     1       1.357  15.832  19.257  0.00  0.00    +0.000 A 
ATOM     15  C   UNL     1       1.610  14.507  18.887  0.00  0.00    +0.000 A 
ATOM     16  C   UNL     1       0.594  13.545  19.044  0.00  0.00    +0.000 A 
BRANCH  15  17
ATOM     17  C   UNL     1       2.949  14.101  18.323  0.00  0.00    +0.000 C 
ATOM     18  F   UNL     1       2.991  12.812  17.884  0.00  0.00    +0.000 F 
ATOM     19  F   UNL     1       3.323  14.869  17.263  0.00  0.00    +0.000 F 
ATOM     20  F   UNL     1       3.951  14.214  19.239  0.00  0.00    +0.000 F 
ENDBRANCH  15  17
ENDBRANCH  10  11
BRANCH   1  21
ATOM     21  C   UNL     1      -1.427  10.809  18.188  0.00  0.00    +0.000 C 
BRANCH  21  22
ATOM     22  C   UNL     1      -2.572  11.438  17.376  0.00  0.00    +0.000 C 
BRANCH  22  23
ATOM     23  C   UNL     1      -3.887  10.683  17.643  0.00  0.00    +0.000 C 
ATOM     24  F   UNL     1      -3.673   9.356  17.841  0.00  0.00    +0.000 F 
ATOM     25  F   UNL     1      -4.555  11.144  18.725  0.00  0.00    +0.000 F 
ATOM     26  F   UNL     1      -4.724  10.781  16.582  0.00  0.00    +0.000 F 
ENDBRANCH  22  23
BRANCH  22  27
ATOM     27  O   UNL     1      -2.227  11.472  15.973  0.00  0.00    +0.000 OA
ATOM     28  H   UNL     1      -2.957  11.932  15.518  0.00  0.00    +0.000 HD
ENDBRANCH  22  27
ENDBRANCH  21  22
ENDBRANCH   1  21
BRANCH   8  29
ATOM     29  C   UNL     1      -1.656  13.293  23.257  0.00  0.00    +0.000 C 
BRANCH  29  30
ATOM     30  C   UNL     1      -2.661  14.392  23.482  0.00  0.00    +0.000 A 
ATOM     31  C   UNL     1      -3.999  14.195  23.965  0.00  0.00    +0.000 A 
ATOM     32  C   UNL     1      -4.711  15.369  24.068  0.00  0.00    +0.000 A 
ATOM     33  S   UNL     1      -3.775  16.724  23.612  0.00  0.00    +0.000 S 
ATOM     34  C   UNL     1      -2.421  15.739  23.268  0.00  0.00    +0.000 A 
ENDBRANCH  29  30
ENDBRANCH   8  29
TORSDOF 8
ENDMDL
MODEL 9
REMARK VINA RESULT:      -7.6      8.293      9.956
REMARK  Name = 
REMARK  8 active torsions:
REMARK  status: ('A' for Active; 'I' for Inactive)
REMARK    1  A    between atoms: O_1  and  C_2
REMARK    2  A    between atoms: C_2  and  C_3
REMARK    3  A    between atoms: C_2  and  C_30
REMARK    4  A    between atoms: C_3  and  N_4
REMARK    5  A    between atoms: N_11  and  C_12
REMARK    6  A    between atoms: C_12  and  C_13
REMARK    7  A    between atoms: C_19  and  C_20
REMARK    8  A    between atoms: C_24  and  C_25
REMARK                            x       y       z     vdW  Elec       q    Type
REMARK                         _______ _______ _______ _____ _____    ______ ____
ROOT
ATOM      1  N   UNL     1      -0.858  11.353  19.428  0.00  0.00    +0.000 N 
ATOM      2  C   UNL     1      -0.654  10.723  20.660  0.00  0.00    +0.000 A 
ATOM      3  C   UNL     1      -0.024   9.464  20.709  0.00  0.00    +0.000 A 
ATOM      4  C   UNL     1       0.248   8.823  21.920  0.00  0.00    +0.000 A 
ATOM      5  C   UNL     1      -0.124   9.413  23.116  0.00  0.00    +0.000 A 
ATOM      6  C   UNL     1      -0.733  10.667  23.102  0.00  0.00    +0.000 A 
ATOM      7  C   UNL     1      -0.974  11.362  21.902  0.00  0.00    +0.000 A 
ATOM      8  N   UNL     1      -1.531  12.648  21.957  0.00  0.00    +0.000 N 
ATOM      9  C   UNL     1      -2.006  13.201  20.680  0.00  0.00    +0.000 C 
ATOM     10  C   UNL     1      -1.150  12.796  19.457  0.00  0.00    +0.000 C 
ENDROOT
BRANCH  10  11
ATOM     11  C   UNL     1       0.150  13.594  19.301  0.00  0.00    +0.000 A 
ATOM     12  C   UNL     1       1.409  13.044  19.589  0.00  0.00    +0.000 A 
ATOM     13  C   UNL     1       2.577  13.798  19.476  0.00  0.00    +0.000 A 
ATOM     14  C   UNL     1       2.510  15.121  19.048  0.00  0.00    +0.000 A 
ATOM     15  C   UNL     1       1.278  15.695  18.721  0.00  0.00    +0.000 A 
ATOM     16  C   UNL     1       0.107  14.924  18.845  0.00  0.00    +0.000 A 
BRANCH  15  17
ATOM     17  C   UNL     1       1.190  17.124  18.244  0.00  0.00    +0.000 C 
ATOM     18  F   UNL     1       2.061  17.422  17.240  0.00  0.00    +0.000 F 
ATOM     19  F   UNL     1      -0.048  17.440  17.772  0.00  0.00    +0.000 F 
ATOM     20  F   UNL     1       1.450  18.018  19.238  0.00  0.00    +0.000 F 
ENDBRANCH  15  17
ENDBRANCH  10  11
BRANCH   1  21
ATOM     21  C   UNL     1      -1.189  10.610  18.192  0.00  0.00    +0.000 C 
BRANCH  21  22
ATOM     22  C   UNL     1      -2.404  11.181  17.442  0.00  0.00    +0.000 C 
BRANCH  22  23
ATOM     23  C   UNL     1      -3.396  10.052  17.104  0.00  0.00    +0.000 C 
ATOM     24  F   UNL     1      -4.675  10.506  17.050  0.00  0.00    +0.000 F 
ATOM     25  F   UNL     1      -3.137   9.454  15.918  0.00  0.00    +0.000 F 
ATOM     26  F   UNL     1      -3.371   9.087  18.054  0.00  0.00    +0.000 F 
ENDBRANCH  22  23
BRANCH  22  27
ATOM     27  O   UNL     1      -1.970  11.907  16.270  0.00  0.00    +0.000 OA
ATOM     28  H   UNL     1      -0.998  11.828  16.238  0.00  0.00    +0.000 HD
ENDBRANCH  22  27
ENDBRANCH  21  22
ENDBRANCH   1  21
BRANCH   8  29
ATOM     29  C   UNL     1      -1.086  13.609  22.979  0.00  0.00    +0.000 C 
BRANCH  29  30
ATOM     30  C   UNL     1      -2.081  14.673  23.363  0.00  0.00    +0.000 A 
ATOM     31  C   UNL     1      -1.987  16.057  22.989  0.00  0.00    +0.000 A 
ATOM     32  C   UNL     1      -3.025  16.817  23.483  0.00  0.00    +0.000 A 
ATOM     33  S   UNL     1      -4.135  15.876  24.377  0.00  0.00    +0.000 S 
ATOM     34  C   UNL     1      -3.225  14.454  24.112  0.00  0.00    +0.000 A 
ENDBRANCH  29  30
ENDBRANCH   8  29
TORSDOF 8
ENDMDL
