MODEL 1
REMARK VINA RESULT:     -10.1      0.000      0.000
REMARK  Name = 
REMARK  8 active torsions:
REMARK  status: ('A' for Active; 'I' for Inactive)
REMARK    1  A    between atoms: C_1  and  C_2
REMARK    2  A    between atoms: C_6  and  C_7
REMARK    3  A    between atoms: C_7  and  C_8
REMARK    4  A    between atoms: C_8  and  N_9
REMARK    5  A    between atoms: C_10  and  C_12
REMARK    6  A    between atoms: N_16  and  S_17
REMARK    7  A    between atoms: S_17  and  C_20
REMARK    8  A    between atoms: N_29  and  C_30
REMARK                            x       y       z     vdW  Elec       q    Type
REMARK                         _______ _______ _______ _____ _____    ______ ____
ROOT
ATOM      1  C   UNL     1       6.872   4.730  18.158  0.00  0.00    +0.000 C 
ATOM      2  C   UNL     1       6.957   4.754  16.633  0.00  0.00    +0.000 C 
ATOM      3  C   UNL     1       5.853   5.550  15.941  0.00  0.00    +0.000 C 
ATOM      4  C   UNL     1       4.475   5.309  16.552  0.00  0.00    +0.000 C 
ATOM      5  N   UNL     1       4.483   5.662  18.006  0.00  0.00    +0.000 NA
ATOM      6  C   UNL     1       5.465   4.781  18.751  0.00  0.00    +0.000 C 
ENDROOT
BRANCH   1   8
ATOM      7  N   UNL     1       7.860   6.970  18.232  0.00  0.00    +0.000 N 
ATOM      8  C   UNL     1       7.791   5.731  18.828  0.00  0.00    +0.000 C 
ATOM      9  O   UNL     1       8.414   5.460  19.850  0.00  0.00    +0.000 OA
ATOM     10  H   UNL     1       7.100   7.218  17.605  0.00  0.00    +0.000 HD
BRANCH   7  11
ATOM     11  C   UNL     1       8.574   8.045  18.885  0.00  0.00    +0.000 C 
BRANCH  11  12
ATOM     12  C   UNL     1       8.412   9.361  18.135  0.00  0.00    +0.000 C 
BRANCH  12  18
ATOM     13  C   UNL     1      11.901  12.916  17.384  0.00  0.00    +0.000 C 
ATOM     14  C   UNL     1      11.071  12.071  18.303  0.00  0.00    +0.000 A 
ATOM     15  C   UNL     1      11.241  12.138  19.685  0.00  0.00    +0.000 A 
ATOM     16  C   UNL     1      10.319  11.558  20.553  0.00  0.00    +0.000 A 
ATOM     17  C   UNL     1       9.333  10.728  20.044  0.00  0.00    +0.000 A 
ATOM     18  C   UNL     1       9.289  10.466  18.669  0.00  0.00    +0.000 A 
ATOM     19  C   UNL     1      10.113  11.193  17.798  0.00  0.00    +0.000 A 
ENDBRANCH  12  18
ENDBRANCH  11  12
ENDBRANCH   7  11
ENDBRANCH   1   8
BRANCH   5  20
ATOM     20  S   UNL     1       2.897   5.510  18.751  0.00  0.00    +0.000 S 
ATOM     21  O   UNL     1       1.983   5.014  17.728  0.00  0.00    +0.000 OA
ATOM     22  O   UNL     1       3.059   4.783  19.993  0.00  0.00    +0.000 OA
BRANCH  20  23
ATOM     23  C   UNL     1       2.346   7.144  19.228  0.00  0.00    +0.000 A 
ATOM     24  C   UNL     1       2.072   8.125  18.247  0.00  0.00    +0.000 A 
ATOM     25  C   UNL     1       1.435   9.336  18.587  0.00  0.00    +0.000 A 
ATOM     26  C   UNL     1       1.036   9.499  19.896  0.00  0.00    +0.000 A 
ATOM     27  C   UNL     1       1.220   8.502  20.832  0.00  0.00    +0.000 A 
ATOM     28  C   UNL     1       1.898   7.329  20.544  0.00  0.00    +0.000 A 
ATOM     29  O   UNL     1       0.673   8.835  22.064  0.00  0.00    +0.000 OA
ATOM     30  C   UNL     1       0.295  10.173  21.890  0.00  0.00    +0.000 A 
ATOM     31  O   UNL     1      -0.097  10.876  22.809  0.00  0.00    +0.000 OA
ATOM     32  N   UNL     1       0.459  10.552  20.574  0.00  0.00    +0.000 N 
ATOM     33  C   UNL     1       0.160  11.849  20.041  0.00  0.00    +0.000 C 
ENDBRANCH  20  23
ENDBRANCH   5  20
TORSDOF 6
ENDMDL
MODEL 2
REMARK VINA RESULT:     -10.0      1.052      1.208
REMARK  Name = 
REMARK  8 active torsions:
REMARK  status: ('A' for Active; 'I' for Inactive)
REMARK    1  A    between atoms: C_1  and  C_2
REMARK    2  A    between atoms: C_6  and  C_7
REMARK    3  A    between atoms: C_7  and  C_8
REMARK    4  A    between atoms: C_8  and  N_9
REMARK    5  A    between atoms: C_10  and  C_12
REMARK    6  A    between atoms: N_16  and  S_17
REMARK    7  A    between atoms: S_17  and  C_20
REMARK    8  A    between atoms: N_29  and  C_30
REMARK                            x       y       z     vdW  Elec       q    Type
REMARK                         _______ _______ _______ _____ _____    ______ ____
ROOT
ATOM      1  C   UNL     1       7.111   5.778  18.174  0.00  0.00    +0.000 C 
ATOM      2  C   UNL     1       7.446   4.749  17.094  0.00  0.00    +0.000 C 
ATOM      3  C   UNL     1       6.271   4.348  16.205  0.00  0.00    +0.000 C 
ATOM      4  C   UNL     1       4.979   4.131  16.988  0.00  0.00    +0.000 C 
ATOM      5  N   UNL     1       4.612   5.373  17.738  0.00  0.00    +0.000 NA
ATOM      6  C   UNL     1       5.694   5.716  18.742  0.00  0.00    +0.000 C 
ENDROOT
BRANCH   1   8
ATOM      7  N   UNL     1       8.341   7.836  18.670  0.00  0.00    +0.000 N 
ATOM      8  C   UNL     1       7.495   7.193  17.795  0.00  0.00    +0.000 C 
ATOM      9  O   UNL     1       7.096   7.721  16.762  0.00  0.00    +0.000 OA
ATOM     10  H   UNL     1       8.870   7.250  19.309  0.00  0.00    +0.000 HD
BRANCH   7  11
ATOM     11  C   UNL     1       8.901   9.123  18.318  0.00  0.00    +0.000 C 
BRANCH  11  12
ATOM     12  C   UNL     1       9.166   9.975  19.551  0.00  0.00    +0.000 C 
BRANCH  12  18
ATOM     13  C   UNL     1      11.360  13.149  16.313  0.00  0.00    +0.000 C 
ATOM     14  C   UNL     1      11.222  12.572  17.689  0.00  0.00    +0.000 A 
ATOM     15  C   UNL     1      12.078  12.964  18.718  0.00  0.00    +0.000 A 
ATOM     16  C   UNL     1      11.810  12.636  20.044  0.00  0.00    +0.000 A 
ATOM     17  C   UNL     1      10.796  11.735  20.330  0.00  0.00    +0.000 A 
ATOM     18  C   UNL     1      10.071  11.152  19.283  0.00  0.00    +0.000 A 
ATOM     19  C   UNL     1      10.240  11.626  17.975  0.00  0.00    +0.000 A 
ENDBRANCH  12  18
ENDBRANCH  11  12
ENDBRANCH   7  11
ENDBRANCH   1   8
BRANCH   5  20
ATOM     20  S   UNL     1       3.074   5.230  18.579  0.00  0.00    +0.000 S 
ATOM     21  O   UNL     1       2.103   4.712  17.622  0.00  0.00    +0.000 OA
ATOM     22  O   UNL     1       3.314   4.526  19.823  0.00  0.00    +0.000 OA
BRANCH  20  23
ATOM     23  C   UNL     1       2.545   6.870  19.059  0.00  0.00    +0.000 A 
ATOM     24  C   UNL     1       2.279   7.855  18.078  0.00  0.00    +0.000 A 
ATOM     25  C   UNL     1       1.658   9.072  18.422  0.00  0.00    +0.000 A 
ATOM     26  C   UNL     1       1.267   9.241  19.732  0.00  0.00    +0.000 A 
ATOM     27  C   UNL     1       1.443   8.242  20.667  0.00  0.00    +0.000 A 
ATOM     28  C   UNL     1       2.105   7.060  20.376  0.00  0.00    +0.000 A 
ATOM     29  O   UNL     1       0.905   8.580  21.901  0.00  0.00    +0.000 OA
ATOM     30  C   UNL     1       0.542   9.924  21.729  0.00  0.00    +0.000 A 
ATOM     31  O   UNL     1       0.162  10.631  22.650  0.00  0.00    +0.000 OA
ATOM     32  N   UNL     1       0.705  10.300  20.412  0.00  0.00    +0.000 N 
ATOM     33  C   UNL     1       0.420  11.601  19.880  0.00  0.00    +0.000 C 
ENDBRANCH  20  23
ENDBRANCH   5  20
TORSDOF 6
ENDMDL
MODEL 3
REMARK VINA RESULT:      -9.7      1.169      1.592
REMARK  Name = 
REMARK  8 active torsions:
REMARK  status: ('A' for Active; 'I' for Inactive)
REMARK    1  A    between atoms: C_1  and  C_2
REMARK    2  A    between atoms: C_6  and  C_7
REMARK    3  A    between atoms: C_7  and  C_8
REMARK    4  A    between atoms: C_8  and  N_9
REMARK    5  A    between atoms: C_10  and  C_12
REMARK    6  A    between atoms: N_16  and  S_17
REMARK    7  A    between atoms: S_17  and  C_20
REMARK    8  A    between atoms: N_29  and  C_30
REMARK                            x       y       z     vdW  Elec       q    Type
REMARK                         _______ _______ _______ _____ _____    ______ ____
ROOT
ATOM      1  C   UNL     1       7.053   5.695  18.227  0.00  0.00    +0.000 C 
ATOM      2  C   UNL     1       7.388   4.631  17.183  0.00  0.00    +0.000 C 
ATOM      3  C   UNL     1       6.216   4.205  16.302  0.00  0.00    +0.000 C 
ATOM      4  C   UNL     1       4.921   4.018  17.086  0.00  0.00    +0.000 C 
ATOM      5  N   UNL     1       4.554   5.285  17.794  0.00  0.00    +0.000 NA
ATOM      6  C   UNL     1       5.633   5.656  18.790  0.00  0.00    +0.000 C 
ENDROOT
BRANCH   1   8
ATOM      7  N   UNL     1       8.313   7.753  18.646  0.00  0.00    +0.000 N 
ATOM      8  C   UNL     1       7.443   7.097  17.805  0.00  0.00    +0.000 C 
ATOM      9  O   UNL     1       7.028   7.602  16.767  0.00  0.00    +0.000 OA
ATOM     10  H   UNL     1       8.848   7.177  19.289  0.00  0.00    +0.000 HD
BRANCH   7  11
ATOM     11  C   UNL     1       8.878   9.024  18.250  0.00  0.00    +0.000 C 
BRANCH  11  12
ATOM     12  C   UNL     1       9.061   9.952  19.442  0.00  0.00    +0.000 C 
BRANCH  12  18
ATOM     13  C   UNL     1      10.772  14.502  20.764  0.00  0.00    +0.000 C 
ATOM     14  C   UNL     1      10.525  13.447  19.728  0.00  0.00    +0.000 A 
ATOM     15  C   UNL     1      10.817  13.682  18.385  0.00  0.00    +0.000 A 
ATOM     16  C   UNL     1      10.832  12.643  17.458  0.00  0.00    +0.000 A 
ATOM     17  C   UNL     1      10.351  11.396  17.826  0.00  0.00    +0.000 A 
ATOM     18  C   UNL     1       9.837  11.204  19.115  0.00  0.00    +0.000 A 
ATOM     19  C   UNL     1       9.991  12.209  20.080  0.00  0.00    +0.000 A 
ENDBRANCH  12  18
ENDBRANCH  11  12
ENDBRANCH   7  11
ENDBRANCH   1   8
BRANCH   5  20
ATOM     20  S   UNL     1       3.012   5.173  18.632  0.00  0.00    +0.000 S 
ATOM     21  O   UNL     1       2.033   4.671  17.675  0.00  0.00    +0.000 OA
ATOM     22  O   UNL     1       3.236   4.469  19.878  0.00  0.00    +0.000 OA
BRANCH  20  23
ATOM     23  C   UNL     1       2.513   6.825  19.106  0.00  0.00    +0.000 A 
ATOM     24  C   UNL     1       2.273   7.813  18.122  0.00  0.00    +0.000 A 
ATOM     25  C   UNL     1       1.676   9.044  18.459  0.00  0.00    +0.000 A 
ATOM     26  C   UNL     1       1.280   9.222  19.767  0.00  0.00    +0.000 A 
ATOM     27  C   UNL     1       1.429   8.222  20.704  0.00  0.00    +0.000 A 
ATOM     28  C   UNL     1       2.069   7.026  20.420  0.00  0.00    +0.000 A 
ATOM     29  O   UNL     1       0.890   8.574  21.934  0.00  0.00    +0.000 OA
ATOM     30  C   UNL     1       0.556   9.924  21.758  0.00  0.00    +0.000 A 
ATOM     31  O   UNL     1       0.185  10.640  22.675  0.00  0.00    +0.000 OA
ATOM     32  N   UNL     1       0.735  10.294  20.441  0.00  0.00    +0.000 N 
ATOM     33  C   UNL     1       0.480  11.599  19.905  0.00  0.00    +0.000 C 
ENDBRANCH  20  23
ENDBRANCH   5  20
TORSDOF 6
ENDMDL
MODEL 4
REMARK VINA RESULT:      -9.6      1.679      2.035
REMARK  Name = 
REMARK  8 active torsions:
REMARK  status: ('A' for Active; 'I' for Inactive)
REMARK    1  A    between atoms: C_1  and  C_2
REMARK    2  A    between atoms: C_6  and  C_7
REMARK    3  A    between atoms: C_7  and  C_8
REMARK    4  A    between atoms: C_8  and  N_9
REMARK    5  A    between atoms: C_10  and  C_12
REMARK    6  A    between atoms: N_16  and  S_17
REMARK    7  A    between atoms: S_17  and  C_20
REMARK    8  A    between atoms: N_29  and  C_30
REMARK                            x       y       z     vdW  Elec       q    Type
REMARK                         _______ _______ _______ _____ _____    ______ ____
ROOT
ATOM      1  C   UNL     1       7.046   5.643  17.650  0.00  0.00    +0.000 C 
ATOM      2  C   UNL     1       7.304   4.851  16.369  0.00  0.00    +0.000 C 
ATOM      3  C   UNL     1       6.047   4.435  15.607  0.00  0.00    +0.000 C 
ATOM      4  C   UNL     1       4.939   3.924  16.524  0.00  0.00    +0.000 C 
ATOM      5  N   UNL     1       4.569   4.972  17.526  0.00  0.00    +0.000 NA
ATOM      6  C   UNL     1       5.761   5.300  18.402  0.00  0.00    +0.000 C 
ENDROOT
BRANCH   1   8
ATOM      7  N   UNL     1       8.112   7.748  18.306  0.00  0.00    +0.000 N 
ATOM      8  C   UNL     1       7.201   7.140  17.473  0.00  0.00    +0.000 C 
ATOM      9  O   UNL     1       6.572   7.763  16.623  0.00  0.00    +0.000 OA
ATOM     10  H   UNL     1       8.805   7.146  18.742  0.00  0.00    +0.000 HD
BRANCH   7  11
ATOM     11  C   UNL     1       8.458   9.138  18.105  0.00  0.00    +0.000 C 
BRANCH  11  12
ATOM     12  C   UNL     1       9.152   9.725  19.327  0.00  0.00    +0.000 C 
BRANCH  12  18
ATOM     13  C   UNL     1      11.403  13.244  16.512  0.00  0.00    +0.000 C 
ATOM     14  C   UNL     1      10.819  12.787  17.814  0.00  0.00    +0.000 A 
ATOM     15  C   UNL     1      10.870  13.600  18.946  0.00  0.00    +0.000 A 
ATOM     16  C   UNL     1      10.121  13.303  20.081  0.00  0.00    +0.000 A 
ATOM     17  C   UNL     1       9.477  12.080  20.171  0.00  0.00    +0.000 A 
ATOM     18  C   UNL     1       9.605  11.150  19.131  0.00  0.00    +0.000 A 
ATOM     19  C   UNL     1      10.216  11.535  17.929  0.00  0.00    +0.000 A 
ENDBRANCH  12  18
ENDBRANCH  11  12
ENDBRANCH   7  11
ENDBRANCH   1   8
BRANCH   5  20
ATOM     20  S   UNL     1       3.221   4.490  18.547  0.00  0.00    +0.000 S 
ATOM     21  O   UNL     1       2.308   3.709  17.721  0.00  0.00    +0.000 OA
ATOM     22  O   UNL     1       3.769   3.920  19.761  0.00  0.00    +0.000 OA
BRANCH  20  23
ATOM     23  C   UNL     1       2.358   5.968  19.067  0.00  0.00    +0.000 A 
ATOM     24  C   UNL     1       1.923   6.113  20.406  0.00  0.00    +0.000 A 
ATOM     25  C   UNL     1       1.440   7.348  20.882  0.00  0.00    +0.000 A 
ATOM     26  C   UNL     1       1.464   8.419  20.016  0.00  0.00    +0.000 A 
ATOM     27  C   UNL     1       1.976   8.298  18.741  0.00  0.00    +0.000 A 
ATOM     28  C   UNL     1       2.400   7.085  18.222  0.00  0.00    +0.000 A 
ATOM     29  O   UNL     1       1.986   9.511  18.065  0.00  0.00    +0.000 OA
ATOM     30  C   UNL     1       1.283  10.361  18.931  0.00  0.00    +0.000 A 
ATOM     31  O   UNL     1       0.948  11.494  18.620  0.00  0.00    +0.000 OA
ATOM     32  N   UNL     1       1.023   9.720  20.125  0.00  0.00    +0.000 N 
ATOM     33  C   UNL     1       0.332  10.297  21.241  0.00  0.00    +0.000 C 
ENDBRANCH  20  23
ENDBRANCH   5  20
TORSDOF 6
ENDMDL
MODEL 5
REMARK VINA RESULT:      -9.6      1.861      2.379
REMARK  Name = 
REMARK  8 active torsions:
REMARK  status: ('A' for Active; 'I' for Inactive)
REMARK    1  A    between atoms: C_1  and  C_2
REMARK    2  A    between atoms: C_6  and  C_7
REMARK    3  A    between atoms: C_7  and  C_8
REMARK    4  A    between atoms: C_8  and  N_9
REMARK    5  A    between atoms: C_10  and  C_12
REMARK    6  A    between atoms: N_16  and  S_17
REMARK    7  A    between atoms: S_17  and  C_20
REMARK    8  A    between atoms: N_29  and  C_30
REMARK                            x       y       z     vdW  Elec       q    Type
REMARK                         _______ _______ _______ _____ _____    ______ ____
ROOT
ATOM      1  C   UNL     1       6.991   5.557  17.682  0.00  0.00    +0.000 C 
ATOM      2  C   UNL     1       7.449   4.697  16.505  0.00  0.00    +0.000 C 
ATOM      3  C   UNL     1       6.320   4.153  15.631  0.00  0.00    +0.000 C 
ATOM      4  C   UNL     1       5.136   3.638  16.443  0.00  0.00    +0.000 C 
ATOM      5  N   UNL     1       4.588   4.726  17.312  0.00  0.00    +0.000 NA
ATOM      6  C   UNL     1       5.643   5.186  18.298  0.00  0.00    +0.000 C 
ENDROOT
BRANCH   1   8
ATOM      7  N   UNL     1       7.979   7.737  18.200  0.00  0.00    +0.000 N 
ATOM      8  C   UNL     1       7.087   7.045  17.413  0.00  0.00    +0.000 C 
ATOM      9  O   UNL     1       6.429   7.590  16.532  0.00  0.00    +0.000 OA
ATOM     10  H   UNL     1       8.697   7.190  18.666  0.00  0.00    +0.000 HD
BRANCH   7  11
ATOM     11  C   UNL     1       8.270   9.124  17.912  0.00  0.00    +0.000 C 
BRANCH  11  12
ATOM     12  C   UNL     1       9.148   9.748  18.988  0.00  0.00    +0.000 C 
BRANCH  12  18
ATOM     13  C   UNL     1       8.529  14.652  18.017  0.00  0.00    +0.000 C 
ATOM     14  C   UNL     1       9.367  13.409  17.993  0.00  0.00    +0.000 A 
ATOM     15  C   UNL     1      10.632  13.411  17.408  0.00  0.00    +0.000 A 
ATOM     16  C   UNL     1      11.516  12.351  17.598  0.00  0.00    +0.000 A 
ATOM     17  C   UNL     1      11.064  11.188  18.201  0.00  0.00    +0.000 A 
ATOM     18  C   UNL     1       9.722  11.085  18.591  0.00  0.00    +0.000 A 
ATOM     19  C   UNL     1       8.900  12.220  18.550  0.00  0.00    +0.000 A 
ENDBRANCH  12  18
ENDBRANCH  11  12
ENDBRANCH   7  11
ENDBRANCH   1   8
BRANCH   5  20
ATOM     20  S   UNL     1       3.151   4.232  18.197  0.00  0.00    +0.000 S 
ATOM     21  O   UNL     1       2.241   3.617  17.238  0.00  0.00    +0.000 OA
ATOM     22  O   UNL     1       3.585   3.492  19.364  0.00  0.00    +0.000 OA
BRANCH  20  23
ATOM     23  C   UNL     1       2.357   5.702  18.837  0.00  0.00    +0.000 A 
ATOM     24  C   UNL     1       2.076   5.822  20.219  0.00  0.00    +0.000 A 
ATOM     25  C   UNL     1       1.653   7.049  20.769  0.00  0.00    +0.000 A 
ATOM     26  C   UNL     1       1.584   8.136  19.926  0.00  0.00    +0.000 A 
ATOM     27  C   UNL     1       1.949   8.038  18.599  0.00  0.00    +0.000 A 
ATOM     28  C   UNL     1       2.308   6.834  18.013  0.00  0.00    +0.000 A 
ATOM     29  O   UNL     1       1.887   9.263  17.948  0.00  0.00    +0.000 OA
ATOM     30  C   UNL     1       1.289  10.098  18.903  0.00  0.00    +0.000 A 
ATOM     31  O   UNL     1       0.925  11.237  18.653  0.00  0.00    +0.000 OA
ATOM     32  N   UNL     1       1.163   9.435  20.107  0.00  0.00    +0.000 N 
ATOM     33  C   UNL     1       0.603   9.992  21.304  0.00  0.00    +0.000 C 
ENDBRANCH  20  23
ENDBRANCH   5  20
TORSDOF 6
ENDMDL
MODEL 6
REMARK VINA RESULT:      -9.5      1.322      1.669
REMARK  Name = 
REMARK  8 active torsions:
REMARK  status: ('A' for Active; 'I' for Inactive)
REMARK    1  A    between atoms: C_1  and  C_2
REMARK    2  A    between atoms: C_6  and  C_7
REMARK    3  A    between atoms: C_7  and  C_8
REMARK    4  A    between atoms: C_8  and  N_9
REMARK    5  A    between atoms: C_10  and  C_12
REMARK    6  A    between atoms: N_16  and  S_17
REMARK    7  A    between atoms: S_17  and  C_20
REMARK    8  A    between atoms: N_29  and  C_30
REMARK                            x       y       z     vdW  Elec       q    Type
REMARK                         _______ _______ _______ _____ _____    ______ ____
ROOT
ATOM      1  C   UNL     1       7.032   4.602  17.914  0.00  0.00    +0.000 C 
ATOM      2  C   UNL     1       7.105   4.733  16.393  0.00  0.00    +0.000 C 
ATOM      3  C   UNL     1       5.899   5.413  15.749  0.00  0.00    +0.000 C 
ATOM      4  C   UNL     1       4.570   4.949  16.338  0.00  0.00    +0.000 C 
ATOM      5  N   UNL     1       4.537   5.207  17.813  0.00  0.00    +0.000 NA
ATOM      6  C   UNL     1       5.633   4.423  18.504  0.00  0.00    +0.000 C 
ENDROOT
BRANCH   1   8
ATOM      7  N   UNL     1       7.816   6.917  18.057  0.00  0.00    +0.000 N 
ATOM      8  C   UNL     1       7.809   5.674  18.649  0.00  0.00    +0.000 C 
ATOM      9  O   UNL     1       8.375   5.453  19.715  0.00  0.00    +0.000 OA
ATOM     10  H   UNL     1       7.087   7.103  17.375  0.00  0.00    +0.000 HD
BRANCH   7  11
ATOM     11  C   UNL     1       8.384   8.047  18.760  0.00  0.00    +0.000 C 
BRANCH  11  12
ATOM     12  C   UNL     1       8.413   9.293  17.885  0.00  0.00    +0.000 C 
BRANCH  12  18
ATOM     13  C   UNL     1      10.521  13.859  17.597  0.00  0.00    +0.000 C 
ATOM     14  C   UNL     1      10.196  12.615  18.366  0.00  0.00    +0.000 A 
ATOM     15  C   UNL     1      10.668  12.433  19.666  0.00  0.00    +0.000 A 
ATOM     16  C   UNL     1      10.175  11.414  20.476  0.00  0.00    +0.000 A 
ATOM     17  C   UNL     1       9.359  10.440  19.924  0.00  0.00    +0.000 A 
ATOM     18  C   UNL     1       9.059  10.480  18.556  0.00  0.00    +0.000 A 
ATOM     19  C   UNL     1       9.420  11.604  17.800  0.00  0.00    +0.000 A 
ENDBRANCH  12  18
ENDBRANCH  11  12
ENDBRANCH   7  11
ENDBRANCH   1   8
BRANCH   5  20
ATOM     20  S   UNL     1       2.990   4.794  18.540  0.00  0.00    +0.000 S 
ATOM     21  O   UNL     1       2.169   4.187  17.499  0.00  0.00    +0.000 OA
ATOM     22  O   UNL     1       3.257   4.071  19.767  0.00  0.00    +0.000 OA
BRANCH  20  23
ATOM     23  C   UNL     1       2.190   6.311  19.050  0.00  0.00    +0.000 A 
ATOM     24  C   UNL     1       1.818   6.508  20.401  0.00  0.00    +0.000 A 
ATOM     25  C   UNL     1       1.390   7.770  20.859  0.00  0.00    +0.000 A 
ATOM     26  C   UNL     1       1.406   8.813  19.960  0.00  0.00    +0.000 A 
ATOM     27  C   UNL     1       1.858   8.640  18.668  0.00  0.00    +0.000 A 
ATOM     28  C   UNL     1       2.226   7.401  18.170  0.00  0.00    +0.000 A 
ATOM     29  O   UNL     1       1.871   9.831  17.955  0.00  0.00    +0.000 OA
ATOM     30  C   UNL     1       1.230  10.727  18.823  0.00  0.00    +0.000 A 
ATOM     31  O   UNL     1       0.912  11.859  18.493  0.00  0.00    +0.000 OA
ATOM     32  N   UNL     1       1.005  10.129  20.047  0.00  0.00    +0.000 N 
ATOM     33  C   UNL     1       0.379  10.758  21.173  0.00  0.00    +0.000 C 
ENDBRANCH  20  23
ENDBRANCH   5  20
TORSDOF 6
ENDMDL
MODEL 7
REMARK VINA RESULT:      -9.3      1.280      2.021
REMARK  Name = 
REMARK  8 active torsions:
REMARK  status: ('A' for Active; 'I' for Inactive)
REMARK    1  A    between atoms: C_1  and  C_2
REMARK    2  A    between atoms: C_6  and  C_7
REMARK    3  A    between atoms: C_7  and  C_8
REMARK    4  A    between atoms: C_8  and  N_9
REMARK    5  A    between atoms: C_10  and  C_12
REMARK    6  A    between atoms: N_16  and  S_17
REMARK    7  A    between atoms: S_17  and  C_20
REMARK    8  A    between atoms: N_29  and  C_30
REMARK                            x       y       z     vdW  Elec       q    Type
REMARK                         _______ _______ _______ _____ _____    ______ ____
ROOT
ATOM      1  C   UNL     1       7.036   4.663  17.895  0.00  0.00    +0.000 C 
ATOM      2  C   UNL     1       7.069   4.862  16.380  0.00  0.00    +0.000 C 
ATOM      3  C   UNL     1       5.851   5.578  15.801  0.00  0.00    +0.000 C 
ATOM      4  C   UNL     1       4.535   5.096  16.405  0.00  0.00    +0.000 C 
ATOM      5  N   UNL     1       4.543   5.288  17.889  0.00  0.00    +0.000 NA
ATOM      6  C   UNL     1       5.652   4.467  18.514  0.00  0.00    +0.000 C 
ENDROOT
BRANCH   1   8
ATOM      7  N   UNL     1       7.890   6.950  18.088  0.00  0.00    +0.000 N 
ATOM      8  C   UNL     1       7.841   5.697  18.655  0.00  0.00    +0.000 C 
ATOM      9  O   UNL     1       8.391   5.437  19.721  0.00  0.00    +0.000 OA
ATOM     10  H   UNL     1       7.172   7.171  17.405  0.00  0.00    +0.000 HD
BRANCH   7  11
ATOM     11  C   UNL     1       8.488   8.048  18.816  0.00  0.00    +0.000 C 
BRANCH  11  12
ATOM     12  C   UNL     1       8.407   9.350  18.031  0.00  0.00    +0.000 C 
BRANCH  12  18
ATOM     13  C   UNL     1       9.646  12.419  21.829  0.00  0.00    +0.000 C 
ATOM     14  C   UNL     1       9.755  12.005  20.392  0.00  0.00    +0.000 A 
ATOM     15  C   UNL     1      10.504  12.756  19.487  0.00  0.00    +0.000 A 
ATOM     16  C   UNL     1      10.821  12.257  18.226  0.00  0.00    +0.000 A 
ATOM     17  C   UNL     1      10.214  11.093  17.782  0.00  0.00    +0.000 A 
ATOM     18  C   UNL     1       9.276  10.446  18.597  0.00  0.00    +0.000 A 
ATOM     19  C   UNL     1       9.104  10.865  19.923  0.00  0.00    +0.000 A 
ENDBRANCH  12  18
ENDBRANCH  11  12
ENDBRANCH   7  11
ENDBRANCH   1   8
BRANCH   5  20
ATOM     20  S   UNL     1       3.014   4.853  18.639  0.00  0.00    +0.000 S 
ATOM     21  O   UNL     1       2.196   4.210  17.617  0.00  0.00    +0.000 OA
ATOM     22  O   UNL     1       3.310   4.157  19.875  0.00  0.00    +0.000 OA
BRANCH  20  23
ATOM     23  C   UNL     1       2.185   6.360  19.133  0.00  0.00    +0.000 A 
ATOM     24  C   UNL     1       1.759   6.540  20.470  0.00  0.00    +0.000 A 
ATOM     25  C   UNL     1       1.305   7.794  20.924  0.00  0.00    +0.000 A 
ATOM     26  C   UNL     1       1.351   8.848  20.038  0.00  0.00    +0.000 A 
ATOM     27  C   UNL     1       1.855   8.691  18.763  0.00  0.00    +0.000 A 
ATOM     28  C   UNL     1       2.250   7.459  18.267  0.00  0.00    +0.000 A 
ATOM     29  O   UNL     1       1.890   9.890  18.064  0.00  0.00    +0.000 OA
ATOM     30  C   UNL     1       1.210  10.772  18.916  0.00  0.00    +0.000 A 
ATOM     31  O   UNL     1       0.899  11.906  18.585  0.00  0.00    +0.000 OA
ATOM     32  N   UNL     1       0.939  10.161  20.123  0.00  0.00    +0.000 N 
ATOM     33  C   UNL     1       0.264  10.774  21.229  0.00  0.00    +0.000 C 
ENDBRANCH  20  23
ENDBRANCH   5  20
TORSDOF 6
ENDMDL
MODEL 8
REMARK VINA RESULT:      -9.3      1.137      1.385
REMARK  Name = 
REMARK  8 active torsions:
REMARK  status: ('A' for Active; 'I' for Inactive)
REMARK    1  A    between atoms: C_1  and  C_2
REMARK    2  A    between atoms: C_6  and  C_7
REMARK    3  A    between atoms: C_7  and  C_8
REMARK    4  A    between atoms: C_8  and  N_9
REMARK    5  A    between atoms: C_10  and  C_12
REMARK    6  A    between atoms: N_16  and  S_17
REMARK    7  A    between atoms: S_17  and  C_20
REMARK    8  A    between atoms: N_29  and  C_30
REMARK                            x       y       z     vdW  Elec       q    Type
REMARK                         _______ _______ _______ _____ _____    ______ ____
ROOT
ATOM      1  C   UNL     1       6.813   5.050  17.660  0.00  0.00    +0.000 C 
ATOM      2  C   UNL     1       6.684   4.263  16.356  0.00  0.00    +0.000 C 
ATOM      3  C   UNL     1       5.333   4.395  15.658  0.00  0.00    +0.000 C 
ATOM      4  C   UNL     1       4.155   4.324  16.625  0.00  0.00    +0.000 C 
ATOM      5  N   UNL     1       4.267   5.399  17.661  0.00  0.00    +0.000 NA
ATOM      6  C   UNL     1       5.530   5.208  18.476  0.00  0.00    +0.000 C 
ENDROOT
BRANCH   1   8
ATOM      7  N   UNL     1       7.892   7.005  18.665  0.00  0.00    +0.000 N 
ATOM      8  C   UNL     1       7.531   6.373  17.496  0.00  0.00    +0.000 C 
ATOM      9  O   UNL     1       7.795   6.838  16.392  0.00  0.00    +0.000 OA
ATOM     10  H   UNL     1       7.931   6.430  19.502  0.00  0.00    +0.000 HD
BRANCH   7  11
ATOM     11  C   UNL     1       8.728   8.184  18.619  0.00  0.00    +0.000 C 
BRANCH  11  12
ATOM     12  C   UNL     1       7.983   9.377  18.036  0.00  0.00    +0.000 C 
BRANCH  12  18
ATOM     13  C   UNL     1      11.831  12.030  19.914  0.00  0.00    +0.000 C 
ATOM     14  C   UNL     1      10.524  11.959  19.183  0.00  0.00    +0.000 A 
ATOM     15  C   UNL     1       9.870  13.120  18.772  0.00  0.00    +0.000 A 
ATOM     16  C   UNL     1       8.799  13.068  17.884  0.00  0.00    +0.000 A 
ATOM     17  C   UNL     1       8.240  11.841  17.563  0.00  0.00    +0.000 A 
ATOM     18  C   UNL     1       8.744  10.674  18.151  0.00  0.00    +0.000 A 
ATOM     19  C   UNL     1       9.926  10.732  18.902  0.00  0.00    +0.000 A 
ENDBRANCH  12  18
ENDBRANCH  11  12
ENDBRANCH   7  11
ENDBRANCH   1   8
BRANCH   5  20
ATOM     20  S   UNL     1       2.885   5.444  18.747  0.00  0.00    +0.000 S 
ATOM     21  O   UNL     1       1.783   4.765  18.075  0.00  0.00    +0.000 OA
ATOM     22  O   UNL     1       3.330   4.992  20.049  0.00  0.00    +0.000 OA
BRANCH  20  23
ATOM     23  C   UNL     1       2.412   7.155  18.977  0.00  0.00    +0.000 A 
ATOM     24  C   UNL     1       2.178   7.992  17.861  0.00  0.00    +0.000 A 
ATOM     25  C   UNL     1       1.600   9.267  18.019  0.00  0.00    +0.000 A 
ATOM     26  C   UNL     1       1.216   9.640  19.288  0.00  0.00    +0.000 A 
ATOM     27  C   UNL     1       1.358   8.784  20.361  0.00  0.00    +0.000 A 
ATOM     28  C   UNL     1       1.980   7.551  20.250  0.00  0.00    +0.000 A 
ATOM     29  O   UNL     1       0.833   9.319  21.530  0.00  0.00    +0.000 OA
ATOM     30  C   UNL     1       0.516  10.634  21.161  0.00  0.00    +0.000 A 
ATOM     31  O   UNL     1       0.161  11.482  21.965  0.00  0.00    +0.000 OA
ATOM     32  N   UNL     1       0.691  10.806  19.803  0.00  0.00    +0.000 N 
ATOM     33  C   UNL     1       0.449  12.023  19.084  0.00  0.00    +0.000 C 
ENDBRANCH  20  23
ENDBRANCH   5  20
TORSDOF 6
ENDMDL
MODEL 9
REMARK VINA RESULT:      -8.9      0.850      1.458
REMARK  Name = 
REMARK  8 active torsions:
REMARK  status: ('A' for Active; 'I' for Inactive)
REMARK    1  A    between atoms: C_1  and  C_2
REMARK    2  A    between atoms: C_6  and  C_7
REMARK    3  A    between atoms: C_7  and  C_8
REMARK    4  A    between atoms: C_8  and  N_9
REMARK    5  A    between atoms: C_10  and  C_12
REMARK    6  A    between atoms: N_16  and  S_17
REMARK    7  A    between atoms: S_17  and  C_20
REMARK    8  A    between atoms: N_29  and  C_30
REMARK                            x       y       z     vdW  Elec       q    Type
REMARK                         _______ _______ _______ _____ _____    ______ ____
ROOT
ATOM      1  C   UNL     1       6.974   5.113  18.159  0.00  0.00    +0.000 C 
ATOM      2  C   UNL     1       7.079   4.513  16.757  0.00  0.00    +0.000 C 
ATOM      3  C   UNL     1       5.854   4.733  15.873  0.00  0.00    +0.000 C 
ATOM      4  C   UNL     1       4.538   4.523  16.616  0.00  0.00    +0.000 C 
ATOM      5  N   UNL     1       4.453   5.445  17.792  0.00  0.00    +0.000 NA
ATOM      6  C   UNL     1       5.573   5.149  18.768  0.00  0.00    +0.000 C 
ENDROOT
BRANCH   1   8
ATOM      7  N   UNL     1       7.329   7.401  17.361  0.00  0.00    +0.000 N 
ATOM      8  C   UNL     1       7.673   6.450  18.295  0.00  0.00    +0.000 C 
ATOM      9  O   UNL     1       8.474   6.676  19.197  0.00  0.00    +0.000 OA
ATOM     10  H   UNL     1       6.455   7.257  16.864  0.00  0.00    +0.000 HD
BRANCH   7  11
ATOM     11  C   UNL     1       7.809   8.758  17.503  0.00  0.00    +0.000 C 
BRANCH  11  12
ATOM     12  C   UNL     1       8.753   8.897  18.689  0.00  0.00    +0.000 C 
BRANCH  12  18
ATOM     13  C   UNL     1       9.576  12.637  21.961  0.00  0.00    +0.000 C 
ATOM     14  C   UNL     1       9.406  12.141  20.557  0.00  0.00    +0.000 A 
ATOM     15  C   UNL     1       9.405  13.027  19.480  0.00  0.00    +0.000 A 
ATOM     16  C   UNL     1       9.502  12.569  18.169  0.00  0.00    +0.000 A 
ATOM     17  C   UNL     1       9.387  11.212  17.913  0.00  0.00    +0.000 A 
ATOM     18  C   UNL     1       9.155  10.323  18.971  0.00  0.00    +0.000 A 
ATOM     19  C   UNL     1       9.236  10.783  20.292  0.00  0.00    +0.000 A 
ENDBRANCH  12  18
ENDBRANCH  11  12
ENDBRANCH   7  11
ENDBRANCH   1   8
BRANCH   5  20
ATOM     20  S   UNL     1       2.913   5.333  18.634  0.00  0.00    +0.000 S 
ATOM     21  O   UNL     1       1.932   4.830  17.679  0.00  0.00    +0.000 OA
ATOM     22  O   UNL     1       3.141   4.629  19.879  0.00  0.00    +0.000 OA
BRANCH  20  23
ATOM     23  C   UNL     1       2.415   6.984  19.110  0.00  0.00    +0.000 A 
ATOM     24  C   UNL     1       2.164   7.970  18.126  0.00  0.00    +0.000 A 
ATOM     25  C   UNL     1       1.566   9.199  18.467  0.00  0.00    +0.000 A 
ATOM     26  C   UNL     1       1.182   9.380  19.778  0.00  0.00    +0.000 A 
ATOM     27  C   UNL     1       1.343   8.381  20.716  0.00  0.00    +0.000 A 
ATOM     28  C   UNL     1       1.983   7.186  20.427  0.00  0.00    +0.000 A 
ATOM     29  O   UNL     1       0.815   8.734  21.950  0.00  0.00    +0.000 OA
ATOM     30  C   UNL     1       0.475  10.083  21.775  0.00  0.00    +0.000 A 
ATOM     31  O   UNL     1       0.112  10.800  22.694  0.00  0.00    +0.000 OA
ATOM     32  N   UNL     1       0.642  10.451  20.456  0.00  0.00    +0.000 N 
ATOM     33  C   UNL     1       0.378  11.755  19.920  0.00  0.00    +0.000 C 
ENDBRANCH  20  23
ENDBRANCH   5  20
TORSDOF 6
ENDMDL
