MODEL 1
REMARK VINA RESULT:      -7.0      0.000      0.000
REMARK  Name = 
REMARK  6 active torsions:
REMARK  status: ('A' for Active; 'I' for Inactive)
REMARK    1  A    between atoms: C_1  and  C_2
REMARK    2  A    between atoms: C_9  and  C_10
REMARK    3  A    between atoms: C_11  and  C_12
REMARK    4  A    between atoms: C_14  and  C_15
REMARK    5  A    between atoms: C_23  and  C_24
REMARK    6  A    between atoms: C_24  and  C_25
REMARK                            x       y       z     vdW  Elec       q    Type
REMARK                         _______ _______ _______ _____ _____    ______ ____
ROOT
ATOM      1  C   UNL     1      -6.226  12.982  22.185  0.00  0.00    +0.000 C 
ATOM      2  C   UNL     1      -5.859  12.475  20.844  0.00  0.00    +0.000 A 
ATOM      3  N   UNL     1      -6.771  11.826  20.100  0.00  0.00    +0.000 NA
ATOM      4  O   UNL     1      -6.114  11.451  18.936  0.00  0.00    +0.000 OA
ATOM      5  C   UNL     1      -4.825  11.868  18.996  0.00  0.00    +0.000 A 
ATOM      6  C   UNL     1      -4.610  12.512  20.187  0.00  0.00    +0.000 A 
ATOM      7  C   UNL     1      -3.293  13.116  20.508  0.00  0.00    +0.000 A 
ATOM      8  S   UNL     1      -3.120  14.457  21.531  0.00  0.00    +0.000 S 
ATOM      9  C   UNL     1      -1.463  14.609  21.181  0.00  0.00    +0.000 A 
ATOM     10  C   UNL     1      -0.689  15.746  21.768  0.00  0.00    +0.000 C 
ATOM     11  C   UNL     1      -1.003  13.587  20.360  0.00  0.00    +0.000 A 
ATOM     12  C   UNL     1       0.430  13.469  19.923  0.00  0.00    +0.000 C 
ATOM     13  C   UNL     1      -2.081  12.663  19.991  0.00  0.00    +0.000 A 
ATOM     14  C   UNL     1      -1.926  11.384  19.257  0.00  0.00    +0.000 C 
ATOM     15  N   UNL     1      -2.725  10.933  18.353  0.00  0.00    +0.000 NA
ATOM     16  C   UNL     1      -3.899  11.657  17.860  0.00  0.00    +0.000 C 
ENDROOT
BRANCH  14  17
ATOM     17  C   UNL     1      -0.775  10.500  19.614  0.00  0.00    +0.000 A 
ATOM     18  C   UNL     1      -0.566  10.063  20.929  0.00  0.00    +0.000 A 
ATOM     19  C   UNL     1       0.549   9.284  21.237  0.00  0.00    +0.000 A 
ATOM     20  C   UNL     1       1.431   8.900  20.225  0.00  0.00    +0.000 A 
ATOM     21  C   UNL     1       1.190   9.288  18.908  0.00  0.00    +0.000 A 
ATOM     22 CL   UNL     1       2.263   8.783  17.662  0.00  0.00    +0.000 Cl
ATOM     23  C   UNL     1       0.093  10.085  18.595  0.00  0.00    +0.000 A 
ENDBRANCH  14  17
BRANCH  16  24
ATOM     24  C   UNL     1      -4.515  10.830  16.724  0.00  0.00    +0.000 C 
BRANCH  24  25
ATOM     25  C   UNL     1      -3.575  10.730  15.545  0.00  0.00    +0.000 C 
ATOM     26  N   UNL     1      -2.464  11.520  15.638  0.00  0.00    +0.000 N 
ATOM     27  O   UNL     1      -3.716   9.971  14.596  0.00  0.00    +0.000 OA
ATOM     28  H   UNL     1      -2.251  12.083  16.450  0.00  0.00    +0.000 HD
ATOM     29  H   UNL     1      -1.795  11.479  14.880  0.00  0.00    +0.000 HD
ENDBRANCH  24  25
ENDBRANCH  16  24
TORSDOF 3
ENDMDL
MODEL 2
REMARK VINA RESULT:      -6.9      1.510      1.786
REMARK  Name = 
REMARK  6 active torsions:
REMARK  status: ('A' for Active; 'I' for Inactive)
REMARK    1  A    between atoms: C_1  and  C_2
REMARK    2  A    between atoms: C_9  and  C_10
REMARK    3  A    between atoms: C_11  and  C_12
REMARK    4  A    between atoms: C_14  and  C_15
REMARK    5  A    between atoms: C_23  and  C_24
REMARK    6  A    between atoms: C_24  and  C_25
REMARK                            x       y       z     vdW  Elec       q    Type
REMARK                         _______ _______ _______ _____ _____    ______ ____
ROOT
ATOM      1  C   UNL     1      -3.838  13.850  23.605  0.00  0.00    +0.000 C 
ATOM      2  C   UNL     1      -3.922  13.276  22.244  0.00  0.00    +0.000 A 
ATOM      3  N   UNL     1      -5.113  12.893  21.750  0.00  0.00    +0.000 NA
ATOM      4  O   UNL     1      -4.852  12.369  20.492  0.00  0.00    +0.000 OA
ATOM      5  C   UNL     1      -3.520  12.438  20.247  0.00  0.00    +0.000 A 
ATOM      6  C   UNL     1      -2.886  12.994  21.329  0.00  0.00    +0.000 A 
ATOM      7  C   UNL     1      -1.421  13.231  21.323  0.00  0.00    +0.000 A 
ATOM      8  S   UNL     1      -0.688  14.474  22.215  0.00  0.00    +0.000 S 
ATOM      9  C   UNL     1       0.832  14.192  21.503  0.00  0.00    +0.000 A 
ATOM     10  C   UNL     1       1.981  15.084  21.850  0.00  0.00    +0.000 C 
ATOM     11  C   UNL     1       0.820  13.094  20.654  0.00  0.00    +0.000 A 
ATOM     12  C   UNL     1       2.039  12.611  19.921  0.00  0.00    +0.000 C 
ATOM     13  C   UNL     1      -0.513  12.484  20.577  0.00  0.00    +0.000 A 
ATOM     14  C   UNL     1      -0.858  11.215  19.892  0.00  0.00    +0.000 C 
ATOM     15  N   UNL     1      -1.926  10.995  19.208  0.00  0.00    +0.000 NA
ATOM     16  C   UNL     1      -2.957  12.002  18.948  0.00  0.00    +0.000 C 
ENDROOT
BRANCH  14  17
ATOM     17  C   UNL     1       0.079  10.059  20.032  0.00  0.00    +0.000 A 
ATOM     18  C   UNL     1       0.217   9.369  21.245  0.00  0.00    +0.000 A 
ATOM     19  C   UNL     1       1.141   8.330  21.356  0.00  0.00    +0.000 A 
ATOM     20  C   UNL     1       1.895   7.947  20.246  0.00  0.00    +0.000 A 
ATOM     21  C   UNL     1       1.717   8.598  19.025  0.00  0.00    +0.000 A 
ATOM     22 CL   UNL     1       2.627   8.099  17.653  0.00  0.00    +0.000 Cl
ATOM     23  C   UNL     1       0.814   9.651  18.911  0.00  0.00    +0.000 A 
ENDBRANCH  14  17
BRANCH  16  24
ATOM     24  C   UNL     1      -4.002  11.374  18.018  0.00  0.00    +0.000 C 
BRANCH  24  25
ATOM     25  C   UNL     1      -3.483  11.263  16.603  0.00  0.00    +0.000 C 
ATOM     26  N   UNL     1      -2.234  11.787  16.416  0.00  0.00    +0.000 N 
ATOM     27  O   UNL     1      -4.060  10.701  15.683  0.00  0.00    +0.000 OA
ATOM     28  H   UNL     1      -1.674  12.166  17.167  0.00  0.00    +0.000 HD
ATOM     29  H   UNL     1      -1.834  11.726  15.489  0.00  0.00    +0.000 HD
ENDBRANCH  24  25
ENDBRANCH  16  24
TORSDOF 3
ENDMDL
MODEL 3
REMARK VINA RESULT:      -6.5      1.827      2.234
REMARK  Name = 
REMARK  6 active torsions:
REMARK  status: ('A' for Active; 'I' for Inactive)
REMARK    1  A    between atoms: C_1  and  C_2
REMARK    2  A    between atoms: C_9  and  C_10
REMARK    3  A    between atoms: C_11  and  C_12
REMARK    4  A    between atoms: C_14  and  C_15
REMARK    5  A    between atoms: C_23  and  C_24
REMARK    6  A    between atoms: C_24  and  C_25
REMARK                            x       y       z     vdW  Elec       q    Type
REMARK                         _______ _______ _______ _____ _____    ______ ____
ROOT
ATOM      1  C   UNL     1      -7.597  12.008  22.325  0.00  0.00    +0.000 C 
ATOM      2  C   UNL     1      -6.944  11.870  21.003  0.00  0.00    +0.000 A 
ATOM      3  N   UNL     1      -7.515  11.115  20.049  0.00  0.00    +0.000 NA
ATOM      4  O   UNL     1      -6.652  11.157  18.963  0.00  0.00    +0.000 OA
ATOM      5  C   UNL     1      -5.579  11.925  19.276  0.00  0.00    +0.000 A 
ATOM      6  C   UNL     1      -5.710  12.392  20.559  0.00  0.00    +0.000 A 
ATOM      7  C   UNL     1      -4.698  13.298  21.155  0.00  0.00    +0.000 A 
ATOM      8  S   UNL     1      -5.075  14.435  22.356  0.00  0.00    +0.000 S 
ATOM      9  C   UNL     1      -3.526  15.133  22.290  0.00  0.00    +0.000 A 
ATOM     10  C   UNL     1      -3.225  16.332  23.132  0.00  0.00    +0.000 C 
ATOM     11  C   UNL     1      -2.678  14.452  21.427  0.00  0.00    +0.000 A 
ATOM     12  C   UNL     1      -1.244  14.844  21.207  0.00  0.00    +0.000 C 
ATOM     13  C   UNL     1      -3.357  13.324  20.780  0.00  0.00    +0.000 A 
ATOM     14  C   UNL     1      -2.723  12.295  19.921  0.00  0.00    +0.000 C 
ATOM     15  N   UNL     1      -3.233  11.787  18.853  0.00  0.00    +0.000 NA
ATOM     16  C   UNL     1      -4.517  12.198  18.280  0.00  0.00    +0.000 C 
ENDROOT
BRANCH  14  17
ATOM     17  C   UNL     1      -1.396  11.749  20.336  0.00  0.00    +0.000 A 
ATOM     18  C   UNL     1      -0.247  11.940  19.555  0.00  0.00    +0.000 A 
ATOM     19  C   UNL     1       0.965  11.369  19.945  0.00  0.00    +0.000 A 
ATOM     20  C   UNL     1       1.043  10.648  21.137  0.00  0.00    +0.000 A 
ATOM     21  C   UNL     1      -0.087  10.507  21.941  0.00  0.00    +0.000 A 
ATOM     22 CL   UNL     1       0.025   9.644  23.425  0.00  0.00    +0.000 Cl
ATOM     23  C   UNL     1      -1.306  11.053  21.549  0.00  0.00    +0.000 A 
ENDBRANCH  14  17
BRANCH  16  24
ATOM     24  C   UNL     1      -4.711  11.431  16.966  0.00  0.00    +0.000 C 
BRANCH  24  25
ATOM     25  C   UNL     1      -3.447  10.708  16.561  0.00  0.00    +0.000 C 
ATOM     26  N   UNL     1      -2.479  11.515  16.031  0.00  0.00    +0.000 N 
ATOM     27  O   UNL     1      -3.231   9.517  16.734  0.00  0.00    +0.000 OA
ATOM     28  H   UNL     1      -2.569  12.519  15.965  0.00  0.00    +0.000 HD
ATOM     29  H   UNL     1      -1.607  11.082  15.755  0.00  0.00    +0.000 HD
ENDBRANCH  24  25
ENDBRANCH  16  24
TORSDOF 3
ENDMDL
MODEL 4
REMARK VINA RESULT:      -6.5      1.304      1.600
REMARK  Name = 
REMARK  6 active torsions:
REMARK  status: ('A' for Active; 'I' for Inactive)
REMARK    1  A    between atoms: C_1  and  C_2
REMARK    2  A    between atoms: C_9  and  C_10
REMARK    3  A    between atoms: C_11  and  C_12
REMARK    4  A    between atoms: C_14  and  C_15
REMARK    5  A    between atoms: C_23  and  C_24
REMARK    6  A    between atoms: C_24  and  C_25
REMARK                            x       y       z     vdW  Elec       q    Type
REMARK                         _______ _______ _______ _____ _____    ______ ____
ROOT
ATOM      1  C   UNL     1      -6.152  13.804  22.203  0.00  0.00    +0.000 C 
ATOM      2  C   UNL     1      -5.793  13.137  20.932  0.00  0.00    +0.000 A 
ATOM      3  N   UNL     1      -6.729  12.466  20.239  0.00  0.00    +0.000 NA
ATOM      4  O   UNL     1      -6.077  11.932  19.136  0.00  0.00    +0.000 OA
ATOM      5  C   UNL     1      -4.766  12.280  19.182  0.00  0.00    +0.000 A 
ATOM      6  C   UNL     1      -4.534  13.034  20.304  0.00  0.00    +0.000 A 
ATOM      7  C   UNL     1      -3.189  13.592  20.589  0.00  0.00    +0.000 A 
ATOM      8  S   UNL     1      -2.955  15.023  21.469  0.00  0.00    +0.000 S 
ATOM      9  C   UNL     1      -1.286  15.041  21.144  0.00  0.00    +0.000 A 
ATOM     10  C   UNL     1      -0.456  16.189  21.626  0.00  0.00    +0.000 C 
ATOM     11  C   UNL     1      -0.873  13.914  20.445  0.00  0.00    +0.000 A 
ATOM     12  C   UNL     1       0.557  13.668  20.056  0.00  0.00    +0.000 C 
ATOM     13  C   UNL     1      -1.997  13.019  20.151  0.00  0.00    +0.000 A 
ATOM     14  C   UNL     1      -1.906  11.663  19.559  0.00  0.00    +0.000 C 
ATOM     15  N   UNL     1      -2.714  11.164  18.689  0.00  0.00    +0.000 NA
ATOM     16  C   UNL     1      -3.835  11.897  18.096  0.00  0.00    +0.000 C 
ENDROOT
BRANCH  14  17
ATOM     17  C   UNL     1      -0.815  10.757  20.033  0.00  0.00    +0.000 A 
ATOM     18  C   UNL     1       0.097  10.177  19.140  0.00  0.00    +0.000 A 
ATOM     19  C   UNL     1       1.068   9.293  19.611  0.00  0.00    +0.000 A 
ATOM     20  C   UNL     1       1.161   9.023  20.978  0.00  0.00    +0.000 A 
ATOM     21  C   UNL     1       0.289   9.645  21.870  0.00  0.00    +0.000 A 
ATOM     22 CL   UNL     1       0.430   9.333  23.556  0.00  0.00    +0.000 Cl
ATOM     23  C   UNL     1      -0.698  10.510  21.408  0.00  0.00    +0.000 A 
ENDBRANCH  14  17
BRANCH  16  24
ATOM     24  C   UNL     1      -4.480  10.991  17.039  0.00  0.00    +0.000 C 
BRANCH  24  25
ATOM     25  C   UNL     1      -3.529  10.715  15.898  0.00  0.00    +0.000 C 
ATOM     26  N   UNL     1      -2.468  11.574  15.824  0.00  0.00    +0.000 N 
ATOM     27  O   UNL     1      -3.617   9.775  15.120  0.00  0.00    +0.000 OA
ATOM     28  H   UNL     1      -2.295  12.299  16.506  0.00  0.00    +0.000 HD
ATOM     29  H   UNL     1      -1.794  11.424  15.086  0.00  0.00    +0.000 HD
ENDBRANCH  24  25
ENDBRANCH  16  24
TORSDOF 3
ENDMDL
MODEL 5
REMARK VINA RESULT:      -6.4      1.306      1.640
REMARK  Name = 
REMARK  6 active torsions:
REMARK  status: ('A' for Active; 'I' for Inactive)
REMARK    1  A    between atoms: C_1  and  C_2
REMARK    2  A    between atoms: C_9  and  C_10
REMARK    3  A    between atoms: C_11  and  C_12
REMARK    4  A    between atoms: C_14  and  C_15
REMARK    5  A    between atoms: C_23  and  C_24
REMARK    6  A    between atoms: C_24  and  C_25
REMARK                            x       y       z     vdW  Elec       q    Type
REMARK                         _______ _______ _______ _____ _____    ______ ____
ROOT
ATOM      1  C   UNL     1      -4.643  13.245  23.077  0.00  0.00    +0.000 C 
ATOM      2  C   UNL     1      -4.676  12.761  21.678  0.00  0.00    +0.000 A 
ATOM      3  N   UNL     1      -5.802  12.219  21.183  0.00  0.00    +0.000 NA
ATOM      4  O   UNL     1      -5.499  11.835  19.884  0.00  0.00    +0.000 OA
ATOM      5  C   UNL     1      -4.205  12.142  19.618  0.00  0.00    +0.000 A 
ATOM      6  C   UNL     1      -3.637  12.720  20.724  0.00  0.00    +0.000 A 
ATOM      7  C   UNL     1      -2.233  13.199  20.705  0.00  0.00    +0.000 A 
ATOM      8  S   UNL     1      -1.686  14.481  21.671  0.00  0.00    +0.000 S 
ATOM      9  C   UNL     1      -0.165  14.508  20.910  0.00  0.00    +0.000 A 
ATOM     10  C   UNL     1       0.832  15.553  21.297  0.00  0.00    +0.000 C 
ATOM     11  C   UNL     1      -0.023  13.484  19.982  0.00  0.00    +0.000 A 
ATOM     12  C   UNL     1       1.235  13.263  19.191  0.00  0.00    +0.000 C 
ATOM     13  C   UNL     1      -1.238  12.667  19.889  0.00  0.00    +0.000 A 
ATOM     14  C   UNL     1      -1.391  11.409  19.119  0.00  0.00    +0.000 C 
ATOM     15  N   UNL     1      -2.430  11.061  18.443  0.00  0.00    +0.000 NA
ATOM     16  C   UNL     1      -3.621  11.897  18.279  0.00  0.00    +0.000 C 
ENDROOT
BRANCH  14  17
ATOM     17  C   UNL     1      -0.272  10.419  19.155  0.00  0.00    +0.000 A 
ATOM     18  C   UNL     1       0.418  10.049  17.992  0.00  0.00    +0.000 A 
ATOM     19  C   UNL     1       1.421   9.081  18.054  0.00  0.00    +0.000 A 
ATOM     20  C   UNL     1       1.769   8.515  19.282  0.00  0.00    +0.000 A 
ATOM     21  C   UNL     1       1.120   8.926  20.446  0.00  0.00    +0.000 A 
ATOM     22 CL   UNL     1       1.577   8.249  21.960  0.00  0.00    +0.000 Cl
ATOM     23  C   UNL     1       0.103   9.874  20.391  0.00  0.00    +0.000 A 
ENDBRANCH  14  17
BRANCH  16  24
ATOM     24  C   UNL     1      -4.578  11.169  17.327  0.00  0.00    +0.000 C 
BRANCH  24  25
ATOM     25  C   UNL     1      -3.849  10.645  16.111  0.00  0.00    +0.000 C 
ATOM     26  N   UNL     1      -3.041  11.560  15.497  0.00  0.00    +0.000 N 
ATOM     27  O   UNL     1      -3.890   9.491  15.709  0.00  0.00    +0.000 OA
ATOM     28  H   UNL     1      -2.892  12.495  15.853  0.00  0.00    +0.000 HD
ATOM     29  H   UNL     1      -2.519  11.256  14.685  0.00  0.00    +0.000 HD
ENDBRANCH  24  25
ENDBRANCH  16  24
TORSDOF 3
ENDMDL
MODEL 6
REMARK VINA RESULT:      -6.3      2.850      5.478
REMARK  Name = 
REMARK  6 active torsions:
REMARK  status: ('A' for Active; 'I' for Inactive)
REMARK    1  A    between atoms: C_1  and  C_2
REMARK    2  A    between atoms: C_9  and  C_10
REMARK    3  A    between atoms: C_11  and  C_12
REMARK    4  A    between atoms: C_14  and  C_15
REMARK    5  A    between atoms: C_23  and  C_24
REMARK    6  A    between atoms: C_24  and  C_25
REMARK                            x       y       z     vdW  Elec       q    Type
REMARK                         _______ _______ _______ _____ _____    ______ ____
ROOT
ATOM      1  C   UNL     1      -3.827  10.783  15.628  0.00  0.00    +0.000 C 
ATOM      2  C   UNL     1      -4.202  11.315  16.957  0.00  0.00    +0.000 A 
ATOM      3  N   UNL     1      -5.465  11.710  17.189  0.00  0.00    +0.000 NA
ATOM      4  O   UNL     1      -5.482  12.187  18.493  0.00  0.00    +0.000 OA
ATOM      5  C   UNL     1      -4.238  12.081  19.022  0.00  0.00    +0.000 A 
ATOM      6  C   UNL     1      -3.389  11.545  18.088  0.00  0.00    +0.000 A 
ATOM      7  C   UNL     1      -1.966  11.273  18.409  0.00  0.00    +0.000 A 
ATOM      8  S   UNL     1      -1.073  10.043  17.656  0.00  0.00    +0.000 S 
ATOM      9  C   UNL     1       0.256  10.267  18.695  0.00  0.00    +0.000 A 
ATOM     10  C   UNL     1       1.439   9.359  18.579  0.00  0.00    +0.000 C 
ATOM     11  C   UNL     1       0.074  11.338  19.560  0.00  0.00    +0.000 A 
ATOM     12  C   UNL     1       1.108  11.769  20.560  0.00  0.00    +0.000 C 
ATOM     13  C   UNL     1      -1.233  11.975  19.362  0.00  0.00    +0.000 A 
ATOM     14  C   UNL     1      -1.701  13.230  20.000  0.00  0.00    +0.000 C 
ATOM     15  N   UNL     1      -2.892  13.453  20.438  0.00  0.00    +0.000 NA
ATOM     16  C   UNL     1      -3.970  12.462  20.428  0.00  0.00    +0.000 C 
ENDROOT
BRANCH  14  17
ATOM     17  C   UNL     1      -0.739  14.367  20.111  0.00  0.00    +0.000 A 
ATOM     18  C   UNL     1      -0.114  14.913  18.981  0.00  0.00    +0.000 A 
ATOM     19  C   UNL     1       0.821  15.938  19.127  0.00  0.00    +0.000 A 
ATOM     20  C   UNL     1       1.099  16.452  20.394  0.00  0.00    +0.000 A 
ATOM     21  C   UNL     1       0.435  15.946  21.511  0.00  0.00    +0.000 A 
ATOM     22 CL   UNL     1       0.758  16.607  23.066  0.00  0.00    +0.000 Cl
ATOM     23  C   UNL     1      -0.482  14.909  21.378  0.00  0.00    +0.000 A 
ENDBRANCH  14  17
BRANCH  16  24
ATOM     24  C   UNL     1      -5.185  13.085  21.127  0.00  0.00    +0.000 C 
BRANCH  24  25
ATOM     25  C   UNL     1      -5.273  12.646  22.570  0.00  0.00    +0.000 C 
ATOM     26  N   UNL     1      -4.067  12.390  23.159  0.00  0.00    +0.000 N 
ATOM     27  O   UNL     1      -6.306  12.576  23.222  0.00  0.00    +0.000 OA
ATOM     28  H   UNL     1      -3.181  12.536  22.694  0.00  0.00    +0.000 HD
ATOM     29  H   UNL     1      -4.069  12.106  24.130  0.00  0.00    +0.000 HD
ENDBRANCH  24  25
ENDBRANCH  16  24
TORSDOF 3
ENDMDL
MODEL 7
REMARK VINA RESULT:      -6.3      2.446      5.184
REMARK  Name = 
REMARK  6 active torsions:
REMARK  status: ('A' for Active; 'I' for Inactive)
REMARK    1  A    between atoms: C_1  and  C_2
REMARK    2  A    between atoms: C_9  and  C_10
REMARK    3  A    between atoms: C_11  and  C_12
REMARK    4  A    between atoms: C_14  and  C_15
REMARK    5  A    between atoms: C_23  and  C_24
REMARK    6  A    between atoms: C_24  and  C_25
REMARK                            x       y       z     vdW  Elec       q    Type
REMARK                         _______ _______ _______ _____ _____    ______ ____
ROOT
ATOM      1  C   UNL     1      -2.928  10.781  15.410  0.00  0.00    +0.000 C 
ATOM      2  C   UNL     1      -3.756  11.212  16.559  0.00  0.00    +0.000 A 
ATOM      3  N   UNL     1      -5.051  11.519  16.374  0.00  0.00    +0.000 NA
ATOM      4  O   UNL     1      -5.528  11.917  17.615  0.00  0.00    +0.000 OA
ATOM      5  C   UNL     1      -4.523  11.851  18.522  0.00  0.00    +0.000 A 
ATOM      6  C   UNL     1      -3.377  11.420  17.903  0.00  0.00    +0.000 A 
ATOM      7  C   UNL     1      -2.123  11.211  18.666  0.00  0.00    +0.000 A 
ATOM      8  S   UNL     1      -0.944  10.081  18.207  0.00  0.00    +0.000 S 
ATOM      9  C   UNL     1      -0.050  10.318  19.635  0.00  0.00    +0.000 A 
ATOM     10  C   UNL     1       1.169   9.488  19.883  0.00  0.00    +0.000 C 
ATOM     11  C   UNL     1      -0.584  11.324  20.429  0.00  0.00    +0.000 A 
ATOM     12  C   UNL     1       0.031  11.754  21.731  0.00  0.00    +0.000 C 
ATOM     13  C   UNL     1      -1.796  11.896  19.834  0.00  0.00    +0.000 A 
ATOM     14  C   UNL     1      -2.539  13.082  20.326  0.00  0.00    +0.000 C 
ATOM     15  N   UNL     1      -3.820  13.211  20.354  0.00  0.00    +0.000 NA
ATOM     16  C   UNL     1      -4.759  12.163  19.951  0.00  0.00    +0.000 C 
ENDROOT
BRANCH  14  17
ATOM     17  C   UNL     1      -1.752  14.265  20.792  0.00  0.00    +0.000 A 
ATOM     18  C   UNL     1      -1.856  14.744  22.105  0.00  0.00    +0.000 A 
ATOM     19  C   UNL     1      -1.148  15.884  22.489  0.00  0.00    +0.000 A 
ATOM     20  C   UNL     1      -0.301  16.518  21.580  0.00  0.00    +0.000 A 
ATOM     21  C   UNL     1      -0.156  16.006  20.291  0.00  0.00    +0.000 A 
ATOM     22 CL   UNL     1       0.916  16.774  19.186  0.00  0.00    +0.000 Cl
ATOM     23  C   UNL     1      -0.874  14.884  19.891  0.00  0.00    +0.000 A 
ENDBRANCH  14  17
BRANCH  16  24
ATOM     24  C   UNL     1      -6.179  12.673  20.231  0.00  0.00    +0.000 C 
BRANCH  24  25
ATOM     25  C   UNL     1      -7.056  11.577  20.790  0.00  0.00    +0.000 C 
ATOM     26  N   UNL     1      -7.659  10.795  19.845  0.00  0.00    +0.000 N 
ATOM     27  O   UNL     1      -7.193  11.324  21.979  0.00  0.00    +0.000 OA
ATOM     28  H   UNL     1      -7.492  10.898  18.853  0.00  0.00    +0.000 HD
ATOM     29  H   UNL     1      -8.246  10.038  20.167  0.00  0.00    +0.000 HD
ENDBRANCH  24  25
ENDBRANCH  16  24
TORSDOF 3
ENDMDL
MODEL 8
REMARK VINA RESULT:      -6.3      1.850      2.420
REMARK  Name = 
REMARK  6 active torsions:
REMARK  status: ('A' for Active; 'I' for Inactive)
REMARK    1  A    between atoms: C_1  and  C_2
REMARK    2  A    between atoms: C_9  and  C_10
REMARK    3  A    between atoms: C_11  and  C_12
REMARK    4  A    between atoms: C_14  and  C_15
REMARK    5  A    between atoms: C_23  and  C_24
REMARK    6  A    between atoms: C_24  and  C_25
REMARK                            x       y       z     vdW  Elec       q    Type
REMARK                         _______ _______ _______ _____ _____    ______ ____
ROOT
ATOM      1  C   UNL     1      -4.500  13.528  24.057  0.00  0.00    +0.000 C 
ATOM      2  C   UNL     1      -4.763  13.032  22.688  0.00  0.00    +0.000 A 
ATOM      3  N   UNL     1      -5.935  12.438  22.404  0.00  0.00    +0.000 NA
ATOM      4  O   UNL     1      -5.855  12.057  21.071  0.00  0.00    +0.000 OA
ATOM      5  C   UNL     1      -4.645  12.417  20.576  0.00  0.00    +0.000 A 
ATOM      6  C   UNL     1      -3.912  13.028  21.562  0.00  0.00    +0.000 A 
ATOM      7  C   UNL     1      -2.557  13.567  21.290  0.00  0.00    +0.000 A 
ATOM      8  S   UNL     1      -1.902  14.879  22.141  0.00  0.00    +0.000 S 
ATOM      9  C   UNL     1      -0.546  14.965  21.118  0.00  0.00    +0.000 A 
ATOM     10  C   UNL     1       0.458  16.056  21.319  0.00  0.00    +0.000 C 
ATOM     11  C   UNL     1      -0.528  13.941  20.180  0.00  0.00    +0.000 A 
ATOM     12  C   UNL     1       0.575  13.768  19.175  0.00  0.00    +0.000 C 
ATOM     13  C   UNL     1      -1.703  13.072  20.308  0.00  0.00    +0.000 A 
ATOM     14  C   UNL     1      -1.937  11.802  19.578  0.00  0.00    +0.000 C 
ATOM     15  N   UNL     1      -3.065  11.404  19.101  0.00  0.00    +0.000 NA
ATOM     16  C   UNL     1      -4.301  12.187  19.154  0.00  0.00    +0.000 C 
ENDROOT
BRANCH  14  17
ATOM     17  C   UNL     1      -0.787  10.862  19.412  0.00  0.00    +0.000 A 
ATOM     18  C   UNL     1      -0.242  10.585  18.150  0.00  0.00    +0.000 A 
ATOM     19  C   UNL     1       0.794   9.660  18.026  0.00  0.00    +0.000 A 
ATOM     20  C   UNL     1       1.321   9.045  19.163  0.00  0.00    +0.000 A 
ATOM     21  C   UNL     1       0.815   9.365  20.423  0.00  0.00    +0.000 A 
ATOM     22 CL   UNL     1       1.490   8.628  21.823  0.00  0.00    +0.000 Cl
ATOM     23  C   UNL     1      -0.234  10.268  20.555  0.00  0.00    +0.000 A 
ENDBRANCH  14  17
BRANCH  16  24
ATOM     24  C   UNL     1      -5.381  11.410  18.390  0.00  0.00    +0.000 C 
BRANCH  24  25
ATOM     25  C   UNL     1      -6.392  12.344  17.767  0.00  0.00    +0.000 C 
ATOM     26  N   UNL     1      -7.583  12.417  18.434  0.00  0.00    +0.000 N 
ATOM     27  O   UNL     1      -6.189  13.051  16.790  0.00  0.00    +0.000 OA
ATOM     28  H   UNL     1      -7.760  11.934  19.305  0.00  0.00    +0.000 HD
ATOM     29  H   UNL     1      -8.290  13.039  18.066  0.00  0.00    +0.000 HD
ENDBRANCH  24  25
ENDBRANCH  16  24
TORSDOF 3
ENDMDL
MODEL 9
REMARK VINA RESULT:      -6.3      2.773      5.422
REMARK  Name = 
REMARK  6 active torsions:
REMARK  status: ('A' for Active; 'I' for Inactive)
REMARK    1  A    between atoms: C_1  and  C_2
REMARK    2  A    between atoms: C_9  and  C_10
REMARK    3  A    between atoms: C_11  and  C_12
REMARK    4  A    between atoms: C_14  and  C_15
REMARK    5  A    between atoms: C_23  and  C_24
REMARK    6  A    between atoms: C_24  and  C_25
REMARK                            x       y       z     vdW  Elec       q    Type
REMARK                         _______ _______ _______ _____ _____    ______ ____
ROOT
ATOM      1  C   UNL     1      -3.064  10.906  15.450  0.00  0.00    +0.000 C 
ATOM      2  C   UNL     1      -3.873  11.325  16.617  0.00  0.00    +0.000 A 
ATOM      3  N   UNL     1      -5.165  11.657  16.454  0.00  0.00    +0.000 NA
ATOM      4  O   UNL     1      -5.622  12.035  17.708  0.00  0.00    +0.000 OA
ATOM      5  C   UNL     1      -4.608  11.933  18.602  0.00  0.00    +0.000 A 
ATOM      6  C   UNL     1      -3.476  11.498  17.961  0.00  0.00    +0.000 A 
ATOM      7  C   UNL     1      -2.217  11.253  18.705  0.00  0.00    +0.000 A 
ATOM      8  S   UNL     1      -1.062  10.114  18.208  0.00  0.00    +0.000 S 
ATOM      9  C   UNL     1      -0.148  10.307  19.630  0.00  0.00    +0.000 A 
ATOM     10  C   UNL     1       1.061   9.452  19.847  0.00  0.00    +0.000 C 
ATOM     11  C   UNL     1      -0.657  11.303  20.452  0.00  0.00    +0.000 A 
ATOM     12  C   UNL     1      -0.021  11.695  21.756  0.00  0.00    +0.000 C 
ATOM     13  C   UNL     1      -1.867  11.907  19.883  0.00  0.00    +0.000 A 
ATOM     14  C   UNL     1      -2.584  13.094  20.410  0.00  0.00    +0.000 C 
ATOM     15  N   UNL     1      -3.863  13.242  20.455  0.00  0.00    +0.000 NA
ATOM     16  C   UNL     1      -4.823  12.217  20.040  0.00  0.00    +0.000 C 
ENDROOT
BRANCH  14  17
ATOM     17  C   UNL     1      -1.774  14.253  20.892  0.00  0.00    +0.000 A 
ATOM     18  C   UNL     1      -0.870  14.917  20.050  0.00  0.00    +0.000 A 
ATOM     19  C   UNL     1      -0.089  15.960  20.549  0.00  0.00    +0.000 A 
ATOM     20  C   UNL     1      -0.242  16.373  21.873  0.00  0.00    +0.000 A 
ATOM     21  C   UNL     1      -1.182  15.749  22.693  0.00  0.00    +0.000 A 
ATOM     22 CL   UNL     1      -1.388  16.285  24.314  0.00  0.00    +0.000 Cl
ATOM     23  C   UNL     1      -1.948  14.692  22.211  0.00  0.00    +0.000 A 
ENDBRANCH  14  17
BRANCH  16  24
ATOM     24  C   UNL     1      -6.231  12.744  20.346  0.00  0.00    +0.000 C 
BRANCH  24  25
ATOM     25  C   UNL     1      -7.125  11.645  20.874  0.00  0.00    +0.000 C 
ATOM     26  N   UNL     1      -7.704  10.872  19.906  0.00  0.00    +0.000 N 
ATOM     27  O   UNL     1      -7.296  11.384  22.056  0.00  0.00    +0.000 OA
ATOM     28  H   UNL     1      -7.510  10.982  18.920  0.00  0.00    +0.000 HD
ATOM     29  H   UNL     1      -8.301  10.113  20.206  0.00  0.00    +0.000 HD
ENDBRANCH  24  25
ENDBRANCH  16  24
TORSDOF 3
ENDMDL
