MODEL 1
REMARK VINA RESULT:      -8.7      0.000      0.000
REMARK  Name = 
REMARK  6 active torsions:
REMARK  status: ('A' for Active; 'I' for Inactive)
REMARK    1  A    between atoms: S_2  and  C_4
REMARK    2  A    between atoms: S_2  and  N_15
REMARK    3  A    between atoms: C_7  and  N_8
REMARK    4  A    between atoms: C_20  and  C_21
REMARK    5  A    between atoms: C_21  and  O_22
REMARK    6  A    between atoms: C_21  and  C_23
REMARK                            x       y       z     vdW  Elec       q    Type
REMARK                         _______ _______ _______ _____ _____    ______ ____
ROOT
ATOM      1  N   UNL     1       1.206   9.294  19.465  0.00  0.00    +0.000 NA
ATOM      2  C   UNL     1       1.191   8.371  20.623  0.00  0.00    +0.000 C 
ATOM      3  C   UNL     1       1.878   7.148  20.105  0.00  0.00    +0.000 A 
ATOM      4  C   UNL     1       2.176   5.959  20.719  0.00  0.00    +0.000 A 
ATOM      5  N   UNL     1       2.746   4.931  20.046  0.00  0.00    +0.000 NA
ATOM      6  C   UNL     1       2.968   5.083  18.698  0.00  0.00    +0.000 A 
ATOM      7  C   UNL     1       2.736   6.282  18.025  0.00  0.00    +0.000 A 
ATOM      8  C   UNL     1       2.251   7.333  18.776  0.00  0.00    +0.000 A 
ATOM      9  C   UNL     1       2.118   8.780  18.425  0.00  0.00    +0.000 C 
ENDROOT
BRANCH   1  11
ATOM     10  O   UNL     1       1.719  11.582  18.599  0.00  0.00    +0.000 OA
ATOM     11  S   UNL     1       0.967  10.923  19.641  0.00  0.00    +0.000 S 
ATOM     12  O   UNL     1       1.131  11.269  21.035  0.00  0.00    +0.000 OA
BRANCH  11  13
ATOM     13  C   UNL     1      -0.754  11.142  19.226  0.00  0.00    +0.000 A 
ATOM     14  C   UNL     1      -1.357  10.368  18.238  0.00  0.00    +0.000 A 
ATOM     15  C   UNL     1      -2.710  10.572  17.937  0.00  0.00    +0.000 A 
ATOM     16  C   UNL     1      -3.457  11.544  18.622  0.00  0.00    +0.000 A 
ATOM     17  C   UNL     1      -2.837  12.314  19.618  0.00  0.00    +0.000 A 
ATOM     18  C   UNL     1      -1.494  12.101  19.930  0.00  0.00    +0.000 A 
BRANCH  16  19
ATOM     19  N   UNL     1      -4.840  11.742  18.328  0.00  0.00    +0.000 N 
ATOM     20  C   UNL     1      -5.916  11.469  19.146  0.00  0.00    +0.000 A 
ATOM     21  C   UNL     1      -7.036  11.850  18.447  0.00  0.00    +0.000 A 
ATOM     22  N   UNL     1      -6.701  12.333  17.218  0.00  0.00    +0.000 NA
ATOM     23  C   UNL     1      -5.389  12.257  17.171  0.00  0.00    +0.000 A 
ENDBRANCH  16  19
ENDBRANCH  11  13
ENDBRANCH   1  11
BRANCH   6  24
ATOM     24  C   UNL     1       3.650   3.926  17.969  0.00  0.00    +0.000 C 
BRANCH  24  25
ATOM     25  C   UNL     1       4.901   4.266  17.185  0.00  0.00    +0.000 A 
ATOM     26  C   UNL     1       6.100   4.557  17.859  0.00  0.00    +0.000 A 
ATOM     27  C   UNL     1       7.286   4.778  17.151  0.00  0.00    +0.000 A 
ATOM     28  C   UNL     1       7.291   4.712  15.760  0.00  0.00    +0.000 A 
ATOM     29  C   UNL     1       6.110   4.433  15.075  0.00  0.00    +0.000 A 
ATOM     30  C   UNL     1       4.924   4.214  15.782  0.00  0.00    +0.000 A 
ENDBRANCH  24  25
BRANCH  24  31
ATOM     31  O   UNL     1       2.714   3.321  17.065  0.00  0.00    +0.000 OA
ATOM     32  H   UNL     1       2.909   2.366  17.112  0.00  0.00    +0.000 HD
ENDBRANCH  24  31
ENDBRANCH   6  24
TORSDOF 6
ENDMDL
MODEL 2
REMARK VINA RESULT:      -8.7      0.144      1.236
REMARK  Name = 
REMARK  6 active torsions:
REMARK  status: ('A' for Active; 'I' for Inactive)
REMARK    1  A    between atoms: S_2  and  C_4
REMARK    2  A    between atoms: S_2  and  N_15
REMARK    3  A    between atoms: C_7  and  N_8
REMARK    4  A    between atoms: C_20  and  C_21
REMARK    5  A    between atoms: C_21  and  O_22
REMARK    6  A    between atoms: C_21  and  C_23
REMARK                            x       y       z     vdW  Elec       q    Type
REMARK                         _______ _______ _______ _____ _____    ______ ____
ROOT
ATOM      1  N   UNL     1       1.196   9.286  19.471  0.00  0.00    +0.000 NA
ATOM      2  C   UNL     1       1.195   8.377  20.639  0.00  0.00    +0.000 C 
ATOM      3  C   UNL     1       1.828   7.127  20.112  0.00  0.00    +0.000 A 
ATOM      4  C   UNL     1       2.113   5.937  20.730  0.00  0.00    +0.000 A 
ATOM      5  N   UNL     1       2.627   4.886  20.050  0.00  0.00    +0.000 NA
ATOM      6  C   UNL     1       2.806   5.016  18.692  0.00  0.00    +0.000 A 
ATOM      7  C   UNL     1       2.585   6.214  18.013  0.00  0.00    +0.000 A 
ATOM      8  C   UNL     1       2.158   7.286  18.768  0.00  0.00    +0.000 A 
ATOM      9  C   UNL     1       2.055   8.733  18.405  0.00  0.00    +0.000 C 
ENDROOT
BRANCH   1  11
ATOM     10  O   UNL     1       1.746  11.548  18.559  0.00  0.00    +0.000 OA
ATOM     11  S   UNL     1       1.011  10.923  19.635  0.00  0.00    +0.000 S 
ATOM     12  O   UNL     1       1.233  11.279  21.018  0.00  0.00    +0.000 OA
BRANCH  11  13
ATOM     13  C   UNL     1      -0.716  11.188  19.277  0.00  0.00    +0.000 A 
ATOM     14  C   UNL     1      -1.449  12.159  19.955  0.00  0.00    +0.000 A 
ATOM     15  C   UNL     1      -2.804  12.335  19.649  0.00  0.00    +0.000 A 
ATOM     16  C   UNL     1      -3.425  11.545  18.667  0.00  0.00    +0.000 A 
ATOM     17  C   UNL     1      -2.672  10.575  17.988  0.00  0.00    +0.000 A 
ATOM     18  C   UNL     1      -1.319  10.408  18.280  0.00  0.00    +0.000 A 
BRANCH  16  19
ATOM     19  N   UNL     1      -4.802  11.735  18.342  0.00  0.00    +0.000 N 
ATOM     20  C   UNL     1      -5.889  11.555  19.171  0.00  0.00    +0.000 A 
ATOM     21  C   UNL     1      -6.996  11.886  18.428  0.00  0.00    +0.000 A 
ATOM     22  N   UNL     1      -6.643  12.249  17.163  0.00  0.00    +0.000 NA
ATOM     23  C   UNL     1      -5.332  12.149  17.137  0.00  0.00    +0.000 A 
ENDBRANCH  16  19
ENDBRANCH  11  13
ENDBRANCH   1  11
BRANCH   6  24
ATOM     24  C   UNL     1       3.427   3.832  17.954  0.00  0.00    +0.000 C 
BRANCH  24  25
ATOM     25  C   UNL     1       4.756   4.083  17.271  0.00  0.00    +0.000 A 
ATOM     26  C   UNL     1       4.837   4.103  15.868  0.00  0.00    +0.000 A 
ATOM     27  C   UNL     1       6.034   4.428  15.223  0.00  0.00    +0.000 A 
ATOM     28  C   UNL     1       7.168   4.740  15.970  0.00  0.00    +0.000 A 
ATOM     29  C   UNL     1       7.108   4.717  17.361  0.00  0.00    +0.000 A 
ATOM     30  C   UNL     1       5.912   4.390  18.007  0.00  0.00    +0.000 A 
ENDBRANCH  24  25
BRANCH  24  31
ATOM     31  O   UNL     1       2.505   3.357  16.962  0.00  0.00    +0.000 OA
ATOM     32  H   UNL     1       1.746   3.969  17.020  0.00  0.00    +0.000 HD
ENDBRANCH  24  31
ENDBRANCH   6  24
TORSDOF 6
ENDMDL
MODEL 3
REMARK VINA RESULT:      -8.6      0.416      1.093
REMARK  Name = 
REMARK  6 active torsions:
REMARK  status: ('A' for Active; 'I' for Inactive)
REMARK    1  A    between atoms: S_2  and  C_4
REMARK    2  A    between atoms: S_2  and  N_15
REMARK    3  A    between atoms: C_7  and  N_8
REMARK    4  A    between atoms: C_20  and  C_21
REMARK    5  A    between atoms: C_21  and  O_22
REMARK    6  A    between atoms: C_21  and  C_23
REMARK                            x       y       z     vdW  Elec       q    Type
REMARK                         _______ _______ _______ _____ _____    ______ ____
ROOT
ATOM      1  N   UNL     1       1.196   9.278  19.506  0.00  0.00    +0.000 NA
ATOM      2  C   UNL     1       1.189   8.356  20.664  0.00  0.00    +0.000 C 
ATOM      3  C   UNL     1       1.818   7.110  20.124  0.00  0.00    +0.000 A 
ATOM      4  C   UNL     1       2.096   5.912  20.729  0.00  0.00    +0.000 A 
ATOM      5  N   UNL     1       2.608   4.866  20.038  0.00  0.00    +0.000 NA
ATOM      6  C   UNL     1       2.790   5.011  18.683  0.00  0.00    +0.000 A 
ATOM      7  C   UNL     1       2.575   6.217  18.017  0.00  0.00    +0.000 A 
ATOM      8  C   UNL     1       2.151   7.283  18.783  0.00  0.00    +0.000 A 
ATOM      9  C   UNL     1       2.055   8.734  18.435  0.00  0.00    +0.000 C 
ENDROOT
BRANCH   1  11
ATOM     10  O   UNL     1       1.775  11.548  18.634  0.00  0.00    +0.000 OA
ATOM     11  S   UNL     1       1.017  10.914  19.688  0.00  0.00    +0.000 S 
ATOM     12  O   UNL     1       1.216  11.251  21.080  0.00  0.00    +0.000 OA
BRANCH  11  13
ATOM     13  C   UNL     1      -0.701  11.194  19.301  0.00  0.00    +0.000 A 
ATOM     14  C   UNL     1      -1.324  10.508  18.262  0.00  0.00    +0.000 A 
ATOM     15  C   UNL     1      -2.674  10.758  17.985  0.00  0.00    +0.000 A 
ATOM     16  C   UNL     1      -3.400  11.689  18.746  0.00  0.00    +0.000 A 
ATOM     17  C   UNL     1      -2.761  12.369  19.794  0.00  0.00    +0.000 A 
ATOM     18  C   UNL     1      -1.421  12.110  20.081  0.00  0.00    +0.000 A 
BRANCH  16  19
ATOM     19  N   UNL     1      -4.781  11.932  18.477  0.00  0.00    +0.000 N 
ATOM     20  C   UNL     1      -5.402  11.944  17.246  0.00  0.00    +0.000 A 
ATOM     21  C   UNL     1      -6.732  12.191  17.491  0.00  0.00    +0.000 A 
ATOM     22  N   UNL     1      -6.959  12.352  18.824  0.00  0.00    +0.000 NA
ATOM     23  C   UNL     1      -5.782  12.194  19.389  0.00  0.00    +0.000 A 
ENDBRANCH  16  19
ENDBRANCH  11  13
ENDBRANCH   1  11
BRANCH   6  24
ATOM     24  C   UNL     1       3.408   3.832  17.932  0.00  0.00    +0.000 C 
BRANCH  24  25
ATOM     25  C   UNL     1       4.742   4.084  17.261  0.00  0.00    +0.000 A 
ATOM     26  C   UNL     1       4.835   4.106  15.858  0.00  0.00    +0.000 A 
ATOM     27  C   UNL     1       6.037   4.432  15.223  0.00  0.00    +0.000 A 
ATOM     28  C   UNL     1       7.165   4.741  15.980  0.00  0.00    +0.000 A 
ATOM     29  C   UNL     1       7.094   4.716  17.371  0.00  0.00    +0.000 A 
ATOM     30  C   UNL     1       5.893   4.389  18.007  0.00  0.00    +0.000 A 
ENDBRANCH  24  25
BRANCH  24  31
ATOM     31  O   UNL     1       2.488   3.377  16.929  0.00  0.00    +0.000 OA
ATOM     32  H   UNL     1       2.950   3.534  16.083  0.00  0.00    +0.000 HD
ENDBRANCH  24  31
ENDBRANCH   6  24
TORSDOF 6
ENDMDL
MODEL 4
REMARK VINA RESULT:      -8.4      0.538      1.065
REMARK  Name = 
REMARK  6 active torsions:
REMARK  status: ('A' for Active; 'I' for Inactive)
REMARK    1  A    between atoms: S_2  and  C_4
REMARK    2  A    between atoms: S_2  and  N_15
REMARK    3  A    between atoms: C_7  and  N_8
REMARK    4  A    between atoms: C_20  and  C_21
REMARK    5  A    between atoms: C_21  and  O_22
REMARK    6  A    between atoms: C_21  and  C_23
REMARK                            x       y       z     vdW  Elec       q    Type
REMARK                         _______ _______ _______ _____ _____    ______ ____
ROOT
ATOM      1  N   UNL     1       1.235   9.544  19.395  0.00  0.00    +0.000 NA
ATOM      2  C   UNL     1       1.158   8.643  20.567  0.00  0.00    +0.000 C 
ATOM      3  C   UNL     1       1.810   7.385  20.086  0.00  0.00    +0.000 A 
ATOM      4  C   UNL     1       2.048   6.197  20.728  0.00  0.00    +0.000 A 
ATOM      5  N   UNL     1       2.594   5.137  20.086  0.00  0.00    +0.000 NA
ATOM      6  C   UNL     1       2.854   5.257  18.741  0.00  0.00    +0.000 A 
ATOM      7  C   UNL     1       2.684   6.452  18.043  0.00  0.00    +0.000 A 
ATOM      8  C   UNL     1       2.222   7.533  18.764  0.00  0.00    +0.000 A 
ATOM      9  C   UNL     1       2.152   8.978  18.386  0.00  0.00    +0.000 C 
ENDROOT
BRANCH   1  11
ATOM     10  O   UNL     1       1.705  11.788  18.398  0.00  0.00    +0.000 OA
ATOM     11  S   UNL     1       1.054  11.184  19.538  0.00  0.00    +0.000 S 
ATOM     12  O   UNL     1       1.375  11.570  20.894  0.00  0.00    +0.000 OA
BRANCH  11  13
ATOM     13  C   UNL     1      -0.696  11.435  19.301  0.00  0.00    +0.000 A 
ATOM     14  C   UNL     1      -1.417  12.287  20.133  0.00  0.00    +0.000 A 
ATOM     15  C   UNL     1      -2.791  12.456  19.919  0.00  0.00    +0.000 A 
ATOM     16  C   UNL     1      -3.441  11.776  18.876  0.00  0.00    +0.000 A 
ATOM     17  C   UNL     1      -2.700  10.924  18.042  0.00  0.00    +0.000 A 
ATOM     18  C   UNL     1      -1.329  10.767  18.244  0.00  0.00    +0.000 A 
BRANCH  16  19
ATOM     19  N   UNL     1      -4.838  11.960  18.646  0.00  0.00    +0.000 N 
ATOM     20  C   UNL     1      -5.654  11.216  17.819  0.00  0.00    +0.000 A 
ATOM     21  C   UNL     1      -6.915  11.746  17.948  0.00  0.00    +0.000 A 
ATOM     22  N   UNL     1      -6.914  12.802  18.809  0.00  0.00    +0.000 NA
ATOM     23  C   UNL     1      -5.666  12.909  19.209  0.00  0.00    +0.000 A 
ENDBRANCH  16  19
ENDBRANCH  11  13
ENDBRANCH   1  11
BRANCH   6  24
ATOM     24  C   UNL     1       3.509   4.063  18.049  0.00  0.00    +0.000 C 
BRANCH  24  25
ATOM     25  C   UNL     1       4.822   4.329  17.342  0.00  0.00    +0.000 A 
ATOM     26  C   UNL     1       5.997   4.535  18.087  0.00  0.00    +0.000 A 
ATOM     27  C   UNL     1       7.233   4.687  17.451  0.00  0.00    +0.000 A 
ATOM     28  C   UNL     1       7.315   4.634  16.062  0.00  0.00    +0.000 A 
ATOM     29  C   UNL     1       6.160   4.439  15.307  0.00  0.00    +0.000 A 
ATOM     30  C   UNL     1       4.923   4.290  15.942  0.00  0.00    +0.000 A 
ENDBRANCH  24  25
BRANCH  24  31
ATOM     31  O   UNL     1       2.595   3.515  17.088  0.00  0.00    +0.000 OA
ATOM     32  H   UNL     1       1.809   4.093  17.139  0.00  0.00    +0.000 HD
ENDBRANCH  24  31
ENDBRANCH   6  24
TORSDOF 6
ENDMDL
MODEL 5
REMARK VINA RESULT:      -8.3      4.183      6.484
REMARK  Name = 
REMARK  6 active torsions:
REMARK  status: ('A' for Active; 'I' for Inactive)
REMARK    1  A    between atoms: S_2  and  C_4
REMARK    2  A    between atoms: S_2  and  N_15
REMARK    3  A    between atoms: C_7  and  N_8
REMARK    4  A    between atoms: C_20  and  C_21
REMARK    5  A    between atoms: C_21  and  O_22
REMARK    6  A    between atoms: C_21  and  C_23
REMARK                            x       y       z     vdW  Elec       q    Type
REMARK                         _______ _______ _______ _____ _____    ______ ____
ROOT
ATOM      1  N   UNL     1       3.981   3.841  18.372  0.00  0.00    +0.000 NA
ATOM      2  C   UNL     1       5.243   4.566  18.647  0.00  0.00    +0.000 C 
ATOM      3  C   UNL     1       5.805   4.819  17.284  0.00  0.00    +0.000 A 
ATOM      4  C   UNL     1       6.951   5.463  16.893  0.00  0.00    +0.000 A 
ATOM      5  N   UNL     1       7.327   5.523  15.593  0.00  0.00    +0.000 NA
ATOM      6  C   UNL     1       6.556   4.864  14.664  0.00  0.00    +0.000 A 
ATOM      7  C   UNL     1       5.354   4.236  14.989  0.00  0.00    +0.000 A 
ATOM      8  C   UNL     1       4.962   4.290  16.310  0.00  0.00    +0.000 A 
ATOM      9  C   UNL     1       3.652   3.932  16.936  0.00  0.00    +0.000 C 
ENDROOT
BRANCH   1  11
ATOM     10  O   UNL     1       3.387   3.270  20.733  0.00  0.00    +0.000 OA
ATOM     11  S   UNL     1       2.777   3.719  19.502  0.00  0.00    +0.000 S 
ATOM     12  O   UNL     1       1.653   3.028  18.911  0.00  0.00    +0.000 OA
BRANCH  11  13
ATOM     13  C   UNL     1       2.289   5.412  19.779  0.00  0.00    +0.000 A 
ATOM     14  C   UNL     1       1.606   5.782  20.935  0.00  0.00    +0.000 A 
ATOM     15  C   UNL     1       1.236   7.122  21.116  0.00  0.00    +0.000 A 
ATOM     16  C   UNL     1       1.549   8.087  20.145  0.00  0.00    +0.000 A 
ATOM     17  C   UNL     1       2.242   7.701  18.987  0.00  0.00    +0.000 A 
ATOM     18  C   UNL     1       2.625   6.371  18.813  0.00  0.00    +0.000 A 
BRANCH  16  19
ATOM     19  N   UNL     1       1.187   9.455  20.335  0.00  0.00    +0.000 N 
ATOM     20  C   UNL     1       1.012  10.416  19.362  0.00  0.00    +0.000 A 
ATOM     21  C   UNL     1       0.641  11.564  20.019  0.00  0.00    +0.000 A 
ATOM     22  N   UNL     1       0.595  11.361  21.365  0.00  0.00    +0.000 NA
ATOM     23  C   UNL     1       0.926  10.098  21.527  0.00  0.00    +0.000 A 
ENDBRANCH  16  19
ENDBRANCH  11  13
ENDBRANCH   1  11
BRANCH   6  24
ATOM     24  C   UNL     1       6.977   4.981  13.200  0.00  0.00    +0.000 C 
BRANCH  24  25
ATOM     25  C   UNL     1       6.725   3.770  12.326  0.00  0.00    +0.000 A 
ATOM     26  C   UNL     1       7.806   3.048  11.790  0.00  0.00    +0.000 A 
ATOM     27  C   UNL     1       7.593   1.873  11.062  0.00  0.00    +0.000 A 
ATOM     28  C   UNL     1       6.298   1.402  10.858  0.00  0.00    +0.000 A 
ATOM     29  C   UNL     1       5.215   2.110  11.374  0.00  0.00    +0.000 A 
ATOM     30  C   UNL     1       5.426   3.285  12.101  0.00  0.00    +0.000 A 
ENDBRANCH  24  25
BRANCH  24  31
ATOM     31  O   UNL     1       8.377   5.288  13.135  0.00  0.00    +0.000 OA
ATOM     32  H   UNL     1       8.705   4.782  12.367  0.00  0.00    +0.000 HD
ENDBRANCH  24  31
ENDBRANCH   6  24
TORSDOF 6
ENDMDL
MODEL 6
REMARK VINA RESULT:      -8.2      4.130      6.346
REMARK  Name = 
REMARK  6 active torsions:
REMARK  status: ('A' for Active; 'I' for Inactive)
REMARK    1  A    between atoms: S_2  and  C_4
REMARK    2  A    between atoms: S_2  and  N_15
REMARK    3  A    between atoms: C_7  and  N_8
REMARK    4  A    between atoms: C_20  and  C_21
REMARK    5  A    between atoms: C_21  and  O_22
REMARK    6  A    between atoms: C_21  and  C_23
REMARK                            x       y       z     vdW  Elec       q    Type
REMARK                         _______ _______ _______ _____ _____    ______ ____
ROOT
ATOM      1  N   UNL     1       3.959   3.897  18.416  0.00  0.00    +0.000 NA
ATOM      2  C   UNL     1       5.286   4.497  18.687  0.00  0.00    +0.000 C 
ATOM      3  C   UNL     1       5.839   4.754  17.321  0.00  0.00    +0.000 A 
ATOM      4  C   UNL     1       7.029   5.309  16.926  0.00  0.00    +0.000 A 
ATOM      5  N   UNL     1       7.381   5.388  15.621  0.00  0.00    +0.000 NA
ATOM      6  C   UNL     1       6.535   4.836  14.687  0.00  0.00    +0.000 A 
ATOM      7  C   UNL     1       5.289   4.305  15.017  0.00  0.00    +0.000 A 
ATOM      8  C   UNL     1       4.932   4.340  16.349  0.00  0.00    +0.000 A 
ATOM      9  C   UNL     1       3.609   4.074  16.993  0.00  0.00    +0.000 C 
ENDROOT
BRANCH   1  11
ATOM     10  O   UNL     1       3.404   3.460  20.814  0.00  0.00    +0.000 OA
ATOM     11  S   UNL     1       2.774   3.837  19.571  0.00  0.00    +0.000 S 
ATOM     12  O   UNL     1       1.643   3.111  19.038  0.00  0.00    +0.000 OA
BRANCH  11  13
ATOM     13  C   UNL     1       2.285   5.542  19.759  0.00  0.00    +0.000 A 
ATOM     14  C   UNL     1       2.580   6.485  18.778  0.00  0.00    +0.000 A 
ATOM     15  C   UNL     1       2.183   7.816  18.963  0.00  0.00    +0.000 A 
ATOM     16  C   UNL     1       1.492   8.202  20.124  0.00  0.00    +0.000 A 
ATOM     17  C   UNL     1       1.197   7.239  21.102  0.00  0.00    +0.000 A 
ATOM     18  C   UNL     1       1.578   5.911  20.912  0.00  0.00    +0.000 A 
BRANCH  16  19
ATOM     19  N   UNL     1       1.072   9.554  20.307  0.00  0.00    +0.000 N 
ATOM     20  C   UNL     1       0.609  10.135  21.468  0.00  0.00    +0.000 A 
ATOM     21  C   UNL     1       0.359  11.452  21.164  0.00  0.00    +0.000 A 
ATOM     22  N   UNL     1       0.632  11.709  19.855  0.00  0.00    +0.000 NA
ATOM     23  C   UNL     1       1.054  10.563  19.366  0.00  0.00    +0.000 A 
ENDBRANCH  16  19
ENDBRANCH  11  13
ENDBRANCH   1  11
BRANCH   6  24
ATOM     24  C   UNL     1       6.933   4.975  13.218  0.00  0.00    +0.000 C 
BRANCH  24  25
ATOM     25  C   UNL     1       6.688   3.768  12.336  0.00  0.00    +0.000 A 
ATOM     26  C   UNL     1       7.773   3.056  11.796  0.00  0.00    +0.000 A 
ATOM     27  C   UNL     1       7.567   1.885  11.059  0.00  0.00    +0.000 A 
ATOM     28  C   UNL     1       6.274   1.408  10.851  0.00  0.00    +0.000 A 
ATOM     29  C   UNL     1       5.187   2.107  11.372  0.00  0.00    +0.000 A 
ATOM     30  C   UNL     1       5.392   3.278  12.107  0.00  0.00    +0.000 A 
ENDBRANCH  24  25
BRANCH  24  31
ATOM     31  O   UNL     1       8.327   5.305  13.137  0.00  0.00    +0.000 OA
ATOM     32  H   UNL     1       8.599   5.458  14.062  0.00  0.00    +0.000 HD
ENDBRANCH  24  31
ENDBRANCH   6  24
TORSDOF 6
ENDMDL
MODEL 7
REMARK VINA RESULT:      -8.0      2.654      3.496
REMARK  Name = 
REMARK  6 active torsions:
REMARK  status: ('A' for Active; 'I' for Inactive)
REMARK    1  A    between atoms: S_2  and  C_4
REMARK    2  A    between atoms: S_2  and  N_15
REMARK    3  A    between atoms: C_7  and  N_8
REMARK    4  A    between atoms: C_20  and  C_21
REMARK    5  A    between atoms: C_21  and  O_22
REMARK    6  A    between atoms: C_21  and  C_23
REMARK                            x       y       z     vdW  Elec       q    Type
REMARK                         _______ _______ _______ _____ _____    ______ ____
ROOT
ATOM      1  N   UNL     1       0.351  11.197  20.054  0.00  0.00    +0.000 NA
ATOM      2  C   UNL     1       0.403  10.131  21.080  0.00  0.00    +0.000 C 
ATOM      3  C   UNL     1       1.142   9.023  20.397  0.00  0.00    +0.000 A 
ATOM      4  C   UNL     1       1.511   7.782  20.846  0.00  0.00    +0.000 A 
ATOM      5  N   UNL     1       2.120   6.883  20.037  0.00  0.00    +0.000 NA
ATOM      6  C   UNL     1       2.312   7.223  18.718  0.00  0.00    +0.000 A 
ATOM      7  C   UNL     1       2.008   8.486  18.212  0.00  0.00    +0.000 A 
ATOM      8  C   UNL     1       1.483   9.401  19.100  0.00  0.00    +0.000 A 
ATOM      9  C   UNL     1       1.270  10.873  18.945  0.00  0.00    +0.000 C 
ENDROOT
BRANCH   1  11
ATOM     10  O   UNL     1       0.066  13.537  19.219  0.00  0.00    +0.000 OA
ATOM     11  S   UNL     1       0.032  12.774  20.446  0.00  0.00    +0.000 S 
ATOM     12  O   UNL     1       0.834  13.139  21.593  0.00  0.00    +0.000 OA
BRANCH  11  13
ATOM     13  C   UNL     1      -1.674  12.741  20.964  0.00  0.00    +0.000 A 
ATOM     14  C   UNL     1      -2.707  12.722  20.030  0.00  0.00    +0.000 A 
ATOM     15  C   UNL     1      -4.035  12.700  20.475  0.00  0.00    +0.000 A 
ATOM     16  C   UNL     1      -4.329  12.696  21.849  0.00  0.00    +0.000 A 
ATOM     17  C   UNL     1      -3.278  12.711  22.778  0.00  0.00    +0.000 A 
ATOM     18  C   UNL     1      -1.955  12.717  22.337  0.00  0.00    +0.000 A 
BRANCH  16  19
ATOM     19  N   UNL     1      -5.682  12.657  22.304  0.00  0.00    +0.000 N 
ATOM     20  C   UNL     1      -6.144  12.927  23.575  0.00  0.00    +0.000 A 
ATOM     21  C   UNL     1      -7.510  12.790  23.523  0.00  0.00    +0.000 A 
ATOM     22  N   UNL     1      -7.916  12.428  22.274  0.00  0.00    +0.000 NA
ATOM     23  C   UNL     1      -6.809  12.355  21.567  0.00  0.00    +0.000 A 
ENDBRANCH  16  19
ENDBRANCH  11  13
ENDBRANCH   1  11
BRANCH   6  24
ATOM     24  C   UNL     1       3.039   6.209  17.836  0.00  0.00    +0.000 C 
BRANCH  24  25
ATOM     25  C   UNL     1       2.786   4.746  18.138  0.00  0.00    +0.000 A 
ATOM     26  C   UNL     1       3.825   3.935  18.627  0.00  0.00    +0.000 A 
ATOM     27  C   UNL     1       3.585   2.610  19.001  0.00  0.00    +0.000 A 
ATOM     28  C   UNL     1       2.303   2.074  18.894  0.00  0.00    +0.000 A 
ATOM     29  C   UNL     1       1.264   2.861  18.404  0.00  0.00    +0.000 A 
ATOM     30  C   UNL     1       1.503   4.186  18.027  0.00  0.00    +0.000 A 
ENDBRANCH  24  25
BRANCH  24  31
ATOM     31  O   UNL     1       4.453   6.439  17.921  0.00  0.00    +0.000 OA
ATOM     32  H   UNL     1       4.840   5.550  18.036  0.00  0.00    +0.000 HD
ENDBRANCH  24  31
ENDBRANCH   6  24
TORSDOF 6
ENDMDL
MODEL 8
REMARK VINA RESULT:      -8.0      3.989      6.253
REMARK  Name = 
REMARK  6 active torsions:
REMARK  status: ('A' for Active; 'I' for Inactive)
REMARK    1  A    between atoms: S_2  and  C_4
REMARK    2  A    between atoms: S_2  and  N_15
REMARK    3  A    between atoms: C_7  and  N_8
REMARK    4  A    between atoms: C_20  and  C_21
REMARK    5  A    between atoms: C_21  and  O_22
REMARK    6  A    between atoms: C_21  and  C_23
REMARK                            x       y       z     vdW  Elec       q    Type
REMARK                         _______ _______ _______ _____ _____    ______ ____
ROOT
ATOM      1  N   UNL     1       3.965   4.205  18.447  0.00  0.00    +0.000 NA
ATOM      2  C   UNL     1       5.274   4.865  18.655  0.00  0.00    +0.000 C 
ATOM      3  C   UNL     1       5.812   5.024  17.268  0.00  0.00    +0.000 A 
ATOM      4  C   UNL     1       6.982   5.580  16.818  0.00  0.00    +0.000 A 
ATOM      5  N   UNL     1       7.323   5.560  15.508  0.00  0.00    +0.000 NA
ATOM      6  C   UNL     1       6.489   4.908  14.630  0.00  0.00    +0.000 A 
ATOM      7  C   UNL     1       5.262   4.368  15.014  0.00  0.00    +0.000 A 
ATOM      8  C   UNL     1       4.912   4.503  16.341  0.00  0.00    +0.000 A 
ATOM      9  C   UNL     1       3.601   4.252  17.016  0.00  0.00    +0.000 C 
ENDROOT
BRANCH   1  11
ATOM     10  O   UNL     1       3.431   3.899  20.869  0.00  0.00    +0.000 OA
ATOM     11  S   UNL     1       2.789   4.206  19.612  0.00  0.00    +0.000 S 
ATOM     12  O   UNL     1       1.656   3.449  19.129  0.00  0.00    +0.000 OA
BRANCH  11  13
ATOM     13  C   UNL     1       2.297   5.918  19.711  0.00  0.00    +0.000 A 
ATOM     14  C   UNL     1       2.513   6.789  18.646  0.00  0.00    +0.000 A 
ATOM     15  C   UNL     1       2.117   8.127  18.762  0.00  0.00    +0.000 A 
ATOM     16  C   UNL     1       1.505   8.593  19.937  0.00  0.00    +0.000 A 
ATOM     17  C   UNL     1       1.290   7.702  21.001  0.00  0.00    +0.000 A 
ATOM     18  C   UNL     1       1.669   6.366  20.881  0.00  0.00    +0.000 A 
BRANCH  16  19
ATOM     19  N   UNL     1       1.086   9.953  20.051  0.00  0.00    +0.000 N 
ATOM     20  C   UNL     1       1.009  10.891  19.044  0.00  0.00    +0.000 A 
ATOM     21  C   UNL     1       0.527  12.039  19.625  0.00  0.00    +0.000 A 
ATOM     22  N   UNL     1       0.316  11.858  20.958  0.00  0.00    +0.000 NA
ATOM     23  C   UNL     1       0.658  10.608  21.187  0.00  0.00    +0.000 A 
ENDBRANCH  16  19
ENDBRANCH  11  13
ENDBRANCH   1  11
BRANCH   6  24
ATOM     24  C   UNL     1       6.874   4.936  13.152  0.00  0.00    +0.000 C 
BRANCH  24  25
ATOM     25  C   UNL     1       6.670   3.650  12.377  0.00  0.00    +0.000 A 
ATOM     26  C   UNL     1       5.371   3.172  12.130  0.00  0.00    +0.000 A 
ATOM     27  C   UNL     1       5.162   2.041  11.336  0.00  0.00    +0.000 A 
ATOM     28  C   UNL     1       6.246   1.370  10.776  0.00  0.00    +0.000 A 
ATOM     29  C   UNL     1       7.541   1.824  11.017  0.00  0.00    +0.000 A 
ATOM     30  C   UNL     1       7.752   2.954  11.813  0.00  0.00    +0.000 A 
ENDBRANCH  24  25
BRANCH  24  31
ATOM     31  O   UNL     1       8.254   5.309  13.031  0.00  0.00    +0.000 OA
ATOM     32  H   UNL     1       8.693   4.878  13.789  0.00  0.00    +0.000 HD
ENDBRANCH  24  31
ENDBRANCH   6  24
TORSDOF 6
ENDMDL
MODEL 9
REMARK VINA RESULT:      -8.0      2.790      3.786
REMARK  Name = 
REMARK  6 active torsions:
REMARK  status: ('A' for Active; 'I' for Inactive)
REMARK    1  A    between atoms: S_2  and  C_4
REMARK    2  A    between atoms: S_2  and  N_15
REMARK    3  A    between atoms: C_7  and  N_8
REMARK    4  A    between atoms: C_20  and  C_21
REMARK    5  A    between atoms: C_21  and  O_22
REMARK    6  A    between atoms: C_21  and  C_23
REMARK                            x       y       z     vdW  Elec       q    Type
REMARK                         _______ _______ _______ _____ _____    ______ ____
ROOT
ATOM      1  N   UNL     1       0.225  11.418  20.191  0.00  0.00    +0.000 NA
ATOM      2  C   UNL     1       0.343  10.333  21.191  0.00  0.00    +0.000 C 
ATOM      3  C   UNL     1       1.059   9.249  20.449  0.00  0.00    +0.000 A 
ATOM      4  C   UNL     1       1.465   8.003  20.854  0.00  0.00    +0.000 A 
ATOM      5  N   UNL     1       2.043   7.128  19.997  0.00  0.00    +0.000 NA
ATOM      6  C   UNL     1       2.162   7.496  18.677  0.00  0.00    +0.000 A 
ATOM      7  C   UNL     1       1.817   8.765  18.213  0.00  0.00    +0.000 A 
ATOM      8  C   UNL     1       1.328   9.656  19.145  0.00  0.00    +0.000 A 
ATOM      9  C   UNL     1       1.090  11.128  19.030  0.00  0.00    +0.000 C 
ENDROOT
BRANCH   1  11
ATOM     10  O   UNL     1      -0.114  13.772  19.420  0.00  0.00    +0.000 OA
ATOM     11  S   UNL     1      -0.092  12.983  20.630  0.00  0.00    +0.000 S 
ATOM     12  O   UNL     1       0.752  13.330  21.752  0.00  0.00    +0.000 OA
BRANCH  11  13
ATOM     13  C   UNL     1      -1.776  12.922  21.215  0.00  0.00    +0.000 A 
ATOM     14  C   UNL     1      -2.832  12.694  20.336  0.00  0.00    +0.000 A 
ATOM     15  C   UNL     1      -4.142  12.657  20.832  0.00  0.00    +0.000 A 
ATOM     16  C   UNL     1      -4.394  12.846  22.201  0.00  0.00    +0.000 A 
ATOM     17  C   UNL     1      -3.319  13.070  23.075  0.00  0.00    +0.000 A 
ATOM     18  C   UNL     1      -2.013  13.091  22.586  0.00  0.00    +0.000 A 
BRANCH  16  19
ATOM     19  N   UNL     1      -5.727  12.792  22.710  0.00  0.00    +0.000 N 
ATOM     20  C   UNL     1      -6.897  12.728  21.984  0.00  0.00    +0.000 A 
ATOM     21  C   UNL     1      -7.916  12.663  22.904  0.00  0.00    +0.000 A 
ATOM     22  N   UNL     1      -7.427  12.701  24.175  0.00  0.00    +0.000 NA
ATOM     23  C   UNL     1      -6.121  12.779  24.033  0.00  0.00    +0.000 A 
ENDBRANCH  16  19
ENDBRANCH  11  13
ENDBRANCH   1  11
BRANCH   6  24
ATOM     24  C   UNL     1       2.855   6.509  17.739  0.00  0.00    +0.000 C 
BRANCH  24  25
ATOM     25  C   UNL     1       2.833   5.053  18.155  0.00  0.00    +0.000 A 
ATOM     26  C   UNL     1       1.704   4.258  17.888  0.00  0.00    +0.000 A 
ATOM     27  C   UNL     1       1.704   2.891  18.179  0.00  0.00    +0.000 A 
ATOM     28  C   UNL     1       2.832   2.296  18.739  0.00  0.00    +0.000 A 
ATOM     29  C   UNL     1       3.956   3.069  19.018  0.00  0.00    +0.000 A 
ATOM     30  C   UNL     1       3.956   4.437  18.730  0.00  0.00    +0.000 A 
ENDBRANCH  24  25
BRANCH  24  31
ATOM     31  O   UNL     1       4.225   6.899  17.572  0.00  0.00    +0.000 OA
ATOM     32  H   UNL     1       4.189   7.683  16.990  0.00  0.00    +0.000 HD
ENDBRANCH  24  31
ENDBRANCH   6  24
TORSDOF 6
ENDMDL
