MODEL 1
REMARK VINA RESULT:      -9.3      0.000      0.000
REMARK  Name = 
REMARK  8 active torsions:
REMARK  status: ('A' for Active; 'I' for Inactive)
REMARK    1  A    between atoms: C_2  and  C_5
REMARK    2  A    between atoms: C_7  and  N_8
REMARK    3  A    between atoms: N_9  and  C_10
REMARK    4  A    between atoms: N_13  and  C_14
REMARK    5  A    between atoms: C_14  and  C_15
REMARK    6  A    between atoms: C_15  and  O_16
REMARK    7  A    between atoms: O_16  and  C_17
REMARK    8  A    between atoms: C_30  and  C_31
REMARK                            x       y       z     vdW  Elec       q    Type
REMARK                         _______ _______ _______ _____ _____    ______ ____
ROOT
ATOM      1  C   UNL     1       3.057   5.486  19.729  0.00  0.00    +0.000 A 
ATOM      2  N   UNL     1       4.087   5.394  18.842  0.00  0.00    +0.000 NA
ATOM      3  C   UNL     1       4.493   4.178  18.437  0.00  0.00    +0.000 A 
ATOM      4  N   UNL     1       5.519   4.057  17.512  0.00  0.00    +0.000 N 
ATOM      5  N   UNL     1       3.982   3.000  18.842  0.00  0.00    +0.000 NA
ATOM      6  C   UNL     1       2.973   3.145  19.708  0.00  0.00    +0.000 A 
ATOM      7  N   UNL     1       2.239   2.150  20.286  0.00  0.00    +0.000 N 
ATOM      8  C   UNL     1       1.302   2.745  21.088  0.00  0.00    +0.000 A 
ATOM      9  N   UNL     1       1.400   4.057  21.063  0.00  0.00    +0.000 NA
ATOM     10  C   UNL     1       2.448   4.323  20.200  0.00  0.00    +0.000 A 
ATOM     11  H   UNL     1       5.808   3.086  17.520  0.00  0.00    +0.000 HD
ATOM     12  H   UNL     1       2.366   1.161  20.132  0.00  0.00    +0.000 HD
ENDROOT
BRANCH   1  14
ATOM     13  N   UNL     1       2.264   7.496  19.238  0.00  0.00    +0.000 NA
ATOM     14  N   UNL     1       2.527   6.709  20.169  0.00  0.00    +0.000 NA
BRANCH  13  17
ATOM     15  C   UNL     1       0.344   9.733  21.499  0.00  0.00    +0.000 A 
ATOM     16  C   UNL     1       0.956   8.599  20.940  0.00  0.00    +0.000 A 
ATOM     17  C   UNL     1       1.583   8.648  19.689  0.00  0.00    +0.000 A 
ATOM     18  C   UNL     1       1.586   9.868  18.992  0.00  0.00    +0.000 A 
ATOM     19  C   UNL     1       0.971  11.016  19.518  0.00  0.00    +0.000 A 
ATOM     20  C   UNL     1       0.346  10.934  20.771  0.00  0.00    +0.000 A 
BRANCH  15  22
ATOM     21  F   UNL     1      -1.185   8.698  23.040  0.00  0.00    +0.000 F 
ATOM     22  C   UNL     1      -0.269   9.691  22.878  0.00  0.00    +0.000 C 
ATOM     23  F   UNL     1      -0.908  10.849  23.201  0.00  0.00    +0.000 F 
ATOM     24  F   UNL     1       0.666   9.499  23.851  0.00  0.00    +0.000 F 
ENDBRANCH  15  22
BRANCH  19  25
ATOM     25  C   UNL     1       1.009  12.330  18.774  0.00  0.00    +0.000 C 
ATOM     26  F   UNL     1      -0.124  12.594  18.066  0.00  0.00    +0.000 F 
ATOM     27  F   UNL     1       1.191  13.393  19.605  0.00  0.00    +0.000 F 
ATOM     28  F   UNL     1       2.030  12.381  17.875  0.00  0.00    +0.000 F 
ENDBRANCH  19  25
ENDBRANCH  13  17
ENDBRANCH   1  14
BRANCH   4  29
ATOM     29  C   UNL     1       6.574   5.062  17.573  0.00  0.00    +0.000 C 
BRANCH  29  30
ATOM     30  C   UNL     1       6.538   5.964  16.328  0.00  0.00    +0.000 C 
BRANCH  30  31
ATOM     31  O   UNL     1       7.523   5.515  15.393  0.00  0.00    +0.000 OA
BRANCH  31  32
ATOM     32  C   UNL     1       7.043   4.892  14.272  0.00  0.00    +0.000 A 
ATOM     33  C   UNL     1       7.798   5.084  13.112  0.00  0.00    +0.000 A 
ATOM     34  C   UNL     1       7.412   4.491  11.907  0.00  0.00    +0.000 A 
ATOM     35  C   UNL     1       6.276   3.687  11.861  0.00  0.00    +0.000 A 
ATOM     36  C   UNL     1       5.531   3.473  13.020  0.00  0.00    +0.000 A 
ATOM     37  C   UNL     1       5.914   4.072  14.225  0.00  0.00    +0.000 A 
ENDBRANCH  31  32
ENDBRANCH  30  31
ENDBRANCH  29  30
ENDBRANCH   4  29
TORSDOF 8
ENDMDL
MODEL 2
REMARK VINA RESULT:      -8.9      1.176      2.691
REMARK  Name = 
REMARK  8 active torsions:
REMARK  status: ('A' for Active; 'I' for Inactive)
REMARK    1  A    between atoms: C_2  and  C_5
REMARK    2  A    between atoms: C_7  and  N_8
REMARK    3  A    between atoms: N_9  and  C_10
REMARK    4  A    between atoms: N_13  and  C_14
REMARK    5  A    between atoms: C_14  and  C_15
REMARK    6  A    between atoms: C_15  and  O_16
REMARK    7  A    between atoms: O_16  and  C_17
REMARK    8  A    between atoms: C_30  and  C_31
REMARK                            x       y       z     vdW  Elec       q    Type
REMARK                         _______ _______ _______ _____ _____    ______ ____
ROOT
ATOM      1  C   UNL     1       2.905   5.698  19.187  0.00  0.00    +0.000 A 
ATOM      2  N   UNL     1       3.375   5.551  17.916  0.00  0.00    +0.000 NA
ATOM      3  C   UNL     1       3.722   4.324  17.488  0.00  0.00    +0.000 A 
ATOM      4  N   UNL     1       4.175   4.142  16.190  0.00  0.00    +0.000 N 
ATOM      5  N   UNL     1       3.668   3.190  18.211  0.00  0.00    +0.000 NA
ATOM      6  C   UNL     1       3.197   3.389  19.448  0.00  0.00    +0.000 A 
ATOM      7  N   UNL     1       3.005   2.443  20.413  0.00  0.00    +0.000 N 
ATOM      8  C   UNL     1       2.494   3.079  21.513  0.00  0.00    +0.000 A 
ATOM      9  N   UNL     1       2.356   4.372  21.310  0.00  0.00    +0.000 NA
ATOM     10  C   UNL     1       2.796   4.581  20.015  0.00  0.00    +0.000 A 
ATOM     11  H   UNL     1       4.583   3.215  16.150  0.00  0.00    +0.000 HD
ATOM     12  H   UNL     1       3.198   1.457  20.317  0.00  0.00    +0.000 HD
ENDROOT
BRANCH   1  14
ATOM     13  N   UNL     1       1.995   7.689  18.841  0.00  0.00    +0.000 NA
ATOM     14  N   UNL     1       2.467   6.926  19.708  0.00  0.00    +0.000 NA
BRANCH  13  17
ATOM     15  C   UNL     1       0.385   9.884  21.369  0.00  0.00    +0.000 A 
ATOM     16  C   UNL     1       0.890   8.755  20.703  0.00  0.00    +0.000 A 
ATOM     17  C   UNL     1       1.413   8.844  19.407  0.00  0.00    +0.000 A 
ATOM     18  C   UNL     1       1.422  10.100  18.776  0.00  0.00    +0.000 A 
ATOM     19  C   UNL     1       0.911  11.245  19.410  0.00  0.00    +0.000 A 
ATOM     20  C   UNL     1       0.388  11.122  20.706  0.00  0.00    +0.000 A 
BRANCH  15  22
ATOM     21  F   UNL     1       0.856   9.477  23.693  0.00  0.00    +0.000 F 
ATOM     22  C   UNL     1      -0.114   9.794  22.792  0.00  0.00    +0.000 C 
ATOM     23  F   UNL     1      -1.090   8.858  22.944  0.00  0.00    +0.000 F 
ATOM     24  F   UNL     1      -0.654  10.968  23.222  0.00  0.00    +0.000 F 
ENDBRANCH  15  22
BRANCH  19  25
ATOM     25  C   UNL     1       0.955  12.594  18.734  0.00  0.00    +0.000 C 
ATOM     26  F   UNL     1       2.017  12.757  17.899  0.00  0.00    +0.000 F 
ATOM     27  F   UNL     1      -0.155  12.835  17.984  0.00  0.00    +0.000 F 
ATOM     28  F   UNL     1       1.026  13.616  19.632  0.00  0.00    +0.000 F 
ENDBRANCH  19  25
ENDBRANCH  13  17
ENDBRANCH   1  14
BRANCH   4  29
ATOM     29  C   UNL     1       4.951   5.232  15.610  0.00  0.00    +0.000 C 
BRANCH  29  30
ATOM     30  C   UNL     1       6.169   4.686  14.848  0.00  0.00    +0.000 C 
BRANCH  30  31
ATOM     31  O   UNL     1       7.322   5.462  15.186  0.00  0.00    +0.000 OA
BRANCH  31  32
ATOM     32  C   UNL     1       7.491   5.733  16.517  0.00  0.00    +0.000 A 
ATOM     33  C   UNL     1       7.569   4.614  17.350  0.00  0.00    +0.000 A 
ATOM     34  C   UNL     1       7.749   4.764  18.727  0.00  0.00    +0.000 A 
ATOM     35  C   UNL     1       7.871   6.038  19.277  0.00  0.00    +0.000 A 
ATOM     36  C   UNL     1       7.817   7.158  18.448  0.00  0.00    +0.000 A 
ATOM     37  C   UNL     1       7.630   7.007  17.071  0.00  0.00    +0.000 A 
ENDBRANCH  31  32
ENDBRANCH  30  31
ENDBRANCH  29  30
ENDBRANCH   4  29
TORSDOF 8
ENDMDL
MODEL 3
REMARK VINA RESULT:      -8.9      0.469      3.100
REMARK  Name = 
REMARK  8 active torsions:
REMARK  status: ('A' for Active; 'I' for Inactive)
REMARK    1  A    between atoms: C_2  and  C_5
REMARK    2  A    between atoms: C_7  and  N_8
REMARK    3  A    between atoms: N_9  and  C_10
REMARK    4  A    between atoms: N_13  and  C_14
REMARK    5  A    between atoms: C_14  and  C_15
REMARK    6  A    between atoms: C_15  and  O_16
REMARK    7  A    between atoms: O_16  and  C_17
REMARK    8  A    between atoms: C_30  and  C_31
REMARK                            x       y       z     vdW  Elec       q    Type
REMARK                         _______ _______ _______ _____ _____    ______ ____
ROOT
ATOM      1  C   UNL     1       3.209   5.396  19.651  0.00  0.00    +0.000 A 
ATOM      2  N   UNL     1       4.297   5.248  18.845  0.00  0.00    +0.000 NA
ATOM      3  C   UNL     1       4.589   4.027  18.362  0.00  0.00    +0.000 A 
ATOM      4  N   UNL     1       5.673   3.855  17.515  0.00  0.00    +0.000 N 
ATOM      5  N   UNL     1       3.906   2.895  18.611  0.00  0.00    +0.000 NA
ATOM      6  C   UNL     1       2.847   3.095  19.404  0.00  0.00    +0.000 A 
ATOM      7  N   UNL     1       1.949   2.157  19.824  0.00  0.00    +0.000 N 
ATOM      8  C   UNL     1       1.021   2.797  20.602  0.00  0.00    +0.000 A 
ATOM      9  N   UNL     1       1.278   4.084  20.708  0.00  0.00    +0.000 NA
ATOM     10  C   UNL     1       2.424   4.285  19.961  0.00  0.00    +0.000 A 
ATOM     11  H   UNL     1       5.842   2.857  17.454  0.00  0.00    +0.000 HD
ATOM     12  H   UNL     1       1.970   1.176  19.589  0.00  0.00    +0.000 HD
ENDROOT
BRANCH   1  14
ATOM     13  N   UNL     1       2.150   7.317  19.336  0.00  0.00    +0.000 NA
ATOM     14  N   UNL     1       2.792   6.636  20.161  0.00  0.00    +0.000 NA
BRANCH  13  17
ATOM     15  C   UNL     1       0.934  10.817  19.617  0.00  0.00    +0.000 A 
ATOM     16  C   UNL     1       1.553   9.648  19.143  0.00  0.00    +0.000 A 
ATOM     17  C   UNL     1       1.602   8.481  19.917  0.00  0.00    +0.000 A 
ATOM     18  C   UNL     1       1.015   8.503  21.194  0.00  0.00    +0.000 A 
ATOM     19  C   UNL     1       0.400   9.660  21.701  0.00  0.00    +0.000 A 
ATOM     20  C   UNL     1       0.373  10.814  20.904  0.00  0.00    +0.000 A 
BRANCH  15  22
ATOM     21  F   UNL     1       1.906  12.255  17.952  0.00  0.00    +0.000 F 
ATOM     22  C   UNL     1       0.824  12.049  18.750  0.00  0.00    +0.000 C 
ATOM     23  F   UNL     1       0.671  13.187  19.480  0.00  0.00    +0.000 F 
ATOM     24  F   UNL     1      -0.251  11.995  17.915  0.00  0.00    +0.000 F 
ENDBRANCH  15  22
BRANCH  19  25
ATOM     25  C   UNL     1      -0.255   9.661  23.061  0.00  0.00    +0.000 C 
ATOM     26  F   UNL     1      -0.804  10.858  23.406  0.00  0.00    +0.000 F 
ATOM     27  F   UNL     1      -1.257   8.745  23.156  0.00  0.00    +0.000 F 
ATOM     28  F   UNL     1       0.625   9.354  24.054  0.00  0.00    +0.000 F 
ENDBRANCH  19  25
ENDBRANCH  13  17
ENDBRANCH   1  14
BRANCH   4  29
ATOM     29  C   UNL     1       6.831   4.708  17.754  0.00  0.00    +0.000 C 
BRANCH  29  30
ATOM     30  C   UNL     1       7.138   5.566  16.516  0.00  0.00    +0.000 C 
BRANCH  30  31
ATOM     31  O   UNL     1       6.063   5.446  15.581  0.00  0.00    +0.000 OA
BRANCH  31  32
ATOM     32  C   UNL     1       6.389   4.917  14.360  0.00  0.00    +0.000 A 
ATOM     33  C   UNL     1       5.463   4.013  13.833  0.00  0.00    +0.000 A 
ATOM     34  C   UNL     1       5.682   3.414  12.590  0.00  0.00    +0.000 A 
ATOM     35  C   UNL     1       6.825   3.730  11.859  0.00  0.00    +0.000 A 
ATOM     36  C   UNL     1       7.741   4.649  12.369  0.00  0.00    +0.000 A 
ATOM     37  C   UNL     1       7.524   5.243  13.616  0.00  0.00    +0.000 A 
ENDBRANCH  31  32
ENDBRANCH  30  31
ENDBRANCH  29  30
ENDBRANCH   4  29
TORSDOF 8
ENDMDL
MODEL 4
REMARK VINA RESULT:      -8.8      4.924      9.589
REMARK  Name = 
REMARK  8 active torsions:
REMARK  status: ('A' for Active; 'I' for Inactive)
REMARK    1  A    between atoms: C_2  and  C_5
REMARK    2  A    between atoms: C_7  and  N_8
REMARK    3  A    between atoms: N_9  and  C_10
REMARK    4  A    between atoms: N_13  and  C_14
REMARK    5  A    between atoms: C_14  and  C_15
REMARK    6  A    between atoms: C_15  and  O_16
REMARK    7  A    between atoms: O_16  and  C_17
REMARK    8  A    between atoms: C_30  and  C_31
REMARK                            x       y       z     vdW  Elec       q    Type
REMARK                         _______ _______ _______ _____ _____    ______ ____
ROOT
ATOM      1  C   UNL     1       0.348  10.635  18.785  0.00  0.00    +0.000 A 
ATOM      2  N   UNL     1       0.667  11.586  19.708  0.00  0.00    +0.000 NA
ATOM      3  C   UNL     1      -0.180  12.611  19.907  0.00  0.00    +0.000 A 
ATOM      4  N   UNL     1       0.106  13.576  20.861  0.00  0.00    +0.000 N 
ATOM      5  N   UNL     1      -1.341  12.814  19.258  0.00  0.00    +0.000 NA
ATOM      6  C   UNL     1      -1.609  11.852  18.366  0.00  0.00    +0.000 A 
ATOM      7  N   UNL     1      -2.711  11.760  17.566  0.00  0.00    +0.000 N 
ATOM      8  C   UNL     1      -2.585  10.615  16.826  0.00  0.00    +0.000 A 
ATOM      9  N   UNL     1      -1.467   9.977  17.100  0.00  0.00    +0.000 NA
ATOM     10  C   UNL     1      -0.843  10.745  18.067  0.00  0.00    +0.000 A 
ATOM     11  H   UNL     1      -0.526  14.350  20.693  0.00  0.00    +0.000 HD
ATOM     12  H   UNL     1      -3.477  12.417  17.543  0.00  0.00    +0.000 HD
ENDROOT
BRANCH   1  14
ATOM     13  N   UNL     1       1.525   8.938  19.588  0.00  0.00    +0.000 NA
ATOM     14  N   UNL     1       1.139   9.501  18.544  0.00  0.00    +0.000 NA
BRANCH  13  17
ATOM     15  C   UNL     1       2.343   5.320  19.810  0.00  0.00    +0.000 A 
ATOM     16  C   UNL     1       1.811   6.592  20.080  0.00  0.00    +0.000 A 
ATOM     17  C   UNL     1       2.177   7.714  19.324  0.00  0.00    +0.000 A 
ATOM     18  C   UNL     1       3.099   7.540  18.278  0.00  0.00    +0.000 A 
ATOM     19  C   UNL     1       3.660   6.284  17.993  0.00  0.00    +0.000 A 
ATOM     20  C   UNL     1       3.278   5.182  18.772  0.00  0.00    +0.000 A 
BRANCH  15  22
ATOM     21  F   UNL     1       2.394   2.934  20.105  0.00  0.00    +0.000 F 
ATOM     22  C   UNL     1       1.893   4.105  20.584  0.00  0.00    +0.000 C 
ATOM     23  F   UNL     1       0.539   3.962  20.589  0.00  0.00    +0.000 F 
ATOM     24  F   UNL     1       2.265   4.162  21.893  0.00  0.00    +0.000 F 
ENDBRANCH  15  22
BRANCH  19  25
ATOM     25  C   UNL     1       4.626   6.106  16.846  0.00  0.00    +0.000 C 
ATOM     26  F   UNL     1       4.529   7.070  15.890  0.00  0.00    +0.000 F 
ATOM     27  F   UNL     1       5.924   6.110  17.256  0.00  0.00    +0.000 F 
ATOM     28  F   UNL     1       4.443   4.921  16.201  0.00  0.00    +0.000 F 
ENDBRANCH  19  25
ENDBRANCH  13  17
ENDBRANCH   1  14
BRANCH   4  29
ATOM     29  C   UNL     1       1.514  13.901  21.060  0.00  0.00    +0.000 C 
BRANCH  29  30
ATOM     30  C   UNL     1       1.807  15.342  20.611  0.00  0.00    +0.000 C 
BRANCH  30  31
ATOM     31  O   UNL     1       1.965  15.370  19.190  0.00  0.00    +0.000 OA
BRANCH  31  32
ATOM     32  C   UNL     1       1.233  16.318  18.526  0.00  0.00    +0.000 A 
ATOM     33  C   UNL     1       1.969  17.169  17.697  0.00  0.00    +0.000 A 
ATOM     34  C   UNL     1       1.331  18.171  16.961  0.00  0.00    +0.000 A 
ATOM     35  C   UNL     1      -0.052  18.315  17.039  0.00  0.00    +0.000 A 
ATOM     36  C   UNL     1      -0.794  17.454  17.846  0.00  0.00    +0.000 A 
ATOM     37  C   UNL     1      -0.154  16.455  18.587  0.00  0.00    +0.000 A 
ENDBRANCH  31  32
ENDBRANCH  30  31
ENDBRANCH  29  30
ENDBRANCH   4  29
TORSDOF 8
ENDMDL
MODEL 5
REMARK VINA RESULT:      -8.8      1.919      2.566
REMARK  Name = 
REMARK  8 active torsions:
REMARK  status: ('A' for Active; 'I' for Inactive)
REMARK    1  A    between atoms: C_2  and  C_5
REMARK    2  A    between atoms: C_7  and  N_8
REMARK    3  A    between atoms: N_9  and  C_10
REMARK    4  A    between atoms: N_13  and  C_14
REMARK    5  A    between atoms: C_14  and  C_15
REMARK    6  A    between atoms: C_15  and  O_16
REMARK    7  A    between atoms: O_16  and  C_17
REMARK    8  A    between atoms: C_30  and  C_31
REMARK                            x       y       z     vdW  Elec       q    Type
REMARK                         _______ _______ _______ _____ _____    ______ ____
ROOT
ATOM      1  C   UNL     1       2.982   6.011  19.149  0.00  0.00    +0.000 A 
ATOM      2  N   UNL     1       4.131   5.762  18.460  0.00  0.00    +0.000 NA
ATOM      3  C   UNL     1       4.608   4.505  18.420  0.00  0.00    +0.000 A 
ATOM      4  N   UNL     1       5.759   4.219  17.702  0.00  0.00    +0.000 N 
ATOM      5  N   UNL     1       4.060   3.434  19.022  0.00  0.00    +0.000 NA
ATOM      6  C   UNL     1       2.934   3.731  19.681  0.00  0.00    +0.000 A 
ATOM      7  N   UNL     1       2.137   2.866  20.374  0.00  0.00    +0.000 N 
ATOM      8  C   UNL     1       1.086   3.588  20.873  0.00  0.00    +0.000 A 
ATOM      9  N   UNL     1       1.169   4.860  20.547  0.00  0.00    +0.000 NA
ATOM     10  C   UNL     1       2.327   4.965  19.797  0.00  0.00    +0.000 A 
ATOM     11  H   UNL     1       6.057   3.292  17.983  0.00  0.00    +0.000 HD
ATOM     12  H   UNL     1       2.299   1.876  20.482  0.00  0.00    +0.000 HD
ENDROOT
BRANCH   1  14
ATOM     13  N   UNL     1       2.357   7.862  18.103  0.00  0.00    +0.000 NA
ATOM     14  N   UNL     1       2.377   7.277  19.204  0.00  0.00    +0.000 NA
BRANCH  13  17
ATOM     15  C   UNL     1      -0.574  10.130  17.829  0.00  0.00    +0.000 A 
ATOM     16  C   UNL     1       0.268   9.010  17.723  0.00  0.00    +0.000 A 
ATOM     17  C   UNL     1       1.603   9.055  18.146  0.00  0.00    +0.000 A 
ATOM     18  C   UNL     1       2.091  10.258  18.683  0.00  0.00    +0.000 A 
ATOM     19  C   UNL     1       1.279  11.399  18.790  0.00  0.00    +0.000 A 
ATOM     20  C   UNL     1      -0.052  11.324  18.352  0.00  0.00    +0.000 A 
BRANCH  15  22
ATOM     21  F   UNL     1      -2.756   9.186  18.191  0.00  0.00    +0.000 F 
ATOM     22  C   UNL     1      -2.029  10.054  17.436  0.00  0.00    +0.000 C 
ATOM     23  F   UNL     1      -2.200   9.663  16.143  0.00  0.00    +0.000 F 
ATOM     24  F   UNL     1      -2.655  11.259  17.546  0.00  0.00    +0.000 F 
ENDBRANCH  15  22
BRANCH  19  25
ATOM     25  C   UNL     1       1.807  12.676  19.398  0.00  0.00    +0.000 C 
ATOM     26  F   UNL     1       2.017  12.601  20.741  0.00  0.00    +0.000 F 
ATOM     27  F   UNL     1       2.993  13.060  18.852  0.00  0.00    +0.000 F 
ATOM     28  F   UNL     1       0.956  13.723  19.212  0.00  0.00    +0.000 F 
ENDBRANCH  19  25
ENDBRANCH  13  17
ENDBRANCH   1  14
BRANCH   4  29
ATOM     29  C   UNL     1       6.780   5.259  17.663  0.00  0.00    +0.000 C 
BRANCH  29  30
ATOM     30  C   UNL     1       6.665   6.086  16.372  0.00  0.00    +0.000 C 
BRANCH  30  31
ATOM     31  O   UNL     1       7.617   5.607  15.419  0.00  0.00    +0.000 OA
BRANCH  31  32
ATOM     32  C   UNL     1       7.100   4.927  14.348  0.00  0.00    +0.000 A 
ATOM     33  C   UNL     1       7.781   5.105  13.141  0.00  0.00    +0.000 A 
ATOM     34  C   UNL     1       7.352   4.456  11.981  0.00  0.00    +0.000 A 
ATOM     35  C   UNL     1       6.247   3.609  12.027  0.00  0.00    +0.000 A 
ATOM     36  C   UNL     1       5.578   3.409  13.233  0.00  0.00    +0.000 A 
ATOM     37  C   UNL     1       6.004   4.064  14.393  0.00  0.00    +0.000 A 
ENDBRANCH  31  32
ENDBRANCH  30  31
ENDBRANCH  29  30
ENDBRANCH   4  29
TORSDOF 8
ENDMDL
MODEL 6
REMARK VINA RESULT:      -8.7      3.487      4.728
REMARK  Name = 
REMARK  8 active torsions:
REMARK  status: ('A' for Active; 'I' for Inactive)
REMARK    1  A    between atoms: C_2  and  C_5
REMARK    2  A    between atoms: C_7  and  N_8
REMARK    3  A    between atoms: N_9  and  C_10
REMARK    4  A    between atoms: N_13  and  C_14
REMARK    5  A    between atoms: C_14  and  C_15
REMARK    6  A    between atoms: C_15  and  O_16
REMARK    7  A    between atoms: O_16  and  C_17
REMARK    8  A    between atoms: C_30  and  C_31
REMARK                            x       y       z     vdW  Elec       q    Type
REMARK                         _______ _______ _______ _____ _____    ______ ____
ROOT
ATOM      1  C   UNL     1       3.717   6.433  18.279  0.00  0.00    +0.000 A 
ATOM      2  N   UNL     1       4.997   6.856  18.082  0.00  0.00    +0.000 NA
ATOM      3  C   UNL     1       5.850   6.060  17.412  0.00  0.00    +0.000 A 
ATOM      4  N   UNL     1       7.150   6.479  17.172  0.00  0.00    +0.000 N 
ATOM      5  N   UNL     1       5.568   4.843  16.912  0.00  0.00    +0.000 NA
ATOM      6  C   UNL     1       4.299   4.478  17.129  0.00  0.00    +0.000 A 
ATOM      7  N   UNL     1       3.702   3.316  16.734  0.00  0.00    +0.000 N 
ATOM      8  C   UNL     1       2.398   3.364  17.149  0.00  0.00    +0.000 A 
ATOM      9  N   UNL     1       2.130   4.481  17.791  0.00  0.00    +0.000 NA
ATOM     10  C   UNL     1       3.318   5.191  17.787  0.00  0.00    +0.000 A 
ATOM     11  H   UNL     1       7.668   5.664  16.864  0.00  0.00    +0.000 HD
ATOM     12  H   UNL     1       4.148   2.571  16.220  0.00  0.00    +0.000 HD
ENDROOT
BRANCH   1  14
ATOM     13  N   UNL     1       2.433   8.240  18.280  0.00  0.00    +0.000 NA
ATOM     14  N   UNL     1       2.739   7.213  18.918  0.00  0.00    +0.000 NA
BRANCH  13  17
ATOM     15  C   UNL     1       0.190   9.618  20.902  0.00  0.00    +0.000 A 
ATOM     16  C   UNL     1       1.196   8.887  20.249  0.00  0.00    +0.000 A 
ATOM     17  C   UNL     1       1.338   8.919  18.856  0.00  0.00    +0.000 A 
ATOM     18  C   UNL     1       0.441   9.706  18.113  0.00  0.00    +0.000 A 
ATOM     19  C   UNL     1      -0.585  10.437  18.735  0.00  0.00    +0.000 A 
ATOM     20  C   UNL     1      -0.704  10.380  20.132  0.00  0.00    +0.000 A 
BRANCH  15  22
ATOM     21  F   UNL     1      -0.241  10.849  22.923  0.00  0.00    +0.000 F 
ATOM     22  C   UNL     1       0.087   9.633  22.408  0.00  0.00    +0.000 C 
ATOM     23  F   UNL     1       1.250   9.268  23.014  0.00  0.00    +0.000 F 
ATOM     24  F   UNL     1      -0.859   8.766  22.867  0.00  0.00    +0.000 F 
ENDBRANCH  15  22
BRANCH  19  25
ATOM     25  C   UNL     1      -1.522  11.303  17.929  0.00  0.00    +0.000 C 
ATOM     26  F   UNL     1      -1.845  10.782  16.714  0.00  0.00    +0.000 F 
ATOM     27  F   UNL     1      -2.703  11.527  18.569  0.00  0.00    +0.000 F 
ATOM     28  F   UNL     1      -0.996  12.534  17.678  0.00  0.00    +0.000 F 
ENDBRANCH  19  25
ENDBRANCH  13  17
ENDBRANCH   1  14
BRANCH   4  29
ATOM     29  C   UNL     1       7.770   7.308  18.199  0.00  0.00    +0.000 C 
BRANCH  29  30
ATOM     30  C   UNL     1       8.003   8.736  17.677  0.00  0.00    +0.000 C 
BRANCH  30  31
ATOM     31  O   UNL     1       8.771   9.468  18.636  0.00  0.00    +0.000 OA
BRANCH  31  32
ATOM     32  C   UNL     1       9.154  10.727  18.258  0.00  0.00    +0.000 A 
ATOM     33  C   UNL     1      10.532  10.961  18.269  0.00  0.00    +0.000 A 
ATOM     34  C   UNL     1      11.044  12.206  17.895  0.00  0.00    +0.000 A 
ATOM     35  C   UNL     1      10.179  13.220  17.491  0.00  0.00    +0.000 A 
ATOM     36  C   UNL     1       8.805  12.985  17.456  0.00  0.00    +0.000 A 
ATOM     37  C   UNL     1       8.292  11.741  17.837  0.00  0.00    +0.000 A 
ENDBRANCH  31  32
ENDBRANCH  30  31
ENDBRANCH  29  30
ENDBRANCH   4  29
TORSDOF 8
ENDMDL
MODEL 7
REMARK VINA RESULT:      -8.7      0.565      1.341
REMARK  Name = 
REMARK  8 active torsions:
REMARK  status: ('A' for Active; 'I' for Inactive)
REMARK    1  A    between atoms: C_2  and  C_5
REMARK    2  A    between atoms: C_7  and  N_8
REMARK    3  A    between atoms: N_9  and  C_10
REMARK    4  A    between atoms: N_13  and  C_14
REMARK    5  A    between atoms: C_14  and  C_15
REMARK    6  A    between atoms: C_15  and  O_16
REMARK    7  A    between atoms: O_16  and  C_17
REMARK    8  A    between atoms: C_30  and  C_31
REMARK                            x       y       z     vdW  Elec       q    Type
REMARK                         _______ _______ _______ _____ _____    ______ ____
ROOT
ATOM      1  C   UNL     1       2.629   5.730  19.427  0.00  0.00    +0.000 A 
ATOM      2  N   UNL     1       3.443   5.685  18.336  0.00  0.00    +0.000 NA
ATOM      3  C   UNL     1       3.821   4.488  17.854  0.00  0.00    +0.000 A 
ATOM      4  N   UNL     1       4.625   4.413  16.726  0.00  0.00    +0.000 N 
ATOM      5  N   UNL     1       3.484   3.289  18.363  0.00  0.00    +0.000 NA
ATOM      6  C   UNL     1       2.683   3.389  19.431  0.00  0.00    +0.000 A 
ATOM      7  N   UNL     1       2.153   2.361  20.158  0.00  0.00    +0.000 N 
ATOM      8  C   UNL     1       1.383   2.913  21.145  0.00  0.00    +0.000 A 
ATOM      9  N   UNL     1       1.394   4.228  21.097  0.00  0.00    +0.000 NA
ATOM     10  C   UNL     1       2.209   4.541  20.023  0.00  0.00    +0.000 A 
ATOM     11  H   UNL     1       4.966   3.460  16.673  0.00  0.00    +0.000 HD
ATOM     12  H   UNL     1       2.303   1.379  19.981  0.00  0.00    +0.000 HD
ENDROOT
BRANCH   1  14
ATOM     13  N   UNL     1       1.958   7.820  19.118  0.00  0.00    +0.000 NA
ATOM     14  N   UNL     1       2.136   6.927  19.971  0.00  0.00    +0.000 NA
BRANCH  13  17
ATOM     15  C   UNL     1       0.187   9.961  21.584  0.00  0.00    +0.000 A 
ATOM     16  C   UNL     1       0.759   8.851  20.941  0.00  0.00    +0.000 A 
ATOM     17  C   UNL     1       1.312   8.953  19.658  0.00  0.00    +0.000 A 
ATOM     18  C   UNL     1       1.281  10.202  19.016  0.00  0.00    +0.000 A 
ATOM     19  C   UNL     1       0.704  11.328  19.627  0.00  0.00    +0.000 A 
ATOM     20  C   UNL     1       0.153  11.193  20.910  0.00  0.00    +0.000 A 
BRANCH  15  22
ATOM     21  F   UNL     1       0.615   9.603  23.923  0.00  0.00    +0.000 F 
ATOM     22  C   UNL     1      -0.345   9.861  22.993  0.00  0.00    +0.000 C 
ATOM     23  F   UNL     1      -1.276   8.877  23.131  0.00  0.00    +0.000 F 
ATOM     24  F   UNL     1      -0.956  11.010  23.395  0.00  0.00    +0.000 F 
ENDBRANCH  15  22
BRANCH  19  25
ATOM     25  C   UNL     1       0.706  12.673  18.940  0.00  0.00    +0.000 C 
ATOM     26  F   UNL     1       1.745  12.849  18.078  0.00  0.00    +0.000 F 
ATOM     27  F   UNL     1      -0.427  12.887  18.214  0.00  0.00    +0.000 F 
ATOM     28  F   UNL     1       0.779  13.703  19.827  0.00  0.00    +0.000 F 
ENDBRANCH  19  25
ENDBRANCH  13  17
ENDBRANCH   1  14
BRANCH   4  29
ATOM     29  C   UNL     1       5.605   5.478  16.551  0.00  0.00    +0.000 C 
BRANCH  29  30
ATOM     30  C   UNL     1       7.014   4.893  16.359  0.00  0.00    +0.000 C 
BRANCH  30  31
ATOM     31  O   UNL     1       7.627   5.505  15.220  0.00  0.00    +0.000 OA
BRANCH  31  32
ATOM     32  C   UNL     1       7.329   4.942  14.008  0.00  0.00    +0.000 A 
ATOM     33  C   UNL     1       6.370   3.927  14.039  0.00  0.00    +0.000 A 
ATOM     34  C   UNL     1       5.978   3.283  12.862  0.00  0.00    +0.000 A 
ATOM     35  C   UNL     1       6.534   3.665  11.644  0.00  0.00    +0.000 A 
ATOM     36  C   UNL     1       7.475   4.693  11.603  0.00  0.00    +0.000 A 
ATOM     37  C   UNL     1       7.872   5.332  12.782  0.00  0.00    +0.000 A 
ENDBRANCH  31  32
ENDBRANCH  30  31
ENDBRANCH  29  30
ENDBRANCH   4  29
TORSDOF 8
ENDMDL
MODEL 8
REMARK VINA RESULT:      -8.7      5.152      9.990
REMARK  Name = 
REMARK  8 active torsions:
REMARK  status: ('A' for Active; 'I' for Inactive)
REMARK    1  A    between atoms: C_2  and  C_5
REMARK    2  A    between atoms: C_7  and  N_8
REMARK    3  A    between atoms: N_9  and  C_10
REMARK    4  A    between atoms: N_13  and  C_14
REMARK    5  A    between atoms: C_14  and  C_15
REMARK    6  A    between atoms: C_15  and  O_16
REMARK    7  A    between atoms: O_16  and  C_17
REMARK    8  A    between atoms: C_30  and  C_31
REMARK                            x       y       z     vdW  Elec       q    Type
REMARK                         _______ _______ _______ _____ _____    ______ ____
ROOT
ATOM      1  C   UNL     1       0.286  10.413  18.294  0.00  0.00    +0.000 A 
ATOM      2  N   UNL     1       0.948  11.434  18.906  0.00  0.00    +0.000 NA
ATOM      3  C   UNL     1       0.319  12.611  19.072  0.00  0.00    +0.000 A 
ATOM      4  N   UNL     1       0.959  13.658  19.719  0.00  0.00    +0.000 N 
ATOM      5  N   UNL     1      -0.932  12.903  18.669  0.00  0.00    +0.000 NA
ATOM      6  C   UNL     1      -1.538  11.867  18.078  0.00  0.00    +0.000 A 
ATOM      7  N   UNL     1      -2.808  11.836  17.579  0.00  0.00    +0.000 N 
ATOM      8  C   UNL     1      -3.023  10.579  17.082  0.00  0.00    +0.000 A 
ATOM      9  N   UNL     1      -1.965   9.809  17.226  0.00  0.00    +0.000 NA
ATOM     10  C   UNL     1      -1.022  10.607  17.851  0.00  0.00    +0.000 A 
ATOM     11  H   UNL     1       0.411  14.492  19.539  0.00  0.00    +0.000 HD
ATOM     12  H   UNL     1      -3.463  12.604  17.590  0.00  0.00    +0.000 HD
ENDROOT
BRANCH   1  14
ATOM     13  N   UNL     1       2.025   9.154  17.745  0.00  0.00    +0.000 NA
ATOM     14  N   UNL     1       0.836   9.133  18.122  0.00  0.00    +0.000 NA
BRANCH  13  17
ATOM     15  C   UNL     1       4.613   6.512  17.383  0.00  0.00    +0.000 A 
ATOM     16  C   UNL     1       3.937   7.743  17.324  0.00  0.00    +0.000 A 
ATOM     17  C   UNL     1       2.605   7.866  17.738  0.00  0.00    +0.000 A 
ATOM     18  C   UNL     1       1.947   6.721  18.219  0.00  0.00    +0.000 A 
ATOM     19  C   UNL     1       2.591   5.474  18.277  0.00  0.00    +0.000 A 
ATOM     20  C   UNL     1       3.924   5.381  17.849  0.00  0.00    +0.000 A 
BRANCH  15  22
ATOM     21  F   UNL     1       6.780   5.553  17.791  0.00  0.00    +0.000 F 
ATOM     22  C   UNL     1       6.069   6.401  17.000  0.00  0.00    +0.000 C 
ATOM     23  F   UNL     1       6.716   7.598  17.054  0.00  0.00    +0.000 F 
ATOM     24  F   UNL     1       6.232   5.948  15.725  0.00  0.00    +0.000 F 
ENDBRANCH  15  22
BRANCH  19  25
ATOM     25  C   UNL     1       1.883   4.258  18.824  0.00  0.00    +0.000 C 
ATOM     26  F   UNL     1       1.045   3.662  17.933  0.00  0.00    +0.000 F 
ATOM     27  F   UNL     1       2.751   3.291  19.231  0.00  0.00    +0.000 F 
ATOM     28  F   UNL     1       1.121   4.554  19.913  0.00  0.00    +0.000 F 
ENDBRANCH  19  25
ENDBRANCH  13  17
ENDBRANCH   1  14
BRANCH   4  29
ATOM     29  C   UNL     1       2.401  13.759  19.528  0.00  0.00    +0.000 C 
BRANCH  29  30
ATOM     30  C   UNL     1       2.730  14.693  18.353  0.00  0.00    +0.000 C 
BRANCH  30  31
ATOM     31  O   UNL     1       2.615  16.052  18.785  0.00  0.00    +0.000 OA
BRANCH  31  32
ATOM     32  C   UNL     1       1.628  16.789  18.186  0.00  0.00    +0.000 A 
ATOM     33  C   UNL     1       2.049  17.617  17.143  0.00  0.00    +0.000 A 
ATOM     34  C   UNL     1       1.131  18.411  16.451  0.00  0.00    +0.000 A 
ATOM     35  C   UNL     1      -0.219  18.365  16.788  0.00  0.00    +0.000 A 
ATOM     36  C   UNL     1      -0.649  17.522  17.812  0.00  0.00    +0.000 A 
ATOM     37  C   UNL     1       0.271  16.733  18.509  0.00  0.00    +0.000 A 
ENDBRANCH  31  32
ENDBRANCH  30  31
ENDBRANCH  29  30
ENDBRANCH   4  29
TORSDOF 8
ENDMDL
MODEL 9
REMARK VINA RESULT:      -8.7      5.021     10.066
REMARK  Name = 
REMARK  8 active torsions:
REMARK  status: ('A' for Active; 'I' for Inactive)
REMARK    1  A    between atoms: C_2  and  C_5
REMARK    2  A    between atoms: C_7  and  N_8
REMARK    3  A    between atoms: N_9  and  C_10
REMARK    4  A    between atoms: N_13  and  C_14
REMARK    5  A    between atoms: C_14  and  C_15
REMARK    6  A    between atoms: C_15  and  O_16
REMARK    7  A    between atoms: O_16  and  C_17
REMARK    8  A    between atoms: C_30  and  C_31
REMARK                            x       y       z     vdW  Elec       q    Type
REMARK                         _______ _______ _______ _____ _____    ______ ____
ROOT
ATOM      1  C   UNL     1       0.887  10.779  18.685  0.00  0.00    +0.000 A 
ATOM      2  N   UNL     1       1.475  11.851  19.285  0.00  0.00    +0.000 NA
ATOM      3  C   UNL     1       0.747  12.964  19.488  0.00  0.00    +0.000 A 
ATOM      4  N   UNL     1       1.312  14.059  20.124  0.00  0.00    +0.000 N 
ATOM      5  N   UNL     1      -0.539  13.143  19.134  0.00  0.00    +0.000 NA
ATOM      6  C   UNL     1      -1.069  12.061  18.551  0.00  0.00    +0.000 A 
ATOM      7  N   UNL     1      -2.348  11.918  18.098  0.00  0.00    +0.000 N 
ATOM      8  C   UNL     1      -2.465  10.651  17.593  0.00  0.00    +0.000 A 
ATOM      9  N   UNL     1      -1.336   9.980  17.691  0.00  0.00    +0.000 NA
ATOM     10  C   UNL     1      -0.449  10.856  18.291  0.00  0.00    +0.000 A 
ATOM     11  H   UNL     1       0.684  14.841  19.974  0.00  0.00    +0.000 HD
ATOM     12  H   UNL     1      -3.069  12.622  18.142  0.00  0.00    +0.000 HD
ENDROOT
BRANCH   1  14
ATOM     13  N   UNL     1       1.591   8.842  19.500  0.00  0.00    +0.000 NA
ATOM     14  N   UNL     1       1.545   9.556  18.478  0.00  0.00    +0.000 NA
BRANCH  13  17
ATOM     15  C   UNL     1       3.660   6.193  17.917  0.00  0.00    +0.000 A 
ATOM     16  C   UNL     1       3.028   7.419  18.183  0.00  0.00    +0.000 A 
ATOM     17  C   UNL     1       2.108   7.556  19.230  0.00  0.00    +0.000 A 
ATOM     18  C   UNL     1       1.822   6.428  20.018  0.00  0.00    +0.000 A 
ATOM     19  C   UNL     1       2.427   5.185  19.769  0.00  0.00    +0.000 A 
ATOM     20  C   UNL     1       3.340   5.078  18.709  0.00  0.00    +0.000 A 
BRANCH  15  22
ATOM     21  F   UNL     1       4.723   4.851  16.227  0.00  0.00    +0.000 F 
ATOM     22  C   UNL     1       4.703   6.070  16.832  0.00  0.00    +0.000 C 
ATOM     23  F   UNL     1       5.965   6.282  17.294  0.00  0.00    +0.000 F 
ATOM     24  F   UNL     1       4.515   6.978  15.833  0.00  0.00    +0.000 F 
ENDBRANCH  15  22
BRANCH  19  25
ATOM     25  C   UNL     1       2.135   3.989  20.643  0.00  0.00    +0.000 C 
ATOM     26  F   UNL     1       2.778   2.854  20.253  0.00  0.00    +0.000 F 
ATOM     27  F   UNL     1       2.489   4.196  21.941  0.00  0.00    +0.000 F 
ATOM     28  F   UNL     1       0.809   3.679  20.663  0.00  0.00    +0.000 F 
ENDBRANCH  19  25
ENDBRANCH  13  17
ENDBRANCH   1  14
BRANCH   4  29
ATOM     29  C   UNL     1       2.731  14.294  19.884  0.00  0.00    +0.000 C 
BRANCH  29  30
ATOM     30  C   UNL     1       2.933  15.173  18.639  0.00  0.00    +0.000 C 
BRANCH  30  31
ATOM     31  O   UNL     1       2.651  16.535  18.973  0.00  0.00    +0.000 OA
BRANCH  31  32
ATOM     32  C   UNL     1       1.667  17.139  18.236  0.00  0.00    +0.000 A 
ATOM     33  C   UNL     1       0.385  17.079  18.787  0.00  0.00    +0.000 A 
ATOM     34  C   UNL     1      -0.699  17.667  18.131  0.00  0.00    +0.000 A 
ATOM     35  C   UNL     1      -0.501  18.336  16.925  0.00  0.00    +0.000 A 
ATOM     36  C   UNL     1       0.780  18.420  16.382  0.00  0.00    +0.000 A 
ATOM     37  C   UNL     1       1.864  17.825  17.037  0.00  0.00    +0.000 A 
ENDBRANCH  31  32
ENDBRANCH  30  31
ENDBRANCH  29  30
ENDBRANCH   4  29
TORSDOF 8
ENDMDL
