MODEL 1
REMARK VINA RESULT:      -6.9      0.000      0.000
REMARK  Name = 
REMARK  18 active torsions:
REMARK  status: ('A' for Active; 'I' for Inactive)
REMARK    1  A    between atoms: C_1  and  C_2
REMARK    2  A    between atoms: C_2  and  C_3
REMARK    3  A    between atoms: C_3  and  C_4
REMARK    4  A    between atoms: C_4  and  C_5
REMARK    5  A    between atoms: C_5  and  C_6
REMARK    6  A    between atoms: C_6  and  O_7
REMARK    7  A    between atoms: O_7  and  C_8
REMARK    8  A    between atoms: C_9  and  C_10
REMARK    9  A    between atoms: N_11  and  N_12
REMARK   10  A    between atoms: C_18  and  C_19
REMARK   11  A    between atoms: N_20  and  N_21
REMARK   12  A    between atoms: C_25  and  O_26
REMARK   13  A    between atoms: O_26  and  C_27
REMARK   14  A    between atoms: C_27  and  C_28
REMARK   15  A    between atoms: C_28  and  C_29
REMARK   16  A    between atoms: C_29  and  C_30
REMARK   17  A    between atoms: C_30  and  C_31
REMARK   18  A    between atoms: C_31  and  C_32
REMARK                            x       y       z     vdW  Elec       q    Type
REMARK                         _______ _______ _______ _____ _____    ______ ____
ROOT
ATOM      1  C   UNL     1       1.379   8.206  19.975  0.00  0.00    +0.000 A 
ATOM      2  C   UNL     1       1.341   9.178  18.941  0.00  0.00    +0.000 A 
ATOM      3  C   UNL     1       2.123   9.036  17.794  0.00  0.00    +0.000 A 
ATOM      4  C   UNL     1       2.967   7.951  17.651  0.00  0.00    +0.000 A 
ATOM      5  C   UNL     1       3.058   6.980  18.658  0.00  0.00    +0.000 A 
ATOM      6  C   UNL     1       2.256   7.080  19.823  0.00  0.00    +0.000 A 
ENDROOT
BRANCH   5   7
ATOM      7  C   UNL     1       4.048   5.885  18.426  0.00  0.00    +0.000 C 
ATOM      8  N   UNL     1       4.763   5.901  17.342  0.00  0.00    +0.000 NA
BRANCH   8   9
ATOM      9  N   UNL     1       5.705   4.931  17.168  0.00  0.00    +0.000 N 
ATOM     10  C   UNL     1       6.993   5.271  16.856  0.00  0.00    +0.000 C 
ATOM     11  N   UNL     1       7.389   6.475  16.615  0.00  0.00    +0.000 NA
ATOM     12  N   UNL     1       7.882   4.257  16.796  0.00  0.00    +0.000 N 
ATOM     13  H   UNL     1       5.623   4.068  17.699  0.00  0.00    +0.000 HD
ATOM     14  H   UNL     1       6.525   7.029  16.735  0.00  0.00    +0.000 HD
ATOM     15  H   UNL     1       7.579   3.502  16.193  0.00  0.00    +0.000 HD
ATOM     16  H   UNL     1       8.761   4.635  16.447  0.00  0.00    +0.000 HD
ENDBRANCH   8   9
ENDBRANCH   5   7
BRANCH   2  17
ATOM     17  C   UNL     1       0.501  10.387  18.927  0.00  0.00    +0.000 C 
ATOM     18  N   UNL     1       0.820  11.476  19.555  0.00  0.00    +0.000 NA
BRANCH  18  19
ATOM     19  N   UNL     1      -0.226  12.405  19.415  0.00  0.00    +0.000 NA
ATOM     20  C   UNL     1       0.172  13.540  18.940  0.00  0.00    +0.000 C 
ATOM     21  N   UNL     1       1.439  13.803  18.540  0.00  0.00    +0.000 N 
ATOM     22  N   UNL     1      -0.658  14.587  18.758  0.00  0.00    +0.000 N 
ATOM     23  H   UNL     1       1.989  12.977  18.772  0.00  0.00    +0.000 HD
ATOM     24  H   UNL     1       1.847  14.619  18.975  0.00  0.00    +0.000 HD
ATOM     25  H   UNL     1      -1.543  14.493  19.248  0.00  0.00    +0.000 HD
ATOM     26  H   UNL     1      -0.255  15.511  18.795  0.00  0.00    +0.000 HD
ENDBRANCH  18  19
ENDBRANCH   2  17
BRANCH   1  27
ATOM     27  O   UNL     1       0.696   8.292  21.168  0.00  0.00    +0.000 OA
BRANCH  27  28
ATOM     28  C   UNL     1       1.248   8.994  22.273  0.00  0.00    +0.000 C 
BRANCH  28  29
ATOM     29  C   UNL     1       0.183   9.618  23.170  0.00  0.00    +0.000 C 
BRANCH  29  30
ATOM     30  C   UNL     1      -0.928  10.364  22.431  0.00  0.00    +0.000 C 
BRANCH  30  31
ATOM     31  C   UNL     1      -1.186  11.774  22.965  0.00  0.00    +0.000 C 
BRANCH  31  33
ATOM     32  C   UNL     1      -3.484  12.617  23.566  0.00  0.00    +0.000 C 
ATOM     33  C   UNL     1      -2.513  12.312  22.439  0.00  0.00    +0.000 C 
ENDBRANCH  31  33
ENDBRANCH  30  31
ENDBRANCH  29  30
ENDBRANCH  28  29
ENDBRANCH  27  28
ENDBRANCH   1  27
BRANCH   6  34
ATOM     34  O   UNL     1       2.411   6.027  20.709  0.00  0.00    +0.000 OA
BRANCH  34  35
ATOM     35  C   UNL     1       1.484   4.940  20.651  0.00  0.00    +0.000 C 
BRANCH  35  36
ATOM     36  C   UNL     1       2.076   3.655  21.227  0.00  0.00    +0.000 C 
BRANCH  36  37
ATOM     37  C   UNL     1       2.180   2.563  20.169  0.00  0.00    +0.000 C 
BRANCH  37  38
ATOM     38  C   UNL     1       3.621   2.334  19.713  0.00  0.00    +0.000 C 
BRANCH  38  39
ATOM     39  C   UNL     1       3.657   2.089  18.206  0.00  0.00    +0.000 C 
ATOM     40  C   UNL     1       2.402   2.589  17.515  0.00  0.00    +0.000 C 
ENDBRANCH  38  39
ENDBRANCH  37  38
ENDBRANCH  36  37
ENDBRANCH  35  36
ENDBRANCH  34  35
ENDBRANCH   6  34
TORSDOF 16
ENDMDL
MODEL 2
REMARK VINA RESULT:      -6.8      1.469      1.814
REMARK  Name = 
REMARK  18 active torsions:
REMARK  status: ('A' for Active; 'I' for Inactive)
REMARK    1  A    between atoms: C_1  and  C_2
REMARK    2  A    between atoms: C_2  and  C_3
REMARK    3  A    between atoms: C_3  and  C_4
REMARK    4  A    between atoms: C_4  and  C_5
REMARK    5  A    between atoms: C_5  and  C_6
REMARK    6  A    between atoms: C_6  and  O_7
REMARK    7  A    between atoms: O_7  and  C_8
REMARK    8  A    between atoms: C_9  and  C_10
REMARK    9  A    between atoms: N_11  and  N_12
REMARK   10  A    between atoms: C_18  and  C_19
REMARK   11  A    between atoms: N_20  and  N_21
REMARK   12  A    between atoms: C_25  and  O_26
REMARK   13  A    between atoms: O_26  and  C_27
REMARK   14  A    between atoms: C_27  and  C_28
REMARK   15  A    between atoms: C_28  and  C_29
REMARK   16  A    between atoms: C_29  and  C_30
REMARK   17  A    between atoms: C_30  and  C_31
REMARK   18  A    between atoms: C_31  and  C_32
REMARK                            x       y       z     vdW  Elec       q    Type
REMARK                         _______ _______ _______ _____ _____    ______ ____
ROOT
ATOM      1  C   UNL     1       1.310   8.071  19.863  0.00  0.00    +0.000 A 
ATOM      2  C   UNL     1       1.258   8.959  18.755  0.00  0.00    +0.000 A 
ATOM      3  C   UNL     1       2.123   8.803  17.671  0.00  0.00    +0.000 A 
ATOM      4  C   UNL     1       3.063   7.789  17.663  0.00  0.00    +0.000 A 
ATOM      5  C   UNL     1       3.169   6.906  18.746  0.00  0.00    +0.000 A 
ATOM      6  C   UNL     1       2.286   7.018  19.850  0.00  0.00    +0.000 A 
ENDROOT
BRANCH   5   7
ATOM      7  C   UNL     1       4.259   5.888  18.659  0.00  0.00    +0.000 C 
ATOM      8  N   UNL     1       4.744   5.582  17.494  0.00  0.00    +0.000 NA
BRANCH   8   9
ATOM      9  N   UNL     1       5.779   4.696  17.429  0.00  0.00    +0.000 N 
ATOM     10  C   UNL     1       7.022   5.120  17.048  0.00  0.00    +0.000 C 
ATOM     11  N   UNL     1       7.290   6.314  16.641  0.00  0.00    +0.000 NA
ATOM     12  N   UNL     1       8.010   4.201  17.104  0.00  0.00    +0.000 N 
ATOM     13  H   UNL     1       5.789   3.909  18.072  0.00  0.00    +0.000 HD
ATOM     14  H   UNL     1       6.375   6.789  16.705  0.00  0.00    +0.000 HD
ATOM     15  H   UNL     1       7.781   3.346  16.614  0.00  0.00    +0.000 HD
ATOM     16  H   UNL     1       8.843   4.615  16.690  0.00  0.00    +0.000 HD
ENDBRANCH   8   9
ENDBRANCH   5   7
BRANCH   2  17
ATOM     17  C   UNL     1       0.323  10.085  18.597  0.00  0.00    +0.000 C 
ATOM     18  N   UNL     1      -0.961   9.930  18.517  0.00  0.00    +0.000 NA
BRANCH  18  19
ATOM     19  N   UNL     1      -1.557  11.182  18.284  0.00  0.00    +0.000 NA
ATOM     20  C   UNL     1      -2.778  11.085  17.870  0.00  0.00    +0.000 C 
ATOM     21  N   UNL     1      -3.457   9.920  17.741  0.00  0.00    +0.000 N 
ATOM     22  N   UNL     1      -3.528  12.160  17.550  0.00  0.00    +0.000 N 
ATOM     23  H   UNL     1      -2.790   9.178  17.948  0.00  0.00    +0.000 HD
ATOM     24  H   UNL     1      -3.857   9.775  16.825  0.00  0.00    +0.000 HD
ATOM     25  H   UNL     1      -2.986  13.010  17.424  0.00  0.00    +0.000 HD
ATOM     26  H   UNL     1      -4.263  12.028  16.872  0.00  0.00    +0.000 HD
ENDBRANCH  18  19
ENDBRANCH   2  17
BRANCH   1  27
ATOM     27  O   UNL     1       0.545   8.183  21.002  0.00  0.00    +0.000 OA
BRANCH  27  28
ATOM     28  C   UNL     1       0.929   9.058  22.053  0.00  0.00    +0.000 C 
BRANCH  28  29
ATOM     29  C   UNL     1      -0.193   9.310  23.054  0.00  0.00    +0.000 C 
BRANCH  29  30
ATOM     30  C   UNL     1      -0.854  10.685  22.953  0.00  0.00    +0.000 C 
BRANCH  30  31
ATOM     31  C   UNL     1      -0.300  11.553  21.822  0.00  0.00    +0.000 C 
BRANCH  31  33
ATOM     32  C   UNL     1      -1.438  13.237  23.314  0.00  0.00    +0.000 C 
ATOM     33  C   UNL     1      -0.499  13.032  22.137  0.00  0.00    +0.000 C 
ENDBRANCH  31  33
ENDBRANCH  30  31
ENDBRANCH  29  30
ENDBRANCH  28  29
ENDBRANCH  27  28
ENDBRANCH   1  27
BRANCH   6  34
ATOM     34  O   UNL     1       2.470   6.050  20.823  0.00  0.00    +0.000 OA
BRANCH  34  35
ATOM     35  C   UNL     1       1.561   4.948  20.873  0.00  0.00    +0.000 C 
BRANCH  35  36
ATOM     36  C   UNL     1       2.248   3.664  21.336  0.00  0.00    +0.000 C 
BRANCH  36  37
ATOM     37  C   UNL     1       2.398   2.666  20.194  0.00  0.00    +0.000 C 
BRANCH  37  38
ATOM     38  C   UNL     1       1.761   3.167  18.899  0.00  0.00    +0.000 C 
BRANCH  38  39
ATOM     39  C   UNL     1       2.364   2.433  17.703  0.00  0.00    +0.000 C 
ATOM     40  C   UNL     1       3.656   1.722  18.060  0.00  0.00    +0.000 C 
ENDBRANCH  38  39
ENDBRANCH  37  38
ENDBRANCH  36  37
ENDBRANCH  35  36
ENDBRANCH  34  35
ENDBRANCH   6  34
TORSDOF 16
ENDMDL
MODEL 3
REMARK VINA RESULT:      -6.8      0.593      8.656
REMARK  Name = 
REMARK  18 active torsions:
REMARK  status: ('A' for Active; 'I' for Inactive)
REMARK    1  A    between atoms: C_1  and  C_2
REMARK    2  A    between atoms: C_2  and  C_3
REMARK    3  A    between atoms: C_3  and  C_4
REMARK    4  A    between atoms: C_4  and  C_5
REMARK    5  A    between atoms: C_5  and  C_6
REMARK    6  A    between atoms: C_6  and  O_7
REMARK    7  A    between atoms: O_7  and  C_8
REMARK    8  A    between atoms: C_9  and  C_10
REMARK    9  A    between atoms: N_11  and  N_12
REMARK   10  A    between atoms: C_18  and  C_19
REMARK   11  A    between atoms: N_20  and  N_21
REMARK   12  A    between atoms: C_25  and  O_26
REMARK   13  A    between atoms: O_26  and  C_27
REMARK   14  A    between atoms: C_27  and  C_28
REMARK   15  A    between atoms: C_28  and  C_29
REMARK   16  A    between atoms: C_29  and  C_30
REMARK   17  A    between atoms: C_30  and  C_31
REMARK   18  A    between atoms: C_31  and  C_32
REMARK                            x       y       z     vdW  Elec       q    Type
REMARK                         _______ _______ _______ _____ _____    ______ ____
ROOT
ATOM      1  C   UNL     1       2.120   7.209  19.805  0.00  0.00    +0.000 A 
ATOM      2  C   UNL     1       2.942   7.142  18.649  0.00  0.00    +0.000 A 
ATOM      3  C   UNL     1       2.894   8.139  17.675  0.00  0.00    +0.000 A 
ATOM      4  C   UNL     1       2.026   9.208  17.808  0.00  0.00    +0.000 A 
ATOM      5  C   UNL     1       1.177   9.303  18.919  0.00  0.00    +0.000 A 
ATOM      6  C   UNL     1       1.222   8.322  19.940  0.00  0.00    +0.000 A 
ENDROOT
BRANCH   5   7
ATOM      7  C   UNL     1       0.238  10.465  18.929  0.00  0.00    +0.000 C 
ATOM      8  N   UNL     1       0.717  11.664  18.787  0.00  0.00    +0.000 NA
BRANCH   8   9
ATOM      9  N   UNL     1      -0.152  12.713  18.739  0.00  0.00    +0.000 N 
ATOM     10  C   UNL     1       0.316  13.997  18.798  0.00  0.00    +0.000 C 
ATOM     11  N   UNL     1       1.552  14.312  18.996  0.00  0.00    +0.000 NA
ATOM     12  N   UNL     1      -0.601  14.976  18.647  0.00  0.00    +0.000 N 
ATOM     13  H   UNL     1      -1.012  12.612  18.206  0.00  0.00    +0.000 HD
ATOM     14  H   UNL     1       2.014  13.391  19.068  0.00  0.00    +0.000 HD
ATOM     15  H   UNL     1      -1.390  14.877  19.272  0.00  0.00    +0.000 HD
ATOM     16  H   UNL     1      -0.138  15.866  18.825  0.00  0.00    +0.000 HD
ENDBRANCH   8   9
ENDBRANCH   5   7
BRANCH   2  17
ATOM     17  C   UNL     1       3.920   6.083  18.349  0.00  0.00    +0.000 C 
ATOM     18  N   UNL     1       5.076   6.320  17.811  0.00  0.00    +0.000 NA
BRANCH  18  19
ATOM     19  N   UNL     1       5.728   5.097  17.576  0.00  0.00    +0.000 NA
ATOM     20  C   UNL     1       6.871   5.244  16.990  0.00  0.00    +0.000 C 
ATOM     21  N   UNL     1       7.435   6.440  16.694  0.00  0.00    +0.000 N 
ATOM     22  N   UNL     1       7.651   4.201  16.638  0.00  0.00    +0.000 N 
ATOM     23  H   UNL     1       6.747   7.149  16.946  0.00  0.00    +0.000 HD
ATOM     24  H   UNL     1       7.695   6.544  15.723  0.00  0.00    +0.000 HD
ATOM     25  H   UNL     1       7.163   3.310  16.643  0.00  0.00    +0.000 HD
ATOM     26  H   UNL     1       8.276   4.332  15.857  0.00  0.00    +0.000 HD
ENDBRANCH  18  19
ENDBRANCH   2  17
BRANCH   1  27
ATOM     27  O   UNL     1       2.051   6.244  20.785  0.00  0.00    +0.000 OA
BRANCH  27  28
ATOM     28  C   UNL     1       1.368   5.020  20.553  0.00  0.00    +0.000 C 
BRANCH  28  29
ATOM     29  C   UNL     1       2.135   3.807  21.070  0.00  0.00    +0.000 C 
BRANCH  29  30
ATOM     30  C   UNL     1       1.838   2.496  20.342  0.00  0.00    +0.000 C 
BRANCH  30  31
ATOM     31  C   UNL     1       1.175   2.686  18.976  0.00  0.00    +0.000 C 
BRANCH  31  33
ATOM     32  C   UNL     1       3.396   1.747  18.241  0.00  0.00    +0.000 C 
ATOM     33  C   UNL     1       2.217   2.628  17.863  0.00  0.00    +0.000 C 
ENDBRANCH  31  33
ENDBRANCH  30  31
ENDBRANCH  29  30
ENDBRANCH  28  29
ENDBRANCH  27  28
ENDBRANCH   1  27
BRANCH   6  34
ATOM     34  O   UNL     1       0.365   8.568  21.001  0.00  0.00    +0.000 OA
BRANCH  34  35
ATOM     35  C   UNL     1       0.856   9.311  22.119  0.00  0.00    +0.000 C 
BRANCH  35  36
ATOM     36  C   UNL     1      -0.269  10.028  22.864  0.00  0.00    +0.000 C 
BRANCH  36  37
ATOM     37  C   UNL     1      -0.636  11.345  22.191  0.00  0.00    +0.000 C 
BRANCH  37  38
ATOM     38  C   UNL     1      -1.298  12.325  23.159  0.00  0.00    +0.000 C 
BRANCH  38  39
ATOM     39  C   UNL     1      -2.783  11.998  23.298  0.00  0.00    +0.000 C 
ATOM     40  C   UNL     1      -3.631  12.744  22.284  0.00  0.00    +0.000 C 
ENDBRANCH  38  39
ENDBRANCH  37  38
ENDBRANCH  36  37
ENDBRANCH  35  36
ENDBRANCH  34  35
ENDBRANCH   6  34
TORSDOF 16
ENDMDL
MODEL 4
REMARK VINA RESULT:      -6.8      1.546      8.648
REMARK  Name = 
REMARK  18 active torsions:
REMARK  status: ('A' for Active; 'I' for Inactive)
REMARK    1  A    between atoms: C_1  and  C_2
REMARK    2  A    between atoms: C_2  and  C_3
REMARK    3  A    between atoms: C_3  and  C_4
REMARK    4  A    between atoms: C_4  and  C_5
REMARK    5  A    between atoms: C_5  and  C_6
REMARK    6  A    between atoms: C_6  and  O_7
REMARK    7  A    between atoms: O_7  and  C_8
REMARK    8  A    between atoms: C_9  and  C_10
REMARK    9  A    between atoms: N_11  and  N_12
REMARK   10  A    between atoms: C_18  and  C_19
REMARK   11  A    between atoms: N_20  and  N_21
REMARK   12  A    between atoms: C_25  and  O_26
REMARK   13  A    between atoms: O_26  and  C_27
REMARK   14  A    between atoms: C_27  and  C_28
REMARK   15  A    between atoms: C_28  and  C_29
REMARK   16  A    between atoms: C_29  and  C_30
REMARK   17  A    between atoms: C_30  and  C_31
REMARK   18  A    between atoms: C_31  and  C_32
REMARK                            x       y       z     vdW  Elec       q    Type
REMARK                         _______ _______ _______ _____ _____    ______ ____
ROOT
ATOM      1  C   UNL     1       2.239   7.235  19.798  0.00  0.00    +0.000 A 
ATOM      2  C   UNL     1       3.118   7.160  18.685  0.00  0.00    +0.000 A 
ATOM      3  C   UNL     1       3.050   8.098  17.653  0.00  0.00    +0.000 A 
ATOM      4  C   UNL     1       2.109   9.110  17.686  0.00  0.00    +0.000 A 
ATOM      5  C   UNL     1       1.203   9.208  18.751  0.00  0.00    +0.000 A 
ATOM      6  C   UNL     1       1.264   8.289  19.829  0.00  0.00    +0.000 A 
ENDROOT
BRANCH   5   7
ATOM      7  C   UNL     1       0.190  10.302  18.654  0.00  0.00    +0.000 C 
ATOM      8  N   UNL     1      -1.004  10.018  18.228  0.00  0.00    +0.000 NA
BRANCH   8   9
ATOM      9  N   UNL     1      -1.939  11.010  18.198  0.00  0.00    +0.000 N 
ATOM     10  C   UNL     1      -2.740  11.167  17.101  0.00  0.00    +0.000 C 
ATOM     11  N   UNL     1      -2.621  10.487  16.011  0.00  0.00    +0.000 NA
ATOM     12  N   UNL     1      -3.702  12.110  17.192  0.00  0.00    +0.000 N 
ATOM     13  H   UNL     1      -2.373  11.300  19.071  0.00  0.00    +0.000 HD
ATOM     14  H   UNL     1      -1.832   9.854  16.220  0.00  0.00    +0.000 HD
ATOM     15  H   UNL     1      -3.344  13.012  17.479  0.00  0.00    +0.000 HD
ATOM     16  H   UNL     1      -4.141  12.195  16.277  0.00  0.00    +0.000 HD
ENDBRANCH   8   9
ENDBRANCH   5   7
BRANCH   2  17
ATOM     17  C   UNL     1       4.176   6.156  18.490  0.00  0.00    +0.000 C 
ATOM     18  N   UNL     1       4.932   6.122  17.437  0.00  0.00    +0.000 NA
BRANCH  18  19
ATOM     19  N   UNL     1       5.774   4.998  17.517  0.00  0.00    +0.000 NA
ATOM     20  C   UNL     1       6.962   5.230  17.063  0.00  0.00    +0.000 C 
ATOM     21  N   UNL     1       7.396   6.436  16.624  0.00  0.00    +0.000 N 
ATOM     22  N   UNL     1       7.921   4.283  17.011  0.00  0.00    +0.000 N 
ATOM     23  H   UNL     1       6.587   7.056  16.650  0.00  0.00    +0.000 HD
ATOM     24  H   UNL     1       7.784   6.419  15.691  0.00  0.00    +0.000 HD
ATOM     25  H   UNL     1       7.565   3.338  17.120  0.00  0.00    +0.000 HD
ATOM     26  H   UNL     1       8.634   4.383  16.304  0.00  0.00    +0.000 HD
ENDBRANCH  18  19
ENDBRANCH   2  17
BRANCH   1  27
ATOM     27  O   UNL     1       2.187   6.323  20.828  0.00  0.00    +0.000 OA
BRANCH  27  28
ATOM     28  C   UNL     1       1.404   5.143  20.716  0.00  0.00    +0.000 C 
BRANCH  28  29
ATOM     29  C   UNL     1       2.099   3.914  21.294  0.00  0.00    +0.000 C 
BRANCH  29  30
ATOM     30  C   UNL     1       1.590   2.574  20.763  0.00  0.00    +0.000 C 
BRANCH  30  31
ATOM     31  C   UNL     1       0.902   2.672  19.400  0.00  0.00    +0.000 C 
BRANCH  31  33
ATOM     32  C   UNL     1       2.221   3.476  17.408  0.00  0.00    +0.000 C 
ATOM     33  C   UNL     1       1.869   2.286  18.285  0.00  0.00    +0.000 C 
ENDBRANCH  31  33
ENDBRANCH  30  31
ENDBRANCH  29  30
ENDBRANCH  28  29
ENDBRANCH  27  28
ENDBRANCH   1  27
BRANCH   6  34
ATOM     34  O   UNL     1       0.344   8.534  20.835  0.00  0.00    +0.000 OA
BRANCH  34  35
ATOM     35  C   UNL     1       0.804   9.119  22.056  0.00  0.00    +0.000 C 
BRANCH  35  36
ATOM     36  C   UNL     1       0.351  10.572  22.196  0.00  0.00    +0.000 C 
BRANCH  36  37
ATOM     37  C   UNL     1      -0.938  10.682  23.003  0.00  0.00    +0.000 C 
BRANCH  37  38
ATOM     38  C   UNL     1      -1.817  11.840  22.533  0.00  0.00    +0.000 C 
BRANCH  38  39
ATOM     39  C   UNL     1      -2.961  12.060  23.521  0.00  0.00    +0.000 C 
ATOM     40  C   UNL     1      -3.757  13.313  23.205  0.00  0.00    +0.000 C 
ENDBRANCH  38  39
ENDBRANCH  37  38
ENDBRANCH  36  37
ENDBRANCH  35  36
ENDBRANCH  34  35
ENDBRANCH   6  34
TORSDOF 16
ENDMDL
MODEL 5
REMARK VINA RESULT:      -6.6      1.696      8.842
REMARK  Name = 
REMARK  18 active torsions:
REMARK  status: ('A' for Active; 'I' for Inactive)
REMARK    1  A    between atoms: C_1  and  C_2
REMARK    2  A    between atoms: C_2  and  C_3
REMARK    3  A    between atoms: C_3  and  C_4
REMARK    4  A    between atoms: C_4  and  C_5
REMARK    5  A    between atoms: C_5  and  C_6
REMARK    6  A    between atoms: C_6  and  O_7
REMARK    7  A    between atoms: O_7  and  C_8
REMARK    8  A    between atoms: C_9  and  C_10
REMARK    9  A    between atoms: N_11  and  N_12
REMARK   10  A    between atoms: C_18  and  C_19
REMARK   11  A    between atoms: N_20  and  N_21
REMARK   12  A    between atoms: C_25  and  O_26
REMARK   13  A    between atoms: O_26  and  C_27
REMARK   14  A    between atoms: C_27  and  C_28
REMARK   15  A    between atoms: C_28  and  C_29
REMARK   16  A    between atoms: C_29  and  C_30
REMARK   17  A    between atoms: C_30  and  C_31
REMARK   18  A    between atoms: C_31  and  C_32
REMARK                            x       y       z     vdW  Elec       q    Type
REMARK                         _______ _______ _______ _____ _____    ______ ____
ROOT
ATOM      1  C   UNL     1       2.314   7.478  19.574  0.00  0.00    +0.000 A 
ATOM      2  C   UNL     1       2.905   7.697  18.301  0.00  0.00    +0.000 A 
ATOM      3  C   UNL     1       2.439   8.707  17.458  0.00  0.00    +0.000 A 
ATOM      4  C   UNL     1       1.376   9.504  17.841  0.00  0.00    +0.000 A 
ATOM      5  C   UNL     1       0.744   9.307  19.076  0.00  0.00    +0.000 A 
ATOM      6  C   UNL     1       1.211   8.309  19.968  0.00  0.00    +0.000 A 
ENDROOT
BRANCH   5   7
ATOM      7  C   UNL     1      -0.432  10.183  19.359  0.00  0.00    +0.000 C 
ATOM      8  N   UNL     1      -1.323  10.362  18.430  0.00  0.00    +0.000 NA
BRANCH   8   9
ATOM      9  N   UNL     1      -2.423  11.115  18.717  0.00  0.00    +0.000 N 
ATOM     10  C   UNL     1      -3.205  11.601  17.706  0.00  0.00    +0.000 C 
ATOM     11  N   UNL     1      -2.930  11.479  16.451  0.00  0.00    +0.000 NA
ATOM     12  N   UNL     1      -4.326  12.254  18.078  0.00  0.00    +0.000 N 
ATOM     13  H   UNL     1      -2.929  10.933  19.580  0.00  0.00    +0.000 HD
ATOM     14  H   UNL     1      -2.045  10.948  16.461  0.00  0.00    +0.000 HD
ATOM     15  H   UNL     1      -4.150  12.990  18.750  0.00  0.00    +0.000 HD
ATOM     16  H   UNL     1      -4.746  12.654  17.240  0.00  0.00    +0.000 HD
ENDBRANCH   8   9
ENDBRANCH   5   7
BRANCH   2  17
ATOM     17  C   UNL     1       4.041   6.948  17.739  0.00  0.00    +0.000 C 
ATOM     18  N   UNL     1       4.059   5.655  17.649  0.00  0.00    +0.000 NA
BRANCH  18  19
ATOM     19  N   UNL     1       5.312   5.250  17.155  0.00  0.00    +0.000 NA
ATOM     20  C   UNL     1       6.027   4.641  18.043  0.00  0.00    +0.000 C 
ATOM     21  N   UNL     1       5.608   4.344  19.297  0.00  0.00    +0.000 N 
ATOM     22  N   UNL     1       7.277   4.198  17.795  0.00  0.00    +0.000 N 
ATOM     23  H   UNL     1       4.687   4.769  19.396  0.00  0.00    +0.000 HD
ATOM     24  H   UNL     1       6.221   4.681  20.026  0.00  0.00    +0.000 HD
ATOM     25  H   UNL     1       7.690   4.597  16.957  0.00  0.00    +0.000 HD
ATOM     26  H   UNL     1       7.908   4.127  18.580  0.00  0.00    +0.000 HD
ENDBRANCH  18  19
ENDBRANCH   2  17
BRANCH   1  27
ATOM     27  O   UNL     1       2.662   6.469  20.444  0.00  0.00    +0.000 OA
BRANCH  27  28
ATOM     28  C   UNL     1       1.761   5.405  20.721  0.00  0.00    +0.000 C 
BRANCH  28  29
ATOM     29  C   UNL     1       1.535   4.493  19.520  0.00  0.00    +0.000 C 
BRANCH  29  30
ATOM     30  C   UNL     1       0.841   3.168  19.836  0.00  0.00    +0.000 C 
BRANCH  30  31
ATOM     31  C   UNL     1       1.154   2.054  18.834  0.00  0.00    +0.000 C 
BRANCH  31  33
ATOM     32  C   UNL     1       3.514   1.652  18.046  0.00  0.00    +0.000 C 
ATOM     33  C   UNL     1       2.258   2.491  17.877  0.00  0.00    +0.000 C 
ENDBRANCH  31  33
ENDBRANCH  30  31
ENDBRANCH  29  30
ENDBRANCH  28  29
ENDBRANCH  27  28
ENDBRANCH   1  27
BRANCH   6  34
ATOM     34  O   UNL     1       0.527   8.259  21.171  0.00  0.00    +0.000 OA
BRANCH  34  35
ATOM     35  C   UNL     1       1.035   9.006  22.279  0.00  0.00    +0.000 C 
BRANCH  35  36
ATOM     36  C   UNL     1      -0.088   9.618  23.115  0.00  0.00    +0.000 C 
BRANCH  36  37
ATOM     37  C   UNL     1      -0.502  10.985  22.582  0.00  0.00    +0.000 C 
BRANCH  37  38
ATOM     38  C   UNL     1      -1.854  11.436  23.134  0.00  0.00    +0.000 C 
BRANCH  38  39
ATOM     39  C   UNL     1      -1.871  12.955  23.295  0.00  0.00    +0.000 C 
ATOM     40  C   UNL     1      -3.215  13.463  23.785  0.00  0.00    +0.000 C 
ENDBRANCH  38  39
ENDBRANCH  37  38
ENDBRANCH  36  37
ENDBRANCH  35  36
ENDBRANCH  34  35
ENDBRANCH   6  34
TORSDOF 16
ENDMDL
MODEL 6
REMARK VINA RESULT:      -6.6      1.008      1.179
REMARK  Name = 
REMARK  18 active torsions:
REMARK  status: ('A' for Active; 'I' for Inactive)
REMARK    1  A    between atoms: C_1  and  C_2
REMARK    2  A    between atoms: C_2  and  C_3
REMARK    3  A    between atoms: C_3  and  C_4
REMARK    4  A    between atoms: C_4  and  C_5
REMARK    5  A    between atoms: C_5  and  C_6
REMARK    6  A    between atoms: C_6  and  O_7
REMARK    7  A    between atoms: O_7  and  C_8
REMARK    8  A    between atoms: C_9  and  C_10
REMARK    9  A    between atoms: N_11  and  N_12
REMARK   10  A    between atoms: C_18  and  C_19
REMARK   11  A    between atoms: N_20  and  N_21
REMARK   12  A    between atoms: C_25  and  O_26
REMARK   13  A    between atoms: O_26  and  C_27
REMARK   14  A    between atoms: C_27  and  C_28
REMARK   15  A    between atoms: C_28  and  C_29
REMARK   16  A    between atoms: C_29  and  C_30
REMARK   17  A    between atoms: C_30  and  C_31
REMARK   18  A    between atoms: C_31  and  C_32
REMARK                            x       y       z     vdW  Elec       q    Type
REMARK                         _______ _______ _______ _____ _____    ______ ____
ROOT
ATOM      1  C   UNL     1       1.279   8.351  20.062  0.00  0.00    +0.000 A 
ATOM      2  C   UNL     1       1.008   9.435  19.185  0.00  0.00    +0.000 A 
ATOM      3  C   UNL     1       1.585   9.493  17.916  0.00  0.00    +0.000 A 
ATOM      4  C   UNL     1       2.450   8.500  17.494  0.00  0.00    +0.000 A 
ATOM      5  C   UNL     1       2.768   7.425  18.335  0.00  0.00    +0.000 A 
ATOM      6  C   UNL     1       2.177   7.321  19.619  0.00  0.00    +0.000 A 
ENDROOT
BRANCH   5   7
ATOM      7  C   UNL     1       3.761   6.444  17.800  0.00  0.00    +0.000 C 
ATOM      8  N   UNL     1       5.029   6.698  17.929  0.00  0.00    +0.000 NA
BRANCH   8   9
ATOM      9  N   UNL     1       5.928   5.771  17.492  0.00  0.00    +0.000 N 
ATOM     10  C   UNL     1       6.711   5.098  18.388  0.00  0.00    +0.000 C 
ATOM     11  N   UNL     1       6.739   5.340  19.655  0.00  0.00    +0.000 NA
ATOM     12  N   UNL     1       7.504   4.130  17.881  0.00  0.00    +0.000 N 
ATOM     13  H   UNL     1       5.714   5.241  16.651  0.00  0.00    +0.000 HD
ATOM     14  H   UNL     1       6.049   6.102  19.758  0.00  0.00    +0.000 HD
ATOM     15  H   UNL     1       8.076   4.452  17.110  0.00  0.00    +0.000 HD
ATOM     16  H   UNL     1       8.106   3.796  18.632  0.00  0.00    +0.000 HD
ENDBRANCH   8   9
ENDBRANCH   5   7
BRANCH   2  17
ATOM     17  C   UNL     1       0.113  10.569  19.470  0.00  0.00    +0.000 C 
ATOM     18  N   UNL     1      -0.757  11.013  18.617  0.00  0.00    +0.000 NA
BRANCH  18  19
ATOM     19  N   UNL     1      -1.385  12.150  19.157  0.00  0.00    +0.000 NA
ATOM     20  C   UNL     1      -0.788  13.251  18.837  0.00  0.00    +0.000 C 
ATOM     21  N   UNL     1       0.281  13.334  18.009  0.00  0.00    +0.000 N 
ATOM     22  N   UNL     1      -1.199  14.458  19.276  0.00  0.00    +0.000 N 
ATOM     23  H   UNL     1       0.542  12.374  17.785  0.00  0.00    +0.000 HD
ATOM     24  H   UNL     1       1.073  13.821  18.406  0.00  0.00    +0.000 HD
ATOM     25  H   UNL     1      -1.844  14.407  20.060  0.00  0.00    +0.000 HD
ATOM     26  H   UNL     1      -0.504  15.186  19.352  0.00  0.00    +0.000 HD
ENDBRANCH  18  19
ENDBRANCH   2  17
BRANCH   1  27
ATOM     27  O   UNL     1       0.809   8.240  21.351  0.00  0.00    +0.000 OA
BRANCH  27  28
ATOM     28  C   UNL     1       1.420   8.960  22.412  0.00  0.00    +0.000 C 
BRANCH  28  29
ATOM     29  C   UNL     1       0.416   9.458  23.446  0.00  0.00    +0.000 C 
BRANCH  29  30
ATOM     30  C   UNL     1      -0.905   9.969  22.869  0.00  0.00    +0.000 C 
BRANCH  30  31
ATOM     31  C   UNL     1      -1.019  11.495  22.848  0.00  0.00    +0.000 C 
BRANCH  31  33
ATOM     32  C   UNL     1      -2.507  13.434  23.464  0.00  0.00    +0.000 C 
ATOM     33  C   UNL     1      -2.423  11.932  23.257  0.00  0.00    +0.000 C 
ENDBRANCH  31  33
ENDBRANCH  30  31
ENDBRANCH  29  30
ENDBRANCH  28  29
ENDBRANCH  27  28
ENDBRANCH   1  27
BRANCH   6  34
ATOM     34  O   UNL     1       2.541   6.184  20.320  0.00  0.00    +0.000 OA
BRANCH  34  35
ATOM     35  C   UNL     1       1.532   5.221  20.635  0.00  0.00    +0.000 C 
BRANCH  35  36
ATOM     36  C   UNL     1       2.125   3.834  20.874  0.00  0.00    +0.000 C 
BRANCH  36  37
ATOM     37  C   UNL     1       1.170   2.732  20.428  0.00  0.00    +0.000 C 
BRANCH  37  38
ATOM     38  C   UNL     1       1.073   2.630  18.907  0.00  0.00    +0.000 C 
BRANCH  38  39
ATOM     39  C   UNL     1       2.435   2.916  18.277  0.00  0.00    +0.000 C 
ATOM     40  C   UNL     1       3.285   1.664  18.161  0.00  0.00    +0.000 C 
ENDBRANCH  38  39
ENDBRANCH  37  38
ENDBRANCH  36  37
ENDBRANCH  35  36
ENDBRANCH  34  35
ENDBRANCH   6  34
TORSDOF 16
ENDMDL
MODEL 7
REMARK VINA RESULT:      -6.6      2.064      5.660
REMARK  Name = 
REMARK  18 active torsions:
REMARK  status: ('A' for Active; 'I' for Inactive)
REMARK    1  A    between atoms: C_1  and  C_2
REMARK    2  A    between atoms: C_2  and  C_3
REMARK    3  A    between atoms: C_3  and  C_4
REMARK    4  A    between atoms: C_4  and  C_5
REMARK    5  A    between atoms: C_5  and  C_6
REMARK    6  A    between atoms: C_6  and  O_7
REMARK    7  A    between atoms: O_7  and  C_8
REMARK    8  A    between atoms: C_9  and  C_10
REMARK    9  A    between atoms: N_11  and  N_12
REMARK   10  A    between atoms: C_18  and  C_19
REMARK   11  A    between atoms: N_20  and  N_21
REMARK   12  A    between atoms: C_25  and  O_26
REMARK   13  A    between atoms: O_26  and  C_27
REMARK   14  A    between atoms: C_27  and  C_28
REMARK   15  A    between atoms: C_28  and  C_29
REMARK   16  A    between atoms: C_29  and  C_30
REMARK   17  A    between atoms: C_30  and  C_31
REMARK   18  A    between atoms: C_31  and  C_32
REMARK                            x       y       z     vdW  Elec       q    Type
REMARK                         _______ _______ _______ _____ _____    ______ ____
ROOT
ATOM      1  C   UNL     1       2.704   6.519  19.759  0.00  0.00    +0.000 A 
ATOM      2  C   UNL     1       1.919   7.698  19.655  0.00  0.00    +0.000 A 
ATOM      3  C   UNL     1       2.035   8.542  18.551  0.00  0.00    +0.000 A 
ATOM      4  C   UNL     1       2.935   8.255  17.541  0.00  0.00    +0.000 A 
ATOM      5  C   UNL     1       3.750   7.118  17.613  0.00  0.00    +0.000 A 
ATOM      6  C   UNL     1       3.636   6.224  18.707  0.00  0.00    +0.000 A 
ENDROOT
BRANCH   5   7
ATOM      7  C   UNL     1       4.729   6.939  16.498  0.00  0.00    +0.000 C 
ATOM      8  N   UNL     1       4.813   5.782  15.913  0.00  0.00    +0.000 NA
BRANCH   8   9
ATOM      9  N   UNL     1       5.667   5.645  14.858  0.00  0.00    +0.000 N 
ATOM     10  C   UNL     1       6.226   4.429  14.581  0.00  0.00    +0.000 C 
ATOM     11  N   UNL     1       6.080   3.377  15.314  0.00  0.00    +0.000 NA
ATOM     12  N   UNL     1       6.981   4.358  13.464  0.00  0.00    +0.000 N 
ATOM     13  H   UNL     1       5.532   6.235  14.041  0.00  0.00    +0.000 HD
ATOM     14  H   UNL     1       5.467   3.711  16.075  0.00  0.00    +0.000 HD
ATOM     15  H   UNL     1       7.697   5.073  13.426  0.00  0.00    +0.000 HD
ATOM     16  H   UNL     1       7.421   3.439  13.443  0.00  0.00    +0.000 HD
ENDBRANCH   8   9
ENDBRANCH   5   7
BRANCH   2  17
ATOM     17  C   UNL     1       0.915   8.151  20.632  0.00  0.00    +0.000 C 
ATOM     18  N   UNL     1       0.442   9.359  20.650  0.00  0.00    +0.000 NA
BRANCH  18  19
ATOM     19  N   UNL     1      -0.424   9.493  21.750  0.00  0.00    +0.000 NA
ATOM     20  C   UNL     1      -0.540  10.717  22.149  0.00  0.00    +0.000 C 
ATOM     21  N   UNL     1       0.038  11.782  21.543  0.00  0.00    +0.000 N 
ATOM     22  N   UNL     1      -1.292  11.069  23.211  0.00  0.00    +0.000 N 
ATOM     23  H   UNL     1       0.622  11.402  20.798  0.00  0.00    +0.000 HD
ATOM     24  H   UNL     1       0.597  12.353  22.160  0.00  0.00    +0.000 HD
ATOM     25  H   UNL     1      -1.548  10.286  23.806  0.00  0.00    +0.000 HD
ATOM     26  H   UNL     1      -1.027  11.905  23.711  0.00  0.00    +0.000 HD
ENDBRANCH  18  19
ENDBRANCH   2  17
BRANCH   1  27
ATOM     27  O   UNL     1       2.706   5.661  20.837  0.00  0.00    +0.000 OA
BRANCH  27  28
ATOM     28  C   UNL     1       1.759   4.606  20.927  0.00  0.00    +0.000 C 
BRANCH  28  29
ATOM     29  C   UNL     1       2.362   3.315  21.473  0.00  0.00    +0.000 C 
BRANCH  29  30
ATOM     30  C   UNL     1       3.033   2.423  20.428  0.00  0.00    +0.000 C 
BRANCH  30  31
ATOM     31  C   UNL     1       2.115   2.035  19.267  0.00  0.00    +0.000 C 
BRANCH  31  33
ATOM     32  C   UNL     1       2.399   3.229  17.065  0.00  0.00    +0.000 C 
ATOM     33  C   UNL     1       2.874   2.085  17.945  0.00  0.00    +0.000 C 
ENDBRANCH  31  33
ENDBRANCH  30  31
ENDBRANCH  29  30
ENDBRANCH  28  29
ENDBRANCH  27  28
ENDBRANCH   1  27
BRANCH   6  34
ATOM     34  O   UNL     1       4.465   5.117  18.624  0.00  0.00    +0.000 OA
BRANCH  34  35
ATOM     35  C   UNL     1       5.676   5.109  19.383  0.00  0.00    +0.000 C 
BRANCH  35  36
ATOM     36  C   UNL     1       6.812   4.415  18.634  0.00  0.00    +0.000 C 
BRANCH  36  37
ATOM     37  C   UNL     1       7.656   5.412  17.847  0.00  0.00    +0.000 C 
BRANCH  37  38
ATOM     38  C   UNL     1       7.854   6.726  18.603  0.00  0.00    +0.000 C 
BRANCH  38  39
ATOM     39  C   UNL     1       7.823   7.899  17.625  0.00  0.00    +0.000 C 
ATOM     40  C   UNL     1       8.390   9.167  18.236  0.00  0.00    +0.000 C 
ENDBRANCH  38  39
ENDBRANCH  37  38
ENDBRANCH  36  37
ENDBRANCH  35  36
ENDBRANCH  34  35
ENDBRANCH   6  34
TORSDOF 16
ENDMDL
MODEL 8
REMARK VINA RESULT:      -6.6      1.068      1.248
REMARK  Name = 
REMARK  18 active torsions:
REMARK  status: ('A' for Active; 'I' for Inactive)
REMARK    1  A    between atoms: C_1  and  C_2
REMARK    2  A    between atoms: C_2  and  C_3
REMARK    3  A    between atoms: C_3  and  C_4
REMARK    4  A    between atoms: C_4  and  C_5
REMARK    5  A    between atoms: C_5  and  C_6
REMARK    6  A    between atoms: C_6  and  O_7
REMARK    7  A    between atoms: O_7  and  C_8
REMARK    8  A    between atoms: C_9  and  C_10
REMARK    9  A    between atoms: N_11  and  N_12
REMARK   10  A    between atoms: C_18  and  C_19
REMARK   11  A    between atoms: N_20  and  N_21
REMARK   12  A    between atoms: C_25  and  O_26
REMARK   13  A    between atoms: O_26  and  C_27
REMARK   14  A    between atoms: C_27  and  C_28
REMARK   15  A    between atoms: C_28  and  C_29
REMARK   16  A    between atoms: C_29  and  C_30
REMARK   17  A    between atoms: C_30  and  C_31
REMARK   18  A    between atoms: C_31  and  C_32
REMARK                            x       y       z     vdW  Elec       q    Type
REMARK                         _______ _______ _______ _____ _____    ______ ____
ROOT
ATOM      1  C   UNL     1       1.613   8.648  20.291  0.00  0.00    +0.000 A 
ATOM      2  C   UNL     1       1.503   9.656  19.297  0.00  0.00    +0.000 A 
ATOM      3  C   UNL     1       1.866   9.401  17.974  0.00  0.00    +0.000 A 
ATOM      4  C   UNL     1       2.359   8.162  17.609  0.00  0.00    +0.000 A 
ATOM      5  C   UNL     1       2.510   7.145  18.561  0.00  0.00    +0.000 A 
ATOM      6  C   UNL     1       2.124   7.362  19.907  0.00  0.00    +0.000 A 
ENDROOT
BRANCH   5   7
ATOM      7  C   UNL     1       3.110   5.868  18.069  0.00  0.00    +0.000 C 
ATOM      8  N   UNL     1       4.162   5.919  17.308  0.00  0.00    +0.000 NA
BRANCH   8   9
ATOM      9  N   UNL     1       4.738   4.748  16.912  0.00  0.00    +0.000 N 
ATOM     10  C   UNL     1       5.601   4.731  15.852  0.00  0.00    +0.000 C 
ATOM     11  N   UNL     1       5.857   5.752  15.106  0.00  0.00    +0.000 NA
ATOM     12  N   UNL     1       6.200   3.550  15.587  0.00  0.00    +0.000 N 
ATOM     13  H   UNL     1       4.930   4.036  17.613  0.00  0.00    +0.000 HD
ATOM     14  H   UNL     1       5.281   6.497  15.531  0.00  0.00    +0.000 HD
ATOM     15  H   UNL     1       5.544   2.786  15.498  0.00  0.00    +0.000 HD
ATOM     16  H   UNL     1       6.719   3.654  14.716  0.00  0.00    +0.000 HD
ENDBRANCH   8   9
ENDBRANCH   5   7
BRANCH   2  17
ATOM     17  C   UNL     1       0.997  11.022  19.508  0.00  0.00    +0.000 C 
ATOM     18  N   UNL     1       1.251  12.003  18.699  0.00  0.00    +0.000 NA
BRANCH  18  19
ATOM     19  N   UNL     1       0.701  13.184  19.228  0.00  0.00    +0.000 NA
ATOM     20  C   UNL     1      -0.332  13.594  18.568  0.00  0.00    +0.000 C 
ATOM     21  N   UNL     1      -0.890  12.934  17.524  0.00  0.00    +0.000 N 
ATOM     22  N   UNL     1      -0.994  14.727  18.879  0.00  0.00    +0.000 N 
ATOM     23  H   UNL     1      -0.286  12.134  17.338  0.00  0.00    +0.000 HD
ATOM     24  H   UNL     1      -0.987  13.492  16.688  0.00  0.00    +0.000 HD
ATOM     25  H   UNL     1      -0.476  15.343  19.498  0.00  0.00    +0.000 HD
ATOM     26  H   UNL     1      -1.484  15.198  18.133  0.00  0.00    +0.000 HD
ENDBRANCH  18  19
ENDBRANCH   2  17
BRANCH   1  27
ATOM     27  O   UNL     1       1.341   8.824  21.630  0.00  0.00    +0.000 OA
BRANCH  27  28
ATOM     28  C   UNL     1       0.017   8.691  22.127  0.00  0.00    +0.000 C 
BRANCH  28  29
ATOM     29  C   UNL     1      -0.392   9.843  23.038  0.00  0.00    +0.000 C 
BRANCH  29  30
ATOM     30  C   UNL     1      -1.300  10.888  22.390  0.00  0.00    +0.000 C 
BRANCH  30  31
ATOM     31  C   UNL     1      -1.715  12.017  23.336  0.00  0.00    +0.000 C 
BRANCH  31  33
ATOM     32  C   UNL     1      -3.738  13.089  24.391  0.00  0.00    +0.000 C 
ATOM     33  C   UNL     1      -3.206  12.307  23.202  0.00  0.00    +0.000 C 
ENDBRANCH  31  33
ENDBRANCH  30  31
ENDBRANCH  29  30
ENDBRANCH  28  29
ENDBRANCH  27  28
ENDBRANCH   1  27
BRANCH   6  34
ATOM     34  O   UNL     1       2.281   6.257  20.727  0.00  0.00    +0.000 OA
BRANCH  34  35
ATOM     35  C   UNL     1       1.334   5.190  20.628  0.00  0.00    +0.000 C 
BRANCH  35  36
ATOM     36  C   UNL     1       1.809   3.937  21.361  0.00  0.00    +0.000 C 
BRANCH  36  37
ATOM     37  C   UNL     1       1.313   2.667  20.679  0.00  0.00    +0.000 C 
BRANCH  37  38
ATOM     38  C   UNL     1       0.944   2.902  19.215  0.00  0.00    +0.000 C 
BRANCH  38  39
ATOM     39  C   UNL     1       1.674   1.898  18.325  0.00  0.00    +0.000 C 
ATOM     40  C   UNL     1       3.177   1.937  18.531  0.00  0.00    +0.000 C 
ENDBRANCH  38  39
ENDBRANCH  37  38
ENDBRANCH  36  37
ENDBRANCH  35  36
ENDBRANCH  34  35
ENDBRANCH   6  34
TORSDOF 16
ENDMDL
MODEL 9
REMARK VINA RESULT:      -6.5      2.354      7.831
REMARK  Name = 
REMARK  18 active torsions:
REMARK  status: ('A' for Active; 'I' for Inactive)
REMARK    1  A    between atoms: C_1  and  C_2
REMARK    2  A    between atoms: C_2  and  C_3
REMARK    3  A    between atoms: C_3  and  C_4
REMARK    4  A    between atoms: C_4  and  C_5
REMARK    5  A    between atoms: C_5  and  C_6
REMARK    6  A    between atoms: C_6  and  O_7
REMARK    7  A    between atoms: O_7  and  C_8
REMARK    8  A    between atoms: C_9  and  C_10
REMARK    9  A    between atoms: N_11  and  N_12
REMARK   10  A    between atoms: C_18  and  C_19
REMARK   11  A    between atoms: N_20  and  N_21
REMARK   12  A    between atoms: C_25  and  O_26
REMARK   13  A    between atoms: O_26  and  C_27
REMARK   14  A    between atoms: C_27  and  C_28
REMARK   15  A    between atoms: C_28  and  C_29
REMARK   16  A    between atoms: C_29  and  C_30
REMARK   17  A    between atoms: C_30  and  C_31
REMARK   18  A    between atoms: C_31  and  C_32
REMARK                            x       y       z     vdW  Elec       q    Type
REMARK                         _______ _______ _______ _____ _____    ______ ____
ROOT
ATOM      1  C   UNL     1       3.905   6.001  18.604  0.00  0.00    +0.000 A 
ATOM      2  C   UNL     1       3.906   6.893  17.499  0.00  0.00    +0.000 A 
ATOM      3  C   UNL     1       3.070   8.011  17.479  0.00  0.00    +0.000 A 
ATOM      4  C   UNL     1       2.209   8.261  18.531  0.00  0.00    +0.000 A 
ATOM      5  C   UNL     1       2.154   7.394  19.631  0.00  0.00    +0.000 A 
ATOM      6  C   UNL     1       3.010   6.266  19.696  0.00  0.00    +0.000 A 
ENDROOT
BRANCH   5   7
ATOM      7  C   UNL     1       1.144   7.727  20.680  0.00  0.00    +0.000 C 
ATOM      8  N   UNL     1       1.360   8.740  21.464  0.00  0.00    +0.000 NA
BRANCH   8   9
ATOM      9  N   UNL     1       0.406   9.072  22.379  0.00  0.00    +0.000 N 
ATOM     10  C   UNL     1      -0.085  10.347  22.427  0.00  0.00    +0.000 C 
ATOM     11  N   UNL     1       0.359  11.325  21.712  0.00  0.00    +0.000 NA
ATOM     12  N   UNL     1      -1.095  10.568  23.296  0.00  0.00    +0.000 N 
ATOM     13  H   UNL     1      -0.260   8.361  22.672  0.00  0.00    +0.000 HD
ATOM     14  H   UNL     1       1.103  10.880  21.152  0.00  0.00    +0.000 HD
ATOM     15  H   UNL     1      -0.883  10.254  24.235  0.00  0.00    +0.000 HD
ATOM     16  H   UNL     1      -1.282  11.569  23.309  0.00  0.00    +0.000 HD
ENDBRANCH   8   9
ENDBRANCH   5   7
BRANCH   2  17
ATOM     17  C   UNL     1       4.756   6.781  16.303  0.00  0.00    +0.000 C 
ATOM     18  N   UNL     1       5.220   5.650  15.870  0.00  0.00    +0.000 NA
BRANCH  18  19
ATOM     19  N   UNL     1       6.062   5.894  14.771  0.00  0.00    +0.000 NA
ATOM     20  C   UNL     1       6.579   4.813  14.286  0.00  0.00    +0.000 C 
ATOM     21  N   UNL     1       6.295   3.562  14.723  0.00  0.00    +0.000 N 
ATOM     22  N   UNL     1       7.445   4.817  13.252  0.00  0.00    +0.000 N 
ATOM     23  H   UNL     1       5.686   3.675  15.532  0.00  0.00    +0.000 HD
ATOM     24  H   UNL     1       7.109   3.021  14.980  0.00  0.00    +0.000 HD
ATOM     25  H   UNL     1       7.840   5.733  13.057  0.00  0.00    +0.000 HD
ATOM     26  H   UNL     1       8.105   4.056  13.196  0.00  0.00    +0.000 HD
ENDBRANCH  18  19
ENDBRANCH   2  17
BRANCH   1  27
ATOM     27  O   UNL     1       4.643   4.841  18.685  0.00  0.00    +0.000 OA
BRANCH  27  28
ATOM     28  C   UNL     1       5.874   4.811  19.395  0.00  0.00    +0.000 C 
BRANCH  28  29
ATOM     29  C   UNL     1       7.080   5.072  18.500  0.00  0.00    +0.000 C 
BRANCH  29  30
ATOM     30  C   UNL     1       7.937   6.273  18.902  0.00  0.00    +0.000 C 
BRANCH  30  31
ATOM     31  C   UNL     1       7.795   7.473  17.962  0.00  0.00    +0.000 C 
BRANCH  31  33
ATOM     32  C   UNL     1       8.182   9.960  17.833  0.00  0.00    +0.000 C 
ATOM     33  C   UNL     1       8.613   8.653  18.476  0.00  0.00    +0.000 C 
ENDBRANCH  31  33
ENDBRANCH  30  31
ENDBRANCH  29  30
ENDBRANCH  28  29
ENDBRANCH  27  28
ENDBRANCH   1  27
BRANCH   6  34
ATOM     34  O   UNL     1       2.885   5.526  20.860  0.00  0.00    +0.000 OA
BRANCH  34  35
ATOM     35  C   UNL     1       1.877   4.515  20.924  0.00  0.00    +0.000 C 
BRANCH  35  36
ATOM     36  C   UNL     1       1.354   4.144  19.537  0.00  0.00    +0.000 C 
BRANCH  36  37
ATOM     37  C   UNL     1       0.671   2.781  19.542  0.00  0.00    +0.000 C 
BRANCH  37  38
ATOM     38  C   UNL     1       1.103   1.913  18.360  0.00  0.00    +0.000 C 
BRANCH  38  39
ATOM     39  C   UNL     1       2.478   2.354  17.864  0.00  0.00    +0.000 C 
ATOM     40  C   UNL     1       3.589   1.468  18.396  0.00  0.00    +0.000 C 
ENDBRANCH  38  39
ENDBRANCH  37  38
ENDBRANCH  36  37
ENDBRANCH  35  36
ENDBRANCH  34  35
ENDBRANCH   6  34
TORSDOF 16
ENDMDL
