MODEL 1
REMARK VINA RESULT:      -7.2      0.000      0.000
REMARK  Name = 
REMARK  15 active torsions:
REMARK  status: ('A' for Active; 'I' for Inactive)
REMARK    1  A    between atoms: C_2  and  C_3
REMARK    2  A    between atoms: C_3  and  C_4
REMARK    3  A    between atoms: C_7  and  O_8
REMARK    4  A    between atoms: C_9  and  O_10
REMARK    5  A    between atoms: N_12  and  C_13
REMARK    6  A    between atoms: C_13  and  C_14
REMARK    7  A    between atoms: C_14  and  C_15
REMARK    8  A    between atoms: C_15  and  N_16
REMARK    9  A    between atoms: N_16  and  C_17
REMARK   10  A    between atoms: C_17  and  C_18
REMARK   11  A    between atoms: C_18  and  N_19
REMARK   12  A    between atoms: C_20  and  C_22
REMARK   13  A    between atoms: C_22  and  C_23
REMARK   14  A    between atoms: C_26  and  O_27
REMARK   15  A    between atoms: C_28  and  O_29
REMARK                            x       y       z     vdW  Elec       q    Type
REMARK                         _______ _______ _______ _____ _____    ______ ____
ROOT
ATOM      1  N   UNL     1       2.214   5.640  20.845  0.00  0.00    +0.000 NA
ATOM      2  H   UNL     1       2.466   6.070  21.737  0.00  0.00    +0.000 HD
ENDROOT
BRANCH   1   3
ATOM      3  C   UNL     1       2.302   4.183  20.975  0.00  0.00    +0.000 C 
BRANCH   3   4
ATOM      4  C   UNL     1       0.961   3.530  20.624  0.00  0.00    +0.000 C 
BRANCH   4   5
ATOM      5  C   UNL     1       1.159   2.376  19.643  0.00  0.00    +0.000 C 
BRANCH   5   8
ATOM      6  O   UNL     1       1.889   3.518  17.144  0.00  0.00    +0.000 OA
ATOM      7  C   UNL     1       2.746   2.954  17.819  0.00  0.00    +0.000 C 
ATOM      8  N   UNL     1       2.484   2.378  19.046  0.00  0.00    +0.000 N 
ATOM      9  H   UNL     1       3.264   2.074  19.614  0.00  0.00    +0.000 HD
BRANCH   7  10
ATOM     10  C   UNL     1       4.188   2.808  17.345  0.00  0.00    +0.000 C 
BRANCH  10  11
ATOM     11  C   UNL     1       4.959   4.106  17.288  0.00  0.00    +0.000 A 
ATOM     12  C   UNL     1       5.869   4.447  18.303  0.00  0.00    +0.000 A 
ATOM     13  C   UNL     1       6.584   5.649  18.258  0.00  0.00    +0.000 A 
ATOM     14  C   UNL     1       6.384   6.516  17.189  0.00  0.00    +0.000 A 
ATOM     15  C   UNL     1       5.468   6.200  16.194  0.00  0.00    +0.000 A 
ATOM     16  C   UNL     1       4.744   5.014  16.238  0.00  0.00    +0.000 A 
BRANCH  14  17
ATOM     17  O   UNL     1       7.069   7.695  17.076  0.00  0.00    +0.000 OA
ATOM     18  H   UNL     1       6.470   8.355  16.687  0.00  0.00    +0.000 HD
ENDBRANCH  14  17
BRANCH  15  19
ATOM     19  O   UNL     1       5.279   7.055  15.144  0.00  0.00    +0.000 OA
ATOM     20  H   UNL     1       4.598   6.616  14.595  0.00  0.00    +0.000 HD
ENDBRANCH  15  19
ENDBRANCH  10  11
ENDBRANCH   7  10
ENDBRANCH   5   8
ENDBRANCH   4   5
ENDBRANCH   3   4
ENDBRANCH   1   3
BRANCH   1  21
ATOM     21  C   UNL     1       3.131   6.137  19.807  0.00  0.00    +0.000 C 
BRANCH  21  22
ATOM     22  C   UNL     1       2.348   6.846  18.689  0.00  0.00    +0.000 C 
BRANCH  22  23
ATOM     23  N   UNL     1       1.752   8.095  19.126  0.00  0.00    +0.000 N 
ATOM     24  C   UNL     1       1.771   9.210  18.320  0.00  0.00    +0.000 C 
ATOM     25  O   UNL     1       2.253   9.210  17.186  0.00  0.00    +0.000 OA
ATOM     26  H   UNL     1       1.423   8.170  20.081  0.00  0.00    +0.000 HD
BRANCH  24  27
ATOM     27  C   UNL     1       1.154  10.451  18.929  0.00  0.00    +0.000 C 
BRANCH  27  28
ATOM     28  C   UNL     1      -0.295  10.651  18.554  0.00  0.00    +0.000 A 
ATOM     29  C   UNL     1      -0.922   9.787  17.638  0.00  0.00    +0.000 A 
ATOM     30  C   UNL     1      -2.286   9.903  17.357  0.00  0.00    +0.000 A 
ATOM     31  C   UNL     1      -3.025  10.890  17.996  0.00  0.00    +0.000 A 
ATOM     32  C   UNL     1      -2.407  11.767  18.885  0.00  0.00    +0.000 A 
ATOM     33  C   UNL     1      -1.052  11.660  19.167  0.00  0.00    +0.000 A 
BRANCH  31  34
ATOM     34  O   UNL     1      -4.371  11.028  17.797  0.00  0.00    +0.000 OA
ATOM     35  H   UNL     1      -4.639  10.389  17.115  0.00  0.00    +0.000 HD
ENDBRANCH  31  34
BRANCH  32  36
ATOM     36  O   UNL     1      -3.143  12.734  19.508  0.00  0.00    +0.000 OA
ATOM     37  H   UNL     1      -2.583  13.534  19.458  0.00  0.00    +0.000 HD
ENDBRANCH  32  36
ENDBRANCH  27  28
ENDBRANCH  24  27
ENDBRANCH  22  23
ENDBRANCH  21  22
ENDBRANCH   1  21
TORSDOF 15
ENDMDL
MODEL 2
REMARK VINA RESULT:      -7.1      0.979      1.471
REMARK  Name = 
REMARK  15 active torsions:
REMARK  status: ('A' for Active; 'I' for Inactive)
REMARK    1  A    between atoms: C_2  and  C_3
REMARK    2  A    between atoms: C_3  and  C_4
REMARK    3  A    between atoms: C_7  and  O_8
REMARK    4  A    between atoms: C_9  and  O_10
REMARK    5  A    between atoms: N_12  and  C_13
REMARK    6  A    between atoms: C_13  and  C_14
REMARK    7  A    between atoms: C_14  and  C_15
REMARK    8  A    between atoms: C_15  and  N_16
REMARK    9  A    between atoms: N_16  and  C_17
REMARK   10  A    between atoms: C_17  and  C_18
REMARK   11  A    between atoms: C_18  and  N_19
REMARK   12  A    between atoms: C_20  and  C_22
REMARK   13  A    between atoms: C_22  and  C_23
REMARK   14  A    between atoms: C_26  and  O_27
REMARK   15  A    between atoms: C_28  and  O_29
REMARK                            x       y       z     vdW  Elec       q    Type
REMARK                         _______ _______ _______ _____ _____    ______ ____
ROOT
ATOM      1  N   UNL     1       2.403   6.242  20.625  0.00  0.00    +0.000 NA
ATOM      2  H   UNL     1       3.355   6.553  20.824  0.00  0.00    +0.000 HD
ENDROOT
BRANCH   1   3
ATOM      3  C   UNL     1       2.250   4.853  21.066  0.00  0.00    +0.000 C 
BRANCH   3   4
ATOM      4  C   UNL     1       0.932   4.266  20.549  0.00  0.00    +0.000 C 
BRANCH   4   5
ATOM      5  C   UNL     1       1.164   2.910  19.887  0.00  0.00    +0.000 C 
BRANCH   5   8
ATOM      6  O   UNL     1       1.807   3.399  17.161  0.00  0.00    +0.000 OA
ATOM      7  C   UNL     1       2.698   3.061  17.936  0.00  0.00    +0.000 C 
ATOM      8  N   UNL     1       2.478   2.809  19.276  0.00  0.00    +0.000 N 
ATOM      9  H   UNL     1       3.280   2.693  19.884  0.00  0.00    +0.000 HD
BRANCH   7  10
ATOM     10  C   UNL     1       4.137   2.853  17.479  0.00  0.00    +0.000 C 
BRANCH  10  11
ATOM     11  C   UNL     1       4.945   4.126  17.372  0.00  0.00    +0.000 A 
ATOM     12  C   UNL     1       5.891   4.462  18.356  0.00  0.00    +0.000 A 
ATOM     13  C   UNL     1       6.640   5.641  18.264  0.00  0.00    +0.000 A 
ATOM     14  C   UNL     1       6.440   6.488  17.180  0.00  0.00    +0.000 A 
ATOM     15  C   UNL     1       5.489   6.177  16.216  0.00  0.00    +0.000 A 
ATOM     16  C   UNL     1       4.731   5.015  16.306  0.00  0.00    +0.000 A 
BRANCH  14  17
ATOM     17  O   UNL     1       7.157   7.642  17.021  0.00  0.00    +0.000 OA
ATOM     18  H   UNL     1       7.059   8.171  17.831  0.00  0.00    +0.000 HD
ENDBRANCH  14  17
BRANCH  15  19
ATOM     19  O   UNL     1       5.299   7.013  15.151  0.00  0.00    +0.000 OA
ATOM     20  H   UNL     1       5.663   7.871  15.448  0.00  0.00    +0.000 HD
ENDBRANCH  15  19
ENDBRANCH  10  11
ENDBRANCH   7  10
ENDBRANCH   5   8
ENDBRANCH   4   5
ENDBRANCH   3   4
ENDBRANCH   1   3
BRANCH   1  21
ATOM     21  C   UNL     1       2.161   6.368  19.179  0.00  0.00    +0.000 C 
BRANCH  21  22
ATOM     22  C   UNL     1       2.346   7.826  18.724  0.00  0.00    +0.000 C 
BRANCH  22  23
ATOM     23  N   UNL     1       1.316   8.710  19.239  0.00  0.00    +0.000 N 
ATOM     24  C   UNL     1       1.208  10.007  18.792  0.00  0.00    +0.000 C 
ATOM     25  O   UNL     1       1.938  10.480  17.920  0.00  0.00    +0.000 OA
ATOM     26  H   UNL     1       0.749   8.396  20.017  0.00  0.00    +0.000 HD
BRANCH  24  27
ATOM     27  C   UNL     1       0.117  10.822  19.455  0.00  0.00    +0.000 C 
BRANCH  27  28
ATOM     28  C   UNL     1      -1.187  10.816  18.694  0.00  0.00    +0.000 A 
ATOM     29  C   UNL     1      -2.295  11.544  19.168  0.00  0.00    +0.000 A 
ATOM     30  C   UNL     1      -3.475  11.625  18.423  0.00  0.00    +0.000 A 
ATOM     31  C   UNL     1      -3.546  10.974  17.199  0.00  0.00    +0.000 A 
ATOM     32  C   UNL     1      -2.465  10.229  16.734  0.00  0.00    +0.000 A 
ATOM     33  C   UNL     1      -1.290  10.142  17.469  0.00  0.00    +0.000 A 
BRANCH  31  34
ATOM     34  O   UNL     1      -4.656  11.050  16.404  0.00  0.00    +0.000 OA
ATOM     35  H   UNL     1      -5.391  10.623  16.877  0.00  0.00    +0.000 HD
ENDBRANCH  31  34
BRANCH  32  36
ATOM     36  O   UNL     1      -2.545   9.593  15.529  0.00  0.00    +0.000 OA
ATOM     37  H   UNL     1      -3.065   8.786  15.715  0.00  0.00    +0.000 HD
ENDBRANCH  32  36
ENDBRANCH  27  28
ENDBRANCH  24  27
ENDBRANCH  22  23
ENDBRANCH  21  22
ENDBRANCH   1  21
TORSDOF 15
ENDMDL
MODEL 3
REMARK VINA RESULT:      -7.0      6.183      9.297
REMARK  Name = 
REMARK  15 active torsions:
REMARK  status: ('A' for Active; 'I' for Inactive)
REMARK    1  A    between atoms: C_2  and  C_3
REMARK    2  A    between atoms: C_3  and  C_4
REMARK    3  A    between atoms: C_7  and  O_8
REMARK    4  A    between atoms: C_9  and  O_10
REMARK    5  A    between atoms: N_12  and  C_13
REMARK    6  A    between atoms: C_13  and  C_14
REMARK    7  A    between atoms: C_14  and  C_15
REMARK    8  A    between atoms: C_15  and  N_16
REMARK    9  A    between atoms: N_16  and  C_17
REMARK   10  A    between atoms: C_17  and  C_18
REMARK   11  A    between atoms: C_18  and  N_19
REMARK   12  A    between atoms: C_20  and  C_22
REMARK   13  A    between atoms: C_22  and  C_23
REMARK   14  A    between atoms: C_26  and  O_27
REMARK   15  A    between atoms: C_28  and  O_29
REMARK                            x       y       z     vdW  Elec       q    Type
REMARK                         _______ _______ _______ _____ _____    ______ ____
ROOT
ATOM      1  N   UNL     1       8.161   7.221  18.920  0.00  0.00    +0.000 NA
ATOM      2  H   UNL     1       7.957   7.810  19.729  0.00  0.00    +0.000 HD
ENDROOT
BRANCH   1   3
ATOM      3  C   UNL     1       7.783   7.935  17.699  0.00  0.00    +0.000 C 
BRANCH   3   4
ATOM      4  C   UNL     1       7.881   9.450  17.910  0.00  0.00    +0.000 C 
BRANCH   4   5
ATOM      5  C   UNL     1       8.787   9.777  19.095  0.00  0.00    +0.000 C 
BRANCH   5   8
ATOM      6  O   UNL     1      10.352  11.527  20.698  0.00  0.00    +0.000 OA
ATOM      7  C   UNL     1      10.694  11.308  19.539  0.00  0.00    +0.000 C 
ATOM      8  N   UNL     1       9.999  10.469  18.691  0.00  0.00    +0.000 N 
ATOM      9  H   UNL     1      10.424  10.212  17.809  0.00  0.00    +0.000 HD
BRANCH   7  10
ATOM     10  C   UNL     1      11.912  11.977  18.911  0.00  0.00    +0.000 C 
BRANCH  10  11
ATOM     11  C   UNL     1      11.711  13.433  18.562  0.00  0.00    +0.000 A 
ATOM     12  C   UNL     1      11.794  14.428  19.551  0.00  0.00    +0.000 A 
ATOM     13  C   UNL     1      11.606  15.778  19.235  0.00  0.00    +0.000 A 
ATOM     14  C   UNL     1      11.331  16.133  17.918  0.00  0.00    +0.000 A 
ATOM     15  C   UNL     1      11.222  15.155  16.938  0.00  0.00    +0.000 A 
ATOM     16  C   UNL     1      11.394  13.810  17.247  0.00  0.00    +0.000 A 
BRANCH  14  17
ATOM     17  O   UNL     1      11.160  17.437  17.542  0.00  0.00    +0.000 OA
ATOM     18  H   UNL     1      10.275  17.523  17.149  0.00  0.00    +0.000 HD
ENDBRANCH  14  17
BRANCH  15  19
ATOM     19  O   UNL     1      10.955  15.511  15.646  0.00  0.00    +0.000 OA
ATOM     20  H   UNL     1      11.635  15.043  15.121  0.00  0.00    +0.000 HD
ENDBRANCH  15  19
ENDBRANCH  10  11
ENDBRANCH   7  10
ENDBRANCH   5   8
ENDBRANCH   4   5
ENDBRANCH   3   4
ENDBRANCH   1   3
BRANCH   1  21
ATOM     21  C   UNL     1       7.408   5.964  19.054  0.00  0.00    +0.000 C 
BRANCH  21  22
ATOM     22  C   UNL     1       7.686   5.037  17.859  0.00  0.00    +0.000 C 
BRANCH  22  23
ATOM     23  N   UNL     1       6.549   4.201  17.519  0.00  0.00    +0.000 N 
ATOM     24  C   UNL     1       5.571   4.652  16.662  0.00  0.00    +0.000 C 
ATOM     25  O   UNL     1       5.615   5.753  16.111  0.00  0.00    +0.000 OA
ATOM     26  H   UNL     1       6.422   3.326  18.012  0.00  0.00    +0.000 HD
BRANCH  24  27
ATOM     27  C   UNL     1       4.423   3.690  16.440  0.00  0.00    +0.000 C 
BRANCH  27  28
ATOM     28  C   UNL     1       3.338   3.793  17.485  0.00  0.00    +0.000 A 
ATOM     29  C   UNL     1       2.378   2.773  17.623  0.00  0.00    +0.000 A 
ATOM     30  C   UNL     1       1.430   2.811  18.649  0.00  0.00    +0.000 A 
ATOM     31  C   UNL     1       1.443   3.875  19.541  0.00  0.00    +0.000 A 
ATOM     32  C   UNL     1       2.372   4.902  19.397  0.00  0.00    +0.000 A 
ATOM     33  C   UNL     1       3.316   4.873  18.379  0.00  0.00    +0.000 A 
BRANCH  31  34
ATOM     34  O   UNL     1       0.569   3.949  20.591  0.00  0.00    +0.000 OA
ATOM     35  H   UNL     1       0.759   3.206  21.189  0.00  0.00    +0.000 HD
ENDBRANCH  31  34
BRANCH  32  36
ATOM     36  O   UNL     1       2.377   5.944  20.279  0.00  0.00    +0.000 OA
ATOM     37  H   UNL     1       1.453   6.263  20.281  0.00  0.00    +0.000 HD
ENDBRANCH  32  36
ENDBRANCH  27  28
ENDBRANCH  24  27
ENDBRANCH  22  23
ENDBRANCH  21  22
ENDBRANCH   1  21
TORSDOF 15
ENDMDL
MODEL 4
REMARK VINA RESULT:      -6.9      5.859      9.020
REMARK  Name = 
REMARK  15 active torsions:
REMARK  status: ('A' for Active; 'I' for Inactive)
REMARK    1  A    between atoms: C_2  and  C_3
REMARK    2  A    between atoms: C_3  and  C_4
REMARK    3  A    between atoms: C_7  and  O_8
REMARK    4  A    between atoms: C_9  and  O_10
REMARK    5  A    between atoms: N_12  and  C_13
REMARK    6  A    between atoms: C_13  and  C_14
REMARK    7  A    between atoms: C_14  and  C_15
REMARK    8  A    between atoms: C_15  and  N_16
REMARK    9  A    between atoms: N_16  and  C_17
REMARK   10  A    between atoms: C_17  and  C_18
REMARK   11  A    between atoms: C_18  and  N_19
REMARK   12  A    between atoms: C_20  and  C_22
REMARK   13  A    between atoms: C_22  and  C_23
REMARK   14  A    between atoms: C_26  and  O_27
REMARK   15  A    between atoms: C_28  and  O_29
REMARK                            x       y       z     vdW  Elec       q    Type
REMARK                         _______ _______ _______ _____ _____    ______ ____
ROOT
ATOM      1  N   UNL     1       8.031   8.085  17.280  0.00  0.00    +0.000 NA
ATOM      2  H   UNL     1       7.155   7.927  16.780  0.00  0.00    +0.000 HD
ENDROOT
BRANCH   1   3
ATOM      3  C   UNL     1       8.124   7.140  18.396  0.00  0.00    +0.000 C 
BRANCH   3   4
ATOM      4  C   UNL     1       6.942   6.165  18.375  0.00  0.00    +0.000 C 
BRANCH   4   5
ATOM      5  C   UNL     1       7.279   4.919  17.559  0.00  0.00    +0.000 C 
BRANCH   5   8
ATOM      6  O   UNL     1       5.074   5.725  15.956  0.00  0.00    +0.000 OA
ATOM      7  C   UNL     1       5.072   4.604  16.458  0.00  0.00    +0.000 C 
ATOM      8  N   UNL     1       6.103   4.127  17.244  0.00  0.00    +0.000 N 
ATOM      9  H   UNL     1       6.108   3.145  17.490  0.00  0.00    +0.000 HD
BRANCH   7  10
ATOM     10  C   UNL     1       3.906   3.638  16.286  0.00  0.00    +0.000 C 
BRANCH  10  11
ATOM     11  C   UNL     1       3.044   3.478  17.517  0.00  0.00    +0.000 A 
ATOM     12  C   UNL     1       2.465   2.237  17.833  0.00  0.00    +0.000 A 
ATOM     13  C   UNL     1       1.664   2.084  18.970  0.00  0.00    +0.000 A 
ATOM     14  C   UNL     1       1.441   3.180  19.795  0.00  0.00    +0.000 A 
ATOM     15  C   UNL     1       1.988   4.417  19.478  0.00  0.00    +0.000 A 
ATOM     16  C   UNL     1       2.774   4.582  18.342  0.00  0.00    +0.000 A 
BRANCH  14  17
ATOM     17  O   UNL     1       0.687   3.089  20.933  0.00  0.00    +0.000 OA
ATOM     18  H   UNL     1       0.072   2.343  20.827  0.00  0.00    +0.000 HD
ENDBRANCH  14  17
BRANCH  15  19
ATOM     19  O   UNL     1       1.768   5.491  20.294  0.00  0.00    +0.000 OA
ATOM     20  H   UNL     1       1.299   5.116  21.066  0.00  0.00    +0.000 HD
ENDBRANCH  15  19
ENDBRANCH  10  11
ENDBRANCH   7  10
ENDBRANCH   5   8
ENDBRANCH   4   5
ENDBRANCH   3   4
ENDBRANCH   1   3
BRANCH   1  21
ATOM     21  C   UNL     1       8.053   9.476  17.761  0.00  0.00    +0.000 C 
BRANCH  21  22
ATOM     22  C   UNL     1       8.746   9.564  19.131  0.00  0.00    +0.000 C 
BRANCH  22  23
ATOM     23  N   UNL     1       9.959  10.362  19.097  0.00  0.00    +0.000 N 
ATOM     24  C   UNL     1      10.261  11.234  20.117  0.00  0.00    +0.000 C 
ATOM     25  O   UNL     1       9.558  11.364  21.120  0.00  0.00    +0.000 OA
ATOM     26  H   UNL     1      10.522  10.355  18.256  0.00  0.00    +0.000 HD
BRANCH  24  27
ATOM     27  C   UNL     1      11.532  12.033  19.919  0.00  0.00    +0.000 C 
BRANCH  27  28
ATOM     28  C   UNL     1      11.412  13.109  18.867  0.00  0.00    +0.000 A 
ATOM     29  C   UNL     1      11.802  12.857  17.539  0.00  0.00    +0.000 A 
ATOM     30  C   UNL     1      11.604  13.812  16.537  0.00  0.00    +0.000 A 
ATOM     31  C   UNL     1      11.014  15.024  16.868  0.00  0.00    +0.000 A 
ATOM     32  C   UNL     1      10.648  15.292  18.184  0.00  0.00    +0.000 A 
ATOM     33  C   UNL     1      10.843  14.350  19.185  0.00  0.00    +0.000 A 
BRANCH  31  34
ATOM     34  O   UNL     1      10.755  15.982  15.926  0.00  0.00    +0.000 OA
ATOM     35  H   UNL     1      11.553  16.529  15.830  0.00  0.00    +0.000 HD
ENDBRANCH  31  34
BRANCH  32  36
ATOM     36  O   UNL     1      10.068  16.488  18.499  0.00  0.00    +0.000 OA
ATOM     37  H   UNL     1       9.124  16.270  18.632  0.00  0.00    +0.000 HD
ENDBRANCH  32  36
ENDBRANCH  27  28
ENDBRANCH  24  27
ENDBRANCH  22  23
ENDBRANCH  21  22
ENDBRANCH   1  21
TORSDOF 15
ENDMDL
MODEL 5
REMARK VINA RESULT:      -6.8      1.495      1.529
REMARK  Name = 
REMARK  15 active torsions:
REMARK  status: ('A' for Active; 'I' for Inactive)
REMARK    1  A    between atoms: C_2  and  C_3
REMARK    2  A    between atoms: C_3  and  C_4
REMARK    3  A    between atoms: C_7  and  O_8
REMARK    4  A    between atoms: C_9  and  O_10
REMARK    5  A    between atoms: N_12  and  C_13
REMARK    6  A    between atoms: C_13  and  C_14
REMARK    7  A    between atoms: C_14  and  C_15
REMARK    8  A    between atoms: C_15  and  N_16
REMARK    9  A    between atoms: N_16  and  C_17
REMARK   10  A    between atoms: C_17  and  C_18
REMARK   11  A    between atoms: C_18  and  N_19
REMARK   12  A    between atoms: C_20  and  C_22
REMARK   13  A    between atoms: C_22  and  C_23
REMARK   14  A    between atoms: C_26  and  O_27
REMARK   15  A    between atoms: C_28  and  O_29
REMARK                            x       y       z     vdW  Elec       q    Type
REMARK                         _______ _______ _______ _____ _____    ______ ____
ROOT
ATOM      1  N   UNL     1       1.697   5.283  19.509  0.00  0.00    +0.000 NA
ATOM      2  H   UNL     1       0.892   5.635  18.987  0.00  0.00    +0.000 HD
ENDROOT
BRANCH   1   3
ATOM      3  C   UNL     1       1.221   4.512  20.660  0.00  0.00    +0.000 C 
BRANCH   3   4
ATOM      4  C   UNL     1       0.546   3.216  20.198  0.00  0.00    +0.000 C 
BRANCH   4   5
ATOM      5  C   UNL     1       1.588   2.162  19.828  0.00  0.00    +0.000 C 
BRANCH   5   8
ATOM      6  O   UNL     1       4.379   2.358  19.326  0.00  0.00    +0.000 OA
ATOM      7  C   UNL     1       3.591   2.517  18.398  0.00  0.00    +0.000 C 
ATOM      8  N   UNL     1       2.220   2.434  18.549  0.00  0.00    +0.000 N 
ATOM      9  H   UNL     1       1.643   2.417  17.718  0.00  0.00    +0.000 HD
BRANCH   7  10
ATOM     10  C   UNL     1       4.054   2.858  16.986  0.00  0.00    +0.000 C 
BRANCH  10  11
ATOM     11  C   UNL     1       5.022   4.016  16.913  0.00  0.00    +0.000 A 
ATOM     12  C   UNL     1       4.997   5.037  17.880  0.00  0.00    +0.000 A 
ATOM     13  C   UNL     1       5.889   6.113  17.815  0.00  0.00    +0.000 A 
ATOM     14  C   UNL     1       6.811   6.169  16.776  0.00  0.00    +0.000 A 
ATOM     15  C   UNL     1       6.826   5.179  15.801  0.00  0.00    +0.000 A 
ATOM     16  C   UNL     1       5.935   4.113  15.850  0.00  0.00    +0.000 A 
BRANCH  14  17
ATOM     17  O   UNL     1       7.724   7.182  16.671  0.00  0.00    +0.000 OA
ATOM     18  H   UNL     1       8.185   7.085  15.821  0.00  0.00    +0.000 HD
ENDBRANCH  14  17
BRANCH  15  19
ATOM     19  O   UNL     1       7.736   5.237  14.783  0.00  0.00    +0.000 OA
ATOM     20  H   UNL     1       7.829   6.192  14.595  0.00  0.00    +0.000 HD
ENDBRANCH  15  19
ENDBRANCH  10  11
ENDBRANCH   7  10
ENDBRANCH   5   8
ENDBRANCH   4   5
ENDBRANCH   3   4
ENDBRANCH   1   3
BRANCH   1  21
ATOM     21  C   UNL     1       2.516   6.427  19.938  0.00  0.00    +0.000 C 
BRANCH  21  22
ATOM     22  C   UNL     1       1.633   7.517  20.570  0.00  0.00    +0.000 C 
BRANCH  22  23
ATOM     23  N   UNL     1       1.365   8.618  19.662  0.00  0.00    +0.000 N 
ATOM     24  C   UNL     1       0.925   9.833  20.135  0.00  0.00    +0.000 C 
ATOM     25  O   UNL     1       0.767  10.071  21.333  0.00  0.00    +0.000 OA
ATOM     26  H   UNL     1       1.395   8.446  18.665  0.00  0.00    +0.000 HD
BRANCH  24  27
ATOM     27  C   UNL     1       0.643  10.870  19.067  0.00  0.00    +0.000 C 
BRANCH  27  28
ATOM     28  C   UNL     1      -0.798  10.896  18.617  0.00  0.00    +0.000 A 
ATOM     29  C   UNL     1      -1.283   9.931  17.714  0.00  0.00    +0.000 A 
ATOM     30  C   UNL     1      -2.636   9.886  17.367  0.00  0.00    +0.000 A 
ATOM     31  C   UNL     1      -3.507  10.812  17.925  0.00  0.00    +0.000 A 
ATOM     32  C   UNL     1      -3.032  11.787  18.798  0.00  0.00    +0.000 A 
ATOM     33  C   UNL     1      -1.689  11.840  19.147  0.00  0.00    +0.000 A 
BRANCH  31  34
ATOM     34  O   UNL     1      -4.848  10.795  17.658  0.00  0.00    +0.000 OA
ATOM     35  H   UNL     1      -4.960  10.695  16.697  0.00  0.00    +0.000 HD
ENDBRANCH  31  34
BRANCH  32  36
ATOM     36  O   UNL     1      -3.897  12.693  19.342  0.00  0.00    +0.000 OA
ATOM     37  H   UNL     1      -3.356  13.184  19.992  0.00  0.00    +0.000 HD
ENDBRANCH  32  36
ENDBRANCH  27  28
ENDBRANCH  24  27
ENDBRANCH  22  23
ENDBRANCH  21  22
ENDBRANCH   1  21
TORSDOF 15
ENDMDL
MODEL 6
REMARK VINA RESULT:      -6.8      2.644      9.630
REMARK  Name = 
REMARK  15 active torsions:
REMARK  status: ('A' for Active; 'I' for Inactive)
REMARK    1  A    between atoms: C_2  and  C_3
REMARK    2  A    between atoms: C_3  and  C_4
REMARK    3  A    between atoms: C_7  and  O_8
REMARK    4  A    between atoms: C_9  and  O_10
REMARK    5  A    between atoms: N_12  and  C_13
REMARK    6  A    between atoms: C_13  and  C_14
REMARK    7  A    between atoms: C_14  and  C_15
REMARK    8  A    between atoms: C_15  and  N_16
REMARK    9  A    between atoms: N_16  and  C_17
REMARK   10  A    between atoms: C_17  and  C_18
REMARK   11  A    between atoms: C_18  and  N_19
REMARK   12  A    between atoms: C_20  and  C_22
REMARK   13  A    between atoms: C_22  and  C_23
REMARK   14  A    between atoms: C_26  and  O_27
REMARK   15  A    between atoms: C_28  and  O_29
REMARK                            x       y       z     vdW  Elec       q    Type
REMARK                         _______ _______ _______ _____ _____    ______ ____
ROOT
ATOM      1  N   UNL     1       0.526  11.348  21.082  0.00  0.00    +0.000 NA
ATOM      2  H   UNL     1       1.246  11.869  21.585  0.00  0.00    +0.000 HD
ENDROOT
BRANCH   1   3
ATOM      3  C   UNL     1       0.356  10.036  21.710  0.00  0.00    +0.000 C 
BRANCH   3   4
ATOM      4  C   UNL     1      -0.609  10.128  22.897  0.00  0.00    +0.000 C 
BRANCH   4   5
ATOM      5  C   UNL     1      -1.109  11.559  23.081  0.00  0.00    +0.000 C 
BRANCH   5   8
ATOM      6  O   UNL     1      -1.665  13.723  21.324  0.00  0.00    +0.000 OA
ATOM      7  C   UNL     1      -2.540  12.891  21.545  0.00  0.00    +0.000 C 
ATOM      8  N   UNL     1      -2.356  11.805  22.379  0.00  0.00    +0.000 N 
ATOM      9  H   UNL     1      -3.061  11.079  22.390  0.00  0.00    +0.000 HD
BRANCH   7  10
ATOM     10  C   UNL     1      -3.936  12.997  20.941  0.00  0.00    +0.000 C 
BRANCH  10  11
ATOM     11  C   UNL     1      -4.062  12.403  19.558  0.00  0.00    +0.000 A 
ATOM     12  C   UNL     1      -2.957  11.798  18.932  0.00  0.00    +0.000 A 
ATOM     13  C   UNL     1      -3.067  11.249  17.649  0.00  0.00    +0.000 A 
ATOM     14  C   UNL     1      -4.289  11.306  16.990  0.00  0.00    +0.000 A 
ATOM     15  C   UNL     1      -5.379  11.923  17.589  0.00  0.00    +0.000 A 
ATOM     16  C   UNL     1      -5.276  12.484  18.857  0.00  0.00    +0.000 A 
BRANCH  14  17
ATOM     17  O   UNL     1      -4.466  10.766  15.745  0.00  0.00    +0.000 OA
ATOM     18  H   UNL     1      -4.605  11.496  15.118  0.00  0.00    +0.000 HD
ENDBRANCH  14  17
BRANCH  15  19
ATOM     19  O   UNL     1      -6.579  11.974  16.937  0.00  0.00    +0.000 OA
ATOM     20  H   UNL     1      -6.945  11.072  17.033  0.00  0.00    +0.000 HD
ENDBRANCH  15  19
ENDBRANCH  10  11
ENDBRANCH   7  10
ENDBRANCH   5   8
ENDBRANCH   4   5
ENDBRANCH   3   4
ENDBRANCH   1   3
BRANCH   1  21
ATOM     21  C   UNL     1       0.939  11.214  19.676  0.00  0.00    +0.000 C 
BRANCH  21  22
ATOM     22  C   UNL     1       0.380   9.916  19.070  0.00  0.00    +0.000 C 
BRANCH  22  23
ATOM     23  N   UNL     1       1.347   9.224  18.236  0.00  0.00    +0.000 N 
ATOM     24  C   UNL     1       2.125   8.210  18.746  0.00  0.00    +0.000 C 
ATOM     25  O   UNL     1       2.028   7.808  19.906  0.00  0.00    +0.000 OA
ATOM     26  H   UNL     1       1.525   9.575  17.303  0.00  0.00    +0.000 HD
BRANCH  24  27
ATOM     27  C   UNL     1       3.120   7.616  17.771  0.00  0.00    +0.000 C 
BRANCH  27  28
ATOM     28  C   UNL     1       3.367   6.142  17.984  0.00  0.00    +0.000 A 
ATOM     29  C   UNL     1       2.324   5.212  17.820  0.00  0.00    +0.000 A 
ATOM     30  C   UNL     1       2.563   3.838  17.918  0.00  0.00    +0.000 A 
ATOM     31  C   UNL     1       3.852   3.395  18.182  0.00  0.00    +0.000 A 
ATOM     32  C   UNL     1       4.885   4.309  18.372  0.00  0.00    +0.000 A 
ATOM     33  C   UNL     1       4.656   5.675  18.278  0.00  0.00    +0.000 A 
BRANCH  31  34
ATOM     34  O   UNL     1       4.159   2.063  18.249  0.00  0.00    +0.000 OA
ATOM     35  H   UNL     1       3.832   1.641  17.436  0.00  0.00    +0.000 HD
ENDBRANCH  31  34
BRANCH  32  36
ATOM     36  O   UNL     1       6.150   3.863  18.631  0.00  0.00    +0.000 OA
ATOM     37  H   UNL     1       6.308   4.112  19.563  0.00  0.00    +0.000 HD
ENDBRANCH  32  36
ENDBRANCH  27  28
ENDBRANCH  24  27
ENDBRANCH  22  23
ENDBRANCH  21  22
ENDBRANCH   1  21
TORSDOF 15
ENDMDL
MODEL 7
REMARK VINA RESULT:      -6.7      1.388      2.006
REMARK  Name = 
REMARK  15 active torsions:
REMARK  status: ('A' for Active; 'I' for Inactive)
REMARK    1  A    between atoms: C_2  and  C_3
REMARK    2  A    between atoms: C_3  and  C_4
REMARK    3  A    between atoms: C_7  and  O_8
REMARK    4  A    between atoms: C_9  and  O_10
REMARK    5  A    between atoms: N_12  and  C_13
REMARK    6  A    between atoms: C_13  and  C_14
REMARK    7  A    between atoms: C_14  and  C_15
REMARK    8  A    between atoms: C_15  and  N_16
REMARK    9  A    between atoms: N_16  and  C_17
REMARK   10  A    between atoms: C_17  and  C_18
REMARK   11  A    between atoms: C_18  and  N_19
REMARK   12  A    between atoms: C_20  and  C_22
REMARK   13  A    between atoms: C_22  and  C_23
REMARK   14  A    between atoms: C_26  and  O_27
REMARK   15  A    between atoms: C_28  and  O_29
REMARK                            x       y       z     vdW  Elec       q    Type
REMARK                         _______ _______ _______ _____ _____    ______ ____
ROOT
ATOM      1  N   UNL     1       2.366   6.322  18.747  0.00  0.00    +0.000 NA
ATOM      2  H   UNL     1       1.548   5.905  18.299  0.00  0.00    +0.000 HD
ENDROOT
BRANCH   1   3
ATOM      3  C   UNL     1       2.525   5.747  20.085  0.00  0.00    +0.000 C 
BRANCH   3   4
ATOM      4  C   UNL     1       1.407   4.739  20.374  0.00  0.00    +0.000 C 
BRANCH   4   5
ATOM      5  C   UNL     1       1.855   3.319  20.036  0.00  0.00    +0.000 C 
BRANCH   5   8
ATOM      6  O   UNL     1       1.783   3.496  17.199  0.00  0.00    +0.000 OA
ATOM      7  C   UNL     1       2.867   3.384  17.765  0.00  0.00    +0.000 C 
ATOM      8  N   UNL     1       2.997   3.298  19.137  0.00  0.00    +0.000 N 
ATOM      9  H   UNL     1       3.923   3.368  19.540  0.00  0.00    +0.000 HD
BRANCH   7  10
ATOM     10  C   UNL     1       4.180   3.295  16.996  0.00  0.00    +0.000 C 
BRANCH  10  11
ATOM     11  C   UNL     1       5.114   4.461  17.224  0.00  0.00    +0.000 A 
ATOM     12  C   UNL     1       5.008   5.629  16.448  0.00  0.00    +0.000 A 
ATOM     13  C   UNL     1       5.872   6.711  16.651  0.00  0.00    +0.000 A 
ATOM     14  C   UNL     1       6.848   6.622  17.638  0.00  0.00    +0.000 A 
ATOM     15  C   UNL     1       6.976   5.463  18.393  0.00  0.00    +0.000 A 
ATOM     16  C   UNL     1       6.132   4.378  18.188  0.00  0.00    +0.000 A 
BRANCH  14  17
ATOM     17  O   UNL     1       7.707   7.654  17.901  0.00  0.00    +0.000 OA
ATOM     18  H   UNL     1       8.184   7.446  18.722  0.00  0.00    +0.000 HD
ENDBRANCH  14  17
BRANCH  15  19
ATOM     19  O   UNL     1       7.936   5.383  19.363  0.00  0.00    +0.000 OA
ATOM     20  H   UNL     1       8.757   5.672  18.917  0.00  0.00    +0.000 HD
ENDBRANCH  15  19
ENDBRANCH  10  11
ENDBRANCH   7  10
ENDBRANCH   5   8
ENDBRANCH   4   5
ENDBRANCH   3   4
ENDBRANCH   1   3
BRANCH   1  21
ATOM     21  C   UNL     1       2.174   7.779  18.815  0.00  0.00    +0.000 C 
BRANCH  21  22
ATOM     22  C   UNL     1       1.819   8.211  20.248  0.00  0.00    +0.000 C 
BRANCH  22  23
ATOM     23  N   UNL     1       0.586   8.975  20.315  0.00  0.00    +0.000 N 
ATOM     24  C   UNL     1       0.493  10.221  19.740  0.00  0.00    +0.000 C 
ATOM     25  O   UNL     1       1.417  10.742  19.114  0.00  0.00    +0.000 OA
ATOM     26  H   UNL     1      -0.170   8.628  20.892  0.00  0.00    +0.000 HD
BRANCH  24  27
ATOM     27  C   UNL     1      -0.838  10.916  19.933  0.00  0.00    +0.000 C 
BRANCH  27  28
ATOM     28  C   UNL     1      -1.718  10.887  18.706  0.00  0.00    +0.000 A 
ATOM     29  C   UNL     1      -1.420  10.028  17.633  0.00  0.00    +0.000 A 
ATOM     30  C   UNL     1      -2.280   9.921  16.536  0.00  0.00    +0.000 A 
ATOM     31  C   UNL     1      -3.442  10.679  16.514  0.00  0.00    +0.000 A 
ATOM     32  C   UNL     1      -3.732  11.553  17.559  0.00  0.00    +0.000 A 
ATOM     33  C   UNL     1      -2.883  11.666  18.651  0.00  0.00    +0.000 A 
BRANCH  31  34
ATOM     34  O   UNL     1      -4.345  10.589  15.490  0.00  0.00    +0.000 OA
ATOM     35  H   UNL     1      -4.950  11.347  15.559  0.00  0.00    +0.000 HD
ENDBRANCH  31  34
BRANCH  32  36
ATOM     36  O   UNL     1      -4.878  12.295  17.528  0.00  0.00    +0.000 OA
ATOM     37  H   UNL     1      -5.526  11.760  18.029  0.00  0.00    +0.000 HD
ENDBRANCH  32  36
ENDBRANCH  27  28
ENDBRANCH  24  27
ENDBRANCH  22  23
ENDBRANCH  21  22
ENDBRANCH   1  21
TORSDOF 15
ENDMDL
MODEL 8
REMARK VINA RESULT:      -6.7      1.582      2.238
REMARK  Name = 
REMARK  15 active torsions:
REMARK  status: ('A' for Active; 'I' for Inactive)
REMARK    1  A    between atoms: C_2  and  C_3
REMARK    2  A    between atoms: C_3  and  C_4
REMARK    3  A    between atoms: C_7  and  O_8
REMARK    4  A    between atoms: C_9  and  O_10
REMARK    5  A    between atoms: N_12  and  C_13
REMARK    6  A    between atoms: C_13  and  C_14
REMARK    7  A    between atoms: C_14  and  C_15
REMARK    8  A    between atoms: C_15  and  N_16
REMARK    9  A    between atoms: N_16  and  C_17
REMARK   10  A    between atoms: C_17  and  C_18
REMARK   11  A    between atoms: C_18  and  N_19
REMARK   12  A    between atoms: C_20  and  C_22
REMARK   13  A    between atoms: C_22  and  C_23
REMARK   14  A    between atoms: C_26  and  O_27
REMARK   15  A    between atoms: C_28  and  O_29
REMARK                            x       y       z     vdW  Elec       q    Type
REMARK                         _______ _______ _______ _____ _____    ______ ____
ROOT
ATOM      1  N   UNL     1       3.049   5.913  20.719  0.00  0.00    +0.000 NA
ATOM      2  H   UNL     1       3.989   6.054  20.344  0.00  0.00    +0.000 HD
ENDROOT
BRANCH   1   3
ATOM      3  C   UNL     1       2.756   4.478  20.749  0.00  0.00    +0.000 C 
BRANCH   3   4
ATOM      4  C   UNL     1       1.243   4.236  20.715  0.00  0.00    +0.000 C 
BRANCH   4   5
ATOM      5  C   UNL     1       0.892   3.121  19.733  0.00  0.00    +0.000 C 
BRANCH   5   8
ATOM      6  O   UNL     1       1.288   4.325  17.188  0.00  0.00    +0.000 OA
ATOM      7  C   UNL     1       2.083   3.474  17.579  0.00  0.00    +0.000 C 
ATOM      8  N   UNL     1       1.973   2.842  18.802  0.00  0.00    +0.000 N 
ATOM      9  H   UNL     1       2.746   2.274  19.125  0.00  0.00    +0.000 HD
BRANCH   7  10
ATOM     10  C   UNL     1       3.259   3.008  16.728  0.00  0.00    +0.000 C 
BRANCH  10  11
ATOM     11  C   UNL     1       4.448   3.939  16.747  0.00  0.00    +0.000 A 
ATOM     12  C   UNL     1       4.875   4.584  15.574  0.00  0.00    +0.000 A 
ATOM     13  C   UNL     1       5.979   5.446  15.584  0.00  0.00    +0.000 A 
ATOM     14  C   UNL     1       6.658   5.662  16.778  0.00  0.00    +0.000 A 
ATOM     15  C   UNL     1       6.259   5.010  17.938  0.00  0.00    +0.000 A 
ATOM     16  C   UNL     1       5.173   4.142  17.933  0.00  0.00    +0.000 A 
BRANCH  14  17
ATOM     17  O   UNL     1       7.728   6.510  16.859  0.00  0.00    +0.000 OA
ATOM     18  H   UNL     1       8.238   6.429  16.035  0.00  0.00    +0.000 HD
ENDBRANCH  14  17
BRANCH  15  19
ATOM     19  O   UNL     1       6.928   5.229  19.109  0.00  0.00    +0.000 OA
ATOM     20  H   UNL     1       6.502   6.024  19.487  0.00  0.00    +0.000 HD
ENDBRANCH  15  19
ENDBRANCH  10  11
ENDBRANCH   7  10
ENDBRANCH   5   8
ENDBRANCH   4   5
ENDBRANCH   3   4
ENDBRANCH   1   3
BRANCH   1  21
ATOM     21  C   UNL     1       2.090   6.632  19.866  0.00  0.00    +0.000 C 
BRANCH  21  22
ATOM     22  C   UNL     1       1.571   7.892  20.579  0.00  0.00    +0.000 C 
BRANCH  22  23
ATOM     23  N   UNL     1       1.247   8.966  19.657  0.00  0.00    +0.000 N 
ATOM     24  C   UNL     1       0.348   9.948  20.003  0.00  0.00    +0.000 C 
ATOM     25  O   UNL     1      -0.199  10.001  21.105  0.00  0.00    +0.000 OA
ATOM     26  H   UNL     1       1.602   8.918  18.710  0.00  0.00    +0.000 HD
BRANCH  24  27
ATOM     27  C   UNL     1       0.074  10.973  18.922  0.00  0.00    +0.000 C 
BRANCH  27  28
ATOM     28  C   UNL     1      -1.341  10.933  18.397  0.00  0.00    +0.000 A 
ATOM     29  C   UNL     1      -2.346  11.719  18.990  0.00  0.00    +0.000 A 
ATOM     30  C   UNL     1      -3.635  11.765  18.452  0.00  0.00    +0.000 A 
ATOM     31  C   UNL     1      -3.919  11.018  17.317  0.00  0.00    +0.000 A 
ATOM     32  C   UNL     1      -2.939  10.216  16.739  0.00  0.00    +0.000 A 
ATOM     33  C   UNL     1      -1.656  10.164  17.268  0.00  0.00    +0.000 A 
BRANCH  31  34
ATOM     34  O   UNL     1      -5.149  11.052  16.718  0.00  0.00    +0.000 OA
ATOM     35  H   UNL     1      -5.308  11.963  16.415  0.00  0.00    +0.000 HD
ENDBRANCH  31  34
BRANCH  32  36
ATOM     36  O   UNL     1      -3.228   9.486  15.622  0.00  0.00    +0.000 OA
ATOM     37  H   UNL     1      -2.941   8.578  15.845  0.00  0.00    +0.000 HD
ENDBRANCH  32  36
ENDBRANCH  27  28
ENDBRANCH  24  27
ENDBRANCH  22  23
ENDBRANCH  21  22
ENDBRANCH   1  21
TORSDOF 15
ENDMDL
MODEL 9
REMARK VINA RESULT:      -6.7      1.354      1.842
REMARK  Name = 
REMARK  15 active torsions:
REMARK  status: ('A' for Active; 'I' for Inactive)
REMARK    1  A    between atoms: C_2  and  C_3
REMARK    2  A    between atoms: C_3  and  C_4
REMARK    3  A    between atoms: C_7  and  O_8
REMARK    4  A    between atoms: C_9  and  O_10
REMARK    5  A    between atoms: N_12  and  C_13
REMARK    6  A    between atoms: C_13  and  C_14
REMARK    7  A    between atoms: C_14  and  C_15
REMARK    8  A    between atoms: C_15  and  N_16
REMARK    9  A    between atoms: N_16  and  C_17
REMARK   10  A    between atoms: C_17  and  C_18
REMARK   11  A    between atoms: C_18  and  N_19
REMARK   12  A    between atoms: C_20  and  C_22
REMARK   13  A    between atoms: C_22  and  C_23
REMARK   14  A    between atoms: C_26  and  O_27
REMARK   15  A    between atoms: C_28  and  O_29
REMARK                            x       y       z     vdW  Elec       q    Type
REMARK                         _______ _______ _______ _____ _____    ______ ____
ROOT
ATOM      1  N   UNL     1       2.516   4.927  20.756  0.00  0.00    +0.000 NA
ATOM      2  H   UNL     1       3.123   4.565  20.019  0.00  0.00    +0.000 HD
ENDROOT
BRANCH   1   3
ATOM      3  C   UNL     1       1.215   4.257  20.677  0.00  0.00    +0.000 C 
BRANCH   3   4
ATOM      4  C   UNL     1       1.396   2.760  20.401  0.00  0.00    +0.000 C 
BRANCH   4   5
ATOM      5  C   UNL     1       1.101   2.439  18.937  0.00  0.00    +0.000 C 
BRANCH   5   8
ATOM      6  O   UNL     1       3.718   1.826  18.010  0.00  0.00    +0.000 OA
ATOM      7  C   UNL     1       3.173   2.859  17.629  0.00  0.00    +0.000 C 
ATOM      8  N   UNL     1       1.903   3.233  18.023  0.00  0.00    +0.000 N 
ATOM      9  H   UNL     1       1.459   4.009  17.548  0.00  0.00    +0.000 HD
BRANCH   7  10
ATOM     10  C   UNL     1       3.869   3.851  16.704  0.00  0.00    +0.000 C 
BRANCH  10  11
ATOM     11  C   UNL     1       5.025   4.588  17.340  0.00  0.00    +0.000 A 
ATOM     12  C   UNL     1       5.246   4.519  18.726  0.00  0.00    +0.000 A 
ATOM     13  C   UNL     1       6.313   5.203  19.321  0.00  0.00    +0.000 A 
ATOM     14  C   UNL     1       7.163   5.959  18.522  0.00  0.00    +0.000 A 
ATOM     15  C   UNL     1       6.938   6.054  17.155  0.00  0.00    +0.000 A 
ATOM     16  C   UNL     1       5.872   5.390  16.557  0.00  0.00    +0.000 A 
BRANCH  14  17
ATOM     17  O   UNL     1       8.237   6.630  19.040  0.00  0.00    +0.000 OA
ATOM     18  H   UNL     1       8.963   5.994  19.153  0.00  0.00    +0.000 HD
ENDBRANCH  14  17
BRANCH  15  19
ATOM     19  O   UNL     1       7.778   6.796  16.374  0.00  0.00    +0.000 OA
ATOM     20  H   UNL     1       7.249   7.003  15.577  0.00  0.00    +0.000 HD
ENDBRANCH  15  19
ENDBRANCH  10  11
ENDBRANCH   7  10
ENDBRANCH   5   8
ENDBRANCH   4   5
ENDBRANCH   3   4
ENDBRANCH   1   3
BRANCH   1  21
ATOM     21  C   UNL     1       2.375   6.380  20.578  0.00  0.00    +0.000 C 
BRANCH  21  22
ATOM     22  C   UNL     1       2.259   6.733  19.085  0.00  0.00    +0.000 C 
BRANCH  22  23
ATOM     23  N   UNL     1       2.042   8.150  18.858  0.00  0.00    +0.000 N 
ATOM     24  C   UNL     1       1.275   8.897  19.722  0.00  0.00    +0.000 C 
ATOM     25  O   UNL     1       0.764   8.429  20.741  0.00  0.00    +0.000 OA
ATOM     26  H   UNL     1       2.367   8.560  17.991  0.00  0.00    +0.000 HD
BRANCH  24  27
ATOM     27  C   UNL     1       1.099  10.348  19.330  0.00  0.00    +0.000 C 
BRANCH  27  28
ATOM     28  C   UNL     1      -0.303  10.687  18.883  0.00  0.00    +0.000 A 
ATOM     29  C   UNL     1      -1.082  11.608  19.609  0.00  0.00    +0.000 A 
ATOM     30  C   UNL     1      -2.342  12.002  19.151  0.00  0.00    +0.000 A 
ATOM     31  C   UNL     1      -2.824  11.472  17.962  0.00  0.00    +0.000 A 
ATOM     32  C   UNL     1      -2.073  10.540  17.251  0.00  0.00    +0.000 A 
ATOM     33  C   UNL     1      -0.821  10.141  17.700  0.00  0.00    +0.000 A 
BRANCH  31  34
ATOM     34  O   UNL     1      -4.031  11.849  17.440  0.00  0.00    +0.000 OA
ATOM     35  H   UNL     1      -4.532  12.299  18.141  0.00  0.00    +0.000 HD
ENDBRANCH  31  34
BRANCH  32  36
ATOM     36  O   UNL     1      -2.556  10.024  16.083  0.00  0.00    +0.000 OA
ATOM     37  H   UNL     1      -3.287  10.625  15.838  0.00  0.00    +0.000 HD
ENDBRANCH  32  36
ENDBRANCH  27  28
ENDBRANCH  24  27
ENDBRANCH  22  23
ENDBRANCH  21  22
ENDBRANCH   1  21
TORSDOF 15
ENDMDL
