MODEL 1
REMARK VINA RESULT:      -5.6      0.000      0.000
REMARK  Name = 
REMARK  5 active torsions:
REMARK  status: ('A' for Active; 'I' for Inactive)
REMARK    1  A    between atoms: C_1  and  C_2
REMARK    2  A    between atoms: C_5  and  C_6
REMARK    3  A    between atoms: C_6  and  N_7
REMARK    4  A    between atoms: N_7  and  C_8
REMARK    5  A    between atoms: C_8  and  C_9
REMARK                            x       y       z     vdW  Elec       q    Type
REMARK                         _______ _______ _______ _____ _____    ______ ____
ROOT
ATOM      1  N   UNL     1       5.237   2.651  19.454  0.00  0.00    +0.000 NA
ATOM      2  H   UNL     1       6.179   2.349  19.704  0.00  0.00    +0.000 HD
ENDROOT
BRANCH   1   3
ATOM      3  C   UNL     1       5.278   4.077  19.134  0.00  0.00    +0.000 C 
BRANCH   3   8
ATOM      4  C   UNL     1       7.275   4.979  14.252  0.00  0.00    +0.000 C 
ATOM      5  C   UNL     1       6.367   4.678  15.394  0.00  0.00    +0.000 A 
ATOM      6  C   UNL     1       5.018   4.389  15.363  0.00  0.00    +0.000 A 
ATOM      7  C   UNL     1       4.488   4.156  16.664  0.00  0.00    +0.000 A 
ATOM      8  C   UNL     1       5.448   4.262  17.653  0.00  0.00    +0.000 A 
ATOM      9  S   UNL     1       6.977   4.661  16.993  0.00  0.00    +0.000 S 
ENDBRANCH   3   8
ENDBRANCH   1   3
BRANCH   1  10
ATOM     10  C   UNL     1       4.346   2.384  20.581  0.00  0.00    +0.000 C 
BRANCH  10  11
ATOM     11  C   UNL     1       2.931   2.715  20.202  0.00  0.00    +0.000 A 
ATOM     12  C   UNL     1       2.166   2.174  19.184  0.00  0.00    +0.000 A 
ATOM     13  C   UNL     1       0.858   2.733  19.128  0.00  0.00    +0.000 A 
ATOM     14  C   UNL     1       0.665   3.690  20.099  0.00  0.00    +0.000 A 
ATOM     15  S   UNL     1       2.055   3.906  21.071  0.00  0.00    +0.000 S 
ENDBRANCH  10  11
ENDBRANCH   1  10
TORSDOF 4
ENDMDL
MODEL 2
REMARK VINA RESULT:      -5.6      1.106      1.371
REMARK  Name = 
REMARK  5 active torsions:
REMARK  status: ('A' for Active; 'I' for Inactive)
REMARK    1  A    between atoms: C_1  and  C_2
REMARK    2  A    between atoms: C_5  and  C_6
REMARK    3  A    between atoms: C_6  and  N_7
REMARK    4  A    between atoms: N_7  and  C_8
REMARK    5  A    between atoms: C_8  and  C_9
REMARK                            x       y       z     vdW  Elec       q    Type
REMARK                         _______ _______ _______ _____ _____    ______ ____
ROOT
ATOM      1  N   UNL     1       5.255   3.178  19.727  0.00  0.00    +0.000 NA
ATOM      2  H   UNL     1       5.147   3.375  20.722  0.00  0.00    +0.000 HD
ENDROOT
BRANCH   1   3
ATOM      3  C   UNL     1       4.931   4.389  18.976  0.00  0.00    +0.000 C 
BRANCH   3   8
ATOM      4  C   UNL     1       6.247   4.083  13.798  0.00  0.00    +0.000 C 
ATOM      5  C   UNL     1       6.287   4.253  15.277  0.00  0.00    +0.000 A 
ATOM      6  C   UNL     1       7.367   4.571  16.074  0.00  0.00    +0.000 A 
ATOM      7  C   UNL     1       7.016   4.646  17.453  0.00  0.00    +0.000 A 
ATOM      8  C   UNL     1       5.674   4.393  17.670  0.00  0.00    +0.000 A 
ATOM      9  S   UNL     1       4.861   4.052  16.202  0.00  0.00    +0.000 S 
ENDBRANCH   3   8
ENDBRANCH   1   3
BRANCH   1  10
ATOM     10  C   UNL     1       4.363   2.076  19.371  0.00  0.00    +0.000 C 
BRANCH  10  11
ATOM     11  C   UNL     1       2.939   2.461  19.654  0.00  0.00    +0.000 A 
ATOM     12  C   UNL     1       1.888   2.573  18.763  0.00  0.00    +0.000 A 
ATOM     13  C   UNL     1       0.672   2.958  19.397  0.00  0.00    +0.000 A 
ATOM     14  C   UNL     1       0.834   3.135  20.753  0.00  0.00    +0.000 A 
ATOM     15  S   UNL     1       2.441   2.836  21.252  0.00  0.00    +0.000 S 
ENDBRANCH  10  11
ENDBRANCH   1  10
TORSDOF 4
ENDMDL
MODEL 3
REMARK VINA RESULT:      -5.5      2.077      2.716
REMARK  Name = 
REMARK  5 active torsions:
REMARK  status: ('A' for Active; 'I' for Inactive)
REMARK    1  A    between atoms: C_1  and  C_2
REMARK    2  A    between atoms: C_5  and  C_6
REMARK    3  A    between atoms: C_6  and  N_7
REMARK    4  A    between atoms: N_7  and  C_8
REMARK    5  A    between atoms: C_8  and  C_9
REMARK                            x       y       z     vdW  Elec       q    Type
REMARK                         _______ _______ _______ _____ _____    ______ ____
ROOT
ATOM      1  N   UNL     1       3.870   3.095  17.346  0.00  0.00    +0.000 NA
ATOM      2  H   UNL     1       4.568   2.862  18.052  0.00  0.00    +0.000 HD
ENDROOT
BRANCH   1   3
ATOM      3  C   UNL     1       3.690   4.546  17.334  0.00  0.00    +0.000 C 
BRANCH   3   8
ATOM      4  C   UNL     1       7.818   7.945  17.540  0.00  0.00    +0.000 C 
ATOM      5  C   UNL     1       6.901   6.792  17.760  0.00  0.00    +0.000 A 
ATOM      6  C   UNL     1       7.069   5.712  18.602  0.00  0.00    +0.000 A 
ATOM      7  C   UNL     1       5.972   4.806  18.541  0.00  0.00    +0.000 A 
ATOM      8  C   UNL     1       4.991   5.223  17.661  0.00  0.00    +0.000 A 
ATOM      9  S   UNL     1       5.420   6.700  16.907  0.00  0.00    +0.000 S 
ENDBRANCH   3   8
ENDBRANCH   1   3
BRANCH   1  10
ATOM     10  C   UNL     1       2.623   2.407  17.678  0.00  0.00    +0.000 C 
BRANCH  10  11
ATOM     11  C   UNL     1       2.311   2.594  19.135  0.00  0.00    +0.000 A 
ATOM     12  C   UNL     1       1.090   2.874  19.722  0.00  0.00    +0.000 A 
ATOM     13  C   UNL     1       1.176   2.977  21.140  0.00  0.00    +0.000 A 
ATOM     14  C   UNL     1       2.461   2.778  21.592  0.00  0.00    +0.000 A 
ATOM     15  S   UNL     1       3.552   2.469  20.313  0.00  0.00    +0.000 S 
ENDBRANCH  10  11
ENDBRANCH   1  10
TORSDOF 4
ENDMDL
MODEL 4
REMARK VINA RESULT:      -5.5      2.017      5.888
REMARK  Name = 
REMARK  5 active torsions:
REMARK  status: ('A' for Active; 'I' for Inactive)
REMARK    1  A    between atoms: C_1  and  C_2
REMARK    2  A    between atoms: C_5  and  C_6
REMARK    3  A    between atoms: C_6  and  N_7
REMARK    4  A    between atoms: N_7  and  C_8
REMARK    5  A    between atoms: C_8  and  C_9
REMARK                            x       y       z     vdW  Elec       q    Type
REMARK                         _______ _______ _______ _____ _____    ______ ____
ROOT
ATOM      1  N   UNL     1       5.352   3.325  16.615  0.00  0.00    +0.000 NA
ATOM      2  H   UNL     1       5.154   2.481  16.076  0.00  0.00    +0.000 HD
ENDROOT
BRANCH   1   3
ATOM      3  C   UNL     1       4.100   4.056  16.807  0.00  0.00    +0.000 C 
BRANCH   3   8
ATOM      4  C   UNL     1       1.985   2.778  21.553  0.00  0.00    +0.000 C 
ATOM      5  C   UNL     1       2.323   2.827  20.103  0.00  0.00    +0.000 A 
ATOM      6  C   UNL     1       1.814   2.057  19.079  0.00  0.00    +0.000 A 
ATOM      7  C   UNL     1       2.382   2.395  17.817  0.00  0.00    +0.000 A 
ATOM      8  C   UNL     1       3.304   3.421  17.911  0.00  0.00    +0.000 A 
ATOM      9  S   UNL     1       3.481   3.950  19.530  0.00  0.00    +0.000 S 
ENDBRANCH   3   8
ENDBRANCH   1   3
BRANCH   1  10
ATOM     10  C   UNL     1       6.331   4.127  15.884  0.00  0.00    +0.000 C 
BRANCH  10  11
ATOM     11  C   UNL     1       6.862   5.216  16.772  0.00  0.00    +0.000 A 
ATOM     12  C   UNL     1       6.856   6.581  16.552  0.00  0.00    +0.000 A 
ATOM     13  C   UNL     1       7.446   7.310  17.624  0.00  0.00    +0.000 A 
ATOM     14  C   UNL     1       7.891   6.478  18.627  0.00  0.00    +0.000 A 
ATOM     15  S   UNL     1       7.595   4.833  18.274  0.00  0.00    +0.000 S 
ENDBRANCH  10  11
ENDBRANCH   1  10
TORSDOF 4
ENDMDL
MODEL 5
REMARK VINA RESULT:      -5.5      1.392      1.546
REMARK  Name = 
REMARK  5 active torsions:
REMARK  status: ('A' for Active; 'I' for Inactive)
REMARK    1  A    between atoms: C_1  and  C_2
REMARK    2  A    between atoms: C_5  and  C_6
REMARK    3  A    between atoms: C_6  and  N_7
REMARK    4  A    between atoms: N_7  and  C_8
REMARK    5  A    between atoms: C_8  and  C_9
REMARK                            x       y       z     vdW  Elec       q    Type
REMARK                         _______ _______ _______ _____ _____    ______ ____
ROOT
ATOM      1  N   UNL     1       5.295   3.104  19.373  0.00  0.00    +0.000 NA
ATOM      2  H   UNL     1       6.252   3.096  19.724  0.00  0.00    +0.000 HD
ENDROOT
BRANCH   1   3
ATOM      3  C   UNL     1       4.888   4.493  19.167  0.00  0.00    +0.000 C 
BRANCH   3   8
ATOM      4  C   UNL     1       5.831   4.412  13.900  0.00  0.00    +0.000 C 
ATOM      5  C   UNL     1       5.528   4.843  15.293  0.00  0.00    +0.000 A 
ATOM      6  C   UNL     1       5.266   6.114  15.759  0.00  0.00    +0.000 A 
ATOM      7  C   UNL     1       5.021   6.134  17.162  0.00  0.00    +0.000 A 
ATOM      8  C   UNL     1       5.094   4.876  17.729  0.00  0.00    +0.000 A 
ATOM      9  S   UNL     1       5.474   3.687  16.555  0.00  0.00    +0.000 S 
ENDBRANCH   3   8
ENDBRANCH   1   3
BRANCH   1  10
ATOM     10  C   UNL     1       4.434   2.436  20.347  0.00  0.00    +0.000 C 
BRANCH  10  11
ATOM     11  C   UNL     1       2.994   2.604  19.955  0.00  0.00    +0.000 A 
ATOM     12  C   UNL     1       1.970   3.186  20.679  0.00  0.00    +0.000 A 
ATOM     13  C   UNL     1       0.729   3.171  19.980  0.00  0.00    +0.000 A 
ATOM     14  C   UNL     1       0.842   2.569  18.746  0.00  0.00    +0.000 A 
ATOM     15  S   UNL     1       2.434   2.032  18.437  0.00  0.00    +0.000 S 
ENDBRANCH  10  11
ENDBRANCH   1  10
TORSDOF 4
ENDMDL
MODEL 6
REMARK VINA RESULT:      -5.5      1.968      2.478
REMARK  Name = 
REMARK  5 active torsions:
REMARK  status: ('A' for Active; 'I' for Inactive)
REMARK    1  A    between atoms: C_1  and  C_2
REMARK    2  A    between atoms: C_5  and  C_6
REMARK    3  A    between atoms: C_6  and  N_7
REMARK    4  A    between atoms: N_7  and  C_8
REMARK    5  A    between atoms: C_8  and  C_9
REMARK                            x       y       z     vdW  Elec       q    Type
REMARK                         _______ _______ _______ _____ _____    ______ ____
ROOT
ATOM      1  N   UNL     1       4.415   2.626  17.589  0.00  0.00    +0.000 NA
ATOM      2  H   UNL     1       5.129   2.793  18.298  0.00  0.00    +0.000 HD
ENDROOT
BRANCH   1   3
ATOM      3  C   UNL     1       3.792   3.904  17.250  0.00  0.00    +0.000 C 
BRANCH   3   8
ATOM      4  C   UNL     1       8.022   6.935  18.498  0.00  0.00    +0.000 C 
ATOM      5  C   UNL     1       6.769   6.407  17.888  0.00  0.00    +0.000 A 
ATOM      6  C   UNL     1       5.989   6.976  16.904  0.00  0.00    +0.000 A 
ATOM      7  C   UNL     1       4.860   6.171  16.578  0.00  0.00    +0.000 A 
ATOM      8  C   UNL     1       4.815   5.002  17.315  0.00  0.00    +0.000 A 
ATOM      9  S   UNL     1       6.132   4.905  18.406  0.00  0.00    +0.000 S 
ENDBRANCH   3   8
ENDBRANCH   1   3
BRANCH   1  10
ATOM     10  C   UNL     1       3.437   1.682  18.125  0.00  0.00    +0.000 C 
BRANCH  10  11
ATOM     11  C   UNL     1       2.747   2.284  19.316  0.00  0.00    +0.000 A 
ATOM     12  C   UNL     1       3.294   2.640  20.535  0.00  0.00    +0.000 A 
ATOM     13  C   UNL     1       2.329   3.191  21.427  0.00  0.00    +0.000 A 
ATOM     14  C   UNL     1       1.073   3.231  20.864  0.00  0.00    +0.000 A 
ATOM     15  S   UNL     1       1.063   2.611  19.272  0.00  0.00    +0.000 S 
ENDBRANCH  10  11
ENDBRANCH   1  10
TORSDOF 4
ENDMDL
MODEL 7
REMARK VINA RESULT:      -5.5      2.290      3.042
REMARK  Name = 
REMARK  5 active torsions:
REMARK  status: ('A' for Active; 'I' for Inactive)
REMARK    1  A    between atoms: C_1  and  C_2
REMARK    2  A    between atoms: C_5  and  C_6
REMARK    3  A    between atoms: C_6  and  N_7
REMARK    4  A    between atoms: N_7  and  C_8
REMARK    5  A    between atoms: C_8  and  C_9
REMARK                            x       y       z     vdW  Elec       q    Type
REMARK                         _______ _______ _______ _____ _____    ______ ____
ROOT
ATOM      1  N   UNL     1       5.157   3.116  18.845  0.00  0.00    +0.000 NA
ATOM      2  H   UNL     1       5.963   2.623  18.460  0.00  0.00    +0.000 HD
ENDROOT
BRANCH   1   3
ATOM      3  C   UNL     1       5.599   4.422  19.329  0.00  0.00    +0.000 C 
BRANCH   3   8
ATOM      4  C   UNL     1       2.072   8.164  17.848  0.00  0.00    +0.000 C 
ATOM      5  C   UNL     1       3.241   7.242  17.908  0.00  0.00    +0.000 A 
ATOM      6  C   UNL     1       4.290   7.131  17.020  0.00  0.00    +0.000 A 
ATOM      7  C   UNL     1       5.225   6.131  17.413  0.00  0.00    +0.000 A 
ATOM      8  C   UNL     1       4.869   5.511  18.596  0.00  0.00    +0.000 A 
ATOM      9  S   UNL     1       3.397   6.138  19.207  0.00  0.00    +0.000 S 
ENDBRANCH   3   8
ENDBRANCH   1   3
BRANCH   1  10
ATOM     10  C   UNL     1       4.590   2.311  19.925  0.00  0.00    +0.000 C 
BRANCH  10  11
ATOM     11  C   UNL     1       3.113   2.565  20.029  0.00  0.00    +0.000 A 
ATOM     12  C   UNL     1       2.384   2.947  21.140  0.00  0.00    +0.000 A 
ATOM     13  C   UNL     1       0.997   3.100  20.858  0.00  0.00    +0.000 A 
ATOM     14  C   UNL     1       0.707   2.822  19.540  0.00  0.00    +0.000 A 
ATOM     15  S   UNL     1       2.102   2.384  18.655  0.00  0.00    +0.000 S 
ENDBRANCH  10  11
ENDBRANCH   1  10
TORSDOF 4
ENDMDL
MODEL 8
REMARK VINA RESULT:      -5.4      1.827      2.293
REMARK  Name = 
REMARK  5 active torsions:
REMARK  status: ('A' for Active; 'I' for Inactive)
REMARK    1  A    between atoms: C_1  and  C_2
REMARK    2  A    between atoms: C_5  and  C_6
REMARK    3  A    between atoms: C_6  and  N_7
REMARK    4  A    between atoms: N_7  and  C_8
REMARK    5  A    between atoms: C_8  and  C_9
REMARK                            x       y       z     vdW  Elec       q    Type
REMARK                         _______ _______ _______ _____ _____    ______ ____
ROOT
ATOM      1  N   UNL     1       4.666   5.699  19.311  0.00  0.00    +0.000 NA
ATOM      2  H   UNL     1       5.267   6.415  18.903  0.00  0.00    +0.000 HD
ENDROOT
BRANCH   1   3
ATOM      3  C   UNL     1       5.221   4.386  18.986  0.00  0.00    +0.000 C 
BRANCH   3   8
ATOM      4  C   UNL     1       6.075   3.963  13.720  0.00  0.00    +0.000 C 
ATOM      5  C   UNL     1       6.228   4.223  15.179  0.00  0.00    +0.000 A 
ATOM      6  C   UNL     1       7.322   4.734  15.848  0.00  0.00    +0.000 A 
ATOM      7  C   UNL     1       7.094   4.840  17.250  0.00  0.00    +0.000 A 
ATOM      8  C   UNL     1       5.830   4.417  17.613  0.00  0.00    +0.000 A 
ATOM      9  S   UNL     1       4.939   3.880  16.252  0.00  0.00    +0.000 S 
ENDBRANCH   3   8
ENDBRANCH   1   3
BRANCH   1  10
ATOM     10  C   UNL     1       3.318   5.857  18.768  0.00  0.00    +0.000 C 
BRANCH  10  11
ATOM     11  C   UNL     1       2.412   4.804  19.340  0.00  0.00    +0.000 A 
ATOM     12  C   UNL     1       2.092   4.576  20.665  0.00  0.00    +0.000 A 
ATOM     13  C   UNL     1       1.190   3.486  20.830  0.00  0.00    +0.000 A 
ATOM     14  C   UNL     1       0.854   2.911  19.625  0.00  0.00    +0.000 A 
ATOM     15  S   UNL     1       1.622   3.684  18.308  0.00  0.00    +0.000 S 
ENDBRANCH  10  11
ENDBRANCH   1  10
TORSDOF 4
ENDMDL
MODEL 9
REMARK VINA RESULT:      -5.4      2.019      5.967
REMARK  Name = 
REMARK  5 active torsions:
REMARK  status: ('A' for Active; 'I' for Inactive)
REMARK    1  A    between atoms: C_1  and  C_2
REMARK    2  A    between atoms: C_5  and  C_6
REMARK    3  A    between atoms: C_6  and  N_7
REMARK    4  A    between atoms: N_7  and  C_8
REMARK    5  A    between atoms: C_8  and  C_9
REMARK                            x       y       z     vdW  Elec       q    Type
REMARK                         _______ _______ _______ _____ _____    ______ ____
ROOT
ATOM      1  N   UNL     1       4.826   3.303  17.184  0.00  0.00    +0.000 NA
ATOM      2  H   UNL     1       5.036   2.306  17.132  0.00  0.00    +0.000 HD
ENDROOT
BRANCH   1   3
ATOM      3  C   UNL     1       3.403   3.492  16.909  0.00  0.00    +0.000 C 
BRANCH   3   8
ATOM      4  C   UNL     1       1.770   2.544  21.916  0.00  0.00    +0.000 C 
ATOM      5  C   UNL     1       1.868   3.023  20.509  0.00  0.00    +0.000 A 
ATOM      6  C   UNL     1       0.987   3.825  19.814  0.00  0.00    +0.000 A 
ATOM      7  C   UNL     1       1.421   4.072  18.480  0.00  0.00    +0.000 A 
ATOM      8  C   UNL     1       2.626   3.458  18.194  0.00  0.00    +0.000 A 
ATOM      9  S   UNL     1       3.209   2.578  19.543  0.00  0.00    +0.000 S 
ENDBRANCH   3   8
ENDBRANCH   1   3
BRANCH   1  10
ATOM     10  C   UNL     1       5.656   4.006  16.208  0.00  0.00    +0.000 C 
BRANCH  10  11
ATOM     11  C   UNL     1       6.325   5.182  16.861  0.00  0.00    +0.000 A 
ATOM     12  C   UNL     1       6.110   6.528  16.631  0.00  0.00    +0.000 A 
ATOM     13  C   UNL     1       6.930   7.360  17.446  0.00  0.00    +0.000 A 
ATOM     14  C   UNL     1       7.753   6.622  18.268  0.00  0.00    +0.000 A 
ATOM     15  S   UNL     1       7.532   4.941  18.056  0.00  0.00    +0.000 S 
ENDBRANCH  10  11
ENDBRANCH   1  10
TORSDOF 4
ENDMDL
