MODEL 1
REMARK VINA RESULT:      -6.9      0.000      0.000
REMARK  Name = 
REMARK  2 active torsions:
REMARK  status: ('A' for Active; 'I' for Inactive)
REMARK    1  A    between atoms: C_2  and  C_3
REMARK    2  A    between atoms: C_4  and  C_5
REMARK                            x       y       z     vdW  Elec       q    Type
REMARK                         _______ _______ _______ _____ _____    ______ ____
ROOT
ATOM      1  C   UNL     1       3.309   4.327  19.399  0.00  0.00    +0.000 A 
ATOM      2  C   UNL     1       3.707   5.564  19.030  0.00  0.00    +0.000 A 
ATOM      3  N   UNL     1       4.998   5.787  18.618  0.00  0.00    +0.000 N 
ATOM      4  C   UNL     1       5.945   4.804  18.559  0.00  0.00    +0.000 A 
ATOM      5  S   UNL     1       7.494   5.115  18.053  0.00  0.00    +0.000 S 
ATOM      6  N   UNL     1       5.545   3.553  18.941  0.00  0.00    +0.000 N 
ATOM      7  C   UNL     1       4.283   3.222  19.370  0.00  0.00    +0.000 A 
ATOM      8  O   UNL     1       3.993   2.076  19.705  0.00  0.00    +0.000 OA
ATOM      9  H   UNL     1       5.283   6.724  18.342  0.00  0.00    +0.000 HD
ATOM     10  H   UNL     1       6.225   2.804  18.916  0.00  0.00    +0.000 HD
ENDROOT
BRANCH   2  11
ATOM     11  C   UNL     1       2.780   6.721  19.033  0.00  0.00    +0.000 A 
ATOM     12  C   UNL     1       2.561   7.471  17.866  0.00  0.00    +0.000 A 
ATOM     13  C   UNL     1       1.847   8.675  17.915  0.00  0.00    +0.000 A 
ATOM     14  C   UNL     1       1.316   9.115  19.124  0.00  0.00    +0.000 A 
ATOM     15 BR   UNL     1       0.419  10.778  19.204  0.00  0.00    +0.000 Br
ATOM     16  C   UNL     1       1.465   8.350  20.278  0.00  0.00    +0.000 A 
ATOM     17  C   UNL     1       2.203   7.159  20.236  0.00  0.00    +0.000 A 
ENDBRANCH   2  11
BRANCH   1  19
ATOM     18  N   UNL     1       0.686   3.908  20.223  0.00  0.00    +0.000 NA
ATOM     19  C   UNL     1       1.875   4.098  19.850  0.00  0.00    +0.000 C 
ENDBRANCH   1  19
TORSDOF 2
ENDMDL
MODEL 2
REMARK VINA RESULT:      -6.6      1.201      1.201
REMARK  Name = 
REMARK  2 active torsions:
REMARK  status: ('A' for Active; 'I' for Inactive)
REMARK    1  A    between atoms: C_2  and  C_3
REMARK    2  A    between atoms: C_4  and  C_5
REMARK                            x       y       z     vdW  Elec       q    Type
REMARK                         _______ _______ _______ _____ _____    ______ ____
ROOT
ATOM      1  C   UNL     1       3.469   4.634  18.076  0.00  0.00    +0.000 A 
ATOM      2  C   UNL     1       3.842   5.860  18.502  0.00  0.00    +0.000 A 
ATOM      3  N   UNL     1       5.156   6.123  18.805  0.00  0.00    +0.000 N 
ATOM      4  C   UNL     1       6.148   5.190  18.703  0.00  0.00    +0.000 A 
ATOM      5  S   UNL     1       7.724   5.549  19.077  0.00  0.00    +0.000 S 
ATOM      6  N   UNL     1       5.770   3.945  18.280  0.00  0.00    +0.000 N 
ATOM      7  C   UNL     1       4.488   3.576  17.954  0.00  0.00    +0.000 A 
ATOM      8  O   UNL     1       4.216   2.436  17.586  0.00  0.00    +0.000 OA
ATOM      9  H   UNL     1       5.421   7.052  19.124  0.00  0.00    +0.000 HD
ATOM     10  H   UNL     1       6.480   3.229  18.202  0.00  0.00    +0.000 HD
ENDROOT
BRANCH   2  11
ATOM     11  C   UNL     1       2.871   6.971  18.646  0.00  0.00    +0.000 A 
ATOM     12  C   UNL     1       2.687   7.904  17.613  0.00  0.00    +0.000 A 
ATOM     13  C   UNL     1       1.923   9.060  17.822  0.00  0.00    +0.000 A 
ATOM     14  C   UNL     1       1.309   9.269  19.053  0.00  0.00    +0.000 A 
ATOM     15 BR   UNL     1       0.343  10.866  19.361  0.00  0.00    +0.000 Br
ATOM     16  C   UNL     1       1.425   8.321  20.067  0.00  0.00    +0.000 A 
ATOM     17  C   UNL     1       2.211   7.178  19.868  0.00  0.00    +0.000 A 
ENDBRANCH   2  11
BRANCH   1  19
ATOM     18  N   UNL     1       0.801   4.136  17.466  0.00  0.00    +0.000 NA
ATOM     19  C   UNL     1       2.011   4.362  17.743  0.00  0.00    +0.000 C 
ENDBRANCH   1  19
TORSDOF 2
ENDMDL
MODEL 3
REMARK VINA RESULT:      -6.5      0.275      1.204
REMARK  Name = 
REMARK  2 active torsions:
REMARK  status: ('A' for Active; 'I' for Inactive)
REMARK    1  A    between atoms: C_2  and  C_3
REMARK    2  A    between atoms: C_4  and  C_5
REMARK                            x       y       z     vdW  Elec       q    Type
REMARK                         _______ _______ _______ _____ _____    ______ ____
ROOT
ATOM      1  C   UNL     1       3.338   4.397  19.350  0.00  0.00    +0.000 A 
ATOM      2  C   UNL     1       3.830   5.593  18.962  0.00  0.00    +0.000 A 
ATOM      3  N   UNL     1       5.114   5.698  18.484  0.00  0.00    +0.000 N 
ATOM      4  C   UNL     1       5.961   4.631  18.375  0.00  0.00    +0.000 A 
ATOM      5  S   UNL     1       7.504   4.799  17.791  0.00  0.00    +0.000 S 
ATOM      6  N   UNL     1       5.466   3.420  18.776  0.00  0.00    +0.000 N 
ATOM      7  C   UNL     1       4.202   3.206  19.269  0.00  0.00    +0.000 A 
ATOM      8  O   UNL     1       3.824   2.090  19.618  0.00  0.00    +0.000 OA
ATOM      9  H   UNL     1       5.470   6.606  18.195  0.00  0.00    +0.000 HD
ATOM     10  H   UNL     1       6.071   2.612  18.716  0.00  0.00    +0.000 HD
ENDROOT
BRANCH   2  11
ATOM     11  C   UNL     1       3.017   6.832  19.014  0.00  0.00    +0.000 A 
ATOM     12  C   UNL     1       2.378   7.223  20.202  0.00  0.00    +0.000 A 
ATOM     13  C   UNL     1       1.454   8.277  20.201  0.00  0.00    +0.000 A 
ATOM     14  C   UNL     1       1.195   8.969  19.022  0.00  0.00    +0.000 A 
ATOM     15 BR   UNL     1      -0.108  10.339  19.005  0.00  0.00    +0.000 Br
ATOM     16  C   UNL     1       1.871   8.638  17.850  0.00  0.00    +0.000 A 
ATOM     17  C   UNL     1       2.775   7.567  17.843  0.00  0.00    +0.000 A 
ENDBRANCH   2  11
BRANCH   1  19
ATOM     18  N   UNL     1       0.733   4.219  20.307  0.00  0.00    +0.000 NA
ATOM     19  C   UNL     1       1.914   4.300  19.873  0.00  0.00    +0.000 C 
ENDBRANCH   1  19
TORSDOF 2
ENDMDL
MODEL 4
REMARK VINA RESULT:      -6.4      1.223      1.678
REMARK  Name = 
REMARK  2 active torsions:
REMARK  status: ('A' for Active; 'I' for Inactive)
REMARK    1  A    between atoms: C_2  and  C_3
REMARK    2  A    between atoms: C_4  and  C_5
REMARK                            x       y       z     vdW  Elec       q    Type
REMARK                         _______ _______ _______ _____ _____    ______ ____
ROOT
ATOM      1  C   UNL     1       3.064   4.154  18.355  0.00  0.00    +0.000 A 
ATOM      2  C   UNL     1       3.570   5.379  18.096  0.00  0.00    +0.000 A 
ATOM      3  N   UNL     1       4.710   5.517  17.342  0.00  0.00    +0.000 N 
ATOM      4  C   UNL     1       5.395   4.457  16.819  0.00  0.00    +0.000 A 
ATOM      5  S   UNL     1       6.767   4.667  15.910  0.00  0.00    +0.000 S 
ATOM      6  N   UNL     1       4.887   3.215  17.087  0.00  0.00    +0.000 N 
ATOM      7  C   UNL     1       3.759   2.964  17.829  0.00  0.00    +0.000 A 
ATOM      8  O   UNL     1       3.362   1.821  18.038  0.00  0.00    +0.000 OA
ATOM      9  H   UNL     1       5.079   6.446  17.155  0.00  0.00    +0.000 HD
ATOM     10  H   UNL     1       5.376   2.408  16.721  0.00  0.00    +0.000 HD
ENDROOT
BRANCH   2  11
ATOM     11  C   UNL     1       2.923   6.617  18.591  0.00  0.00    +0.000 A 
ATOM     12  C   UNL     1       2.541   6.741  19.936  0.00  0.00    +0.000 A 
ATOM     13  C   UNL     1       1.756   7.822  20.359  0.00  0.00    +0.000 A 
ATOM     14  C   UNL     1       1.381   8.803  19.445  0.00  0.00    +0.000 A 
ATOM     15 BR   UNL     1       0.257  10.220  19.998  0.00  0.00    +0.000 Br
ATOM     16  C   UNL     1       1.808   8.731  18.121  0.00  0.00    +0.000 A 
ATOM     17  C   UNL     1       2.571   7.636  17.692  0.00  0.00    +0.000 A 
ENDBRANCH   2  11
BRANCH   1  19
ATOM     18  N   UNL     1       0.752   3.907  19.881  0.00  0.00    +0.000 NA
ATOM     19  C   UNL     1       1.801   4.019  19.189  0.00  0.00    +0.000 C 
ENDBRANCH   1  19
TORSDOF 2
ENDMDL
MODEL 5
REMARK VINA RESULT:      -6.3      3.589      5.072
REMARK  Name = 
REMARK  2 active torsions:
REMARK  status: ('A' for Active; 'I' for Inactive)
REMARK    1  A    between atoms: C_2  and  C_3
REMARK    2  A    between atoms: C_4  and  C_5
REMARK                            x       y       z     vdW  Elec       q    Type
REMARK                         _______ _______ _______ _____ _____    ______ ____
ROOT
ATOM      1  C   UNL     1       3.420   4.201  20.023  0.00  0.00    +0.000 A 
ATOM      2  C   UNL     1       3.653   5.167  19.108  0.00  0.00    +0.000 A 
ATOM      3  N   UNL     1       3.027   6.386  19.206  0.00  0.00    +0.000 N 
ATOM      4  C   UNL     1       2.147   6.697  20.203  0.00  0.00    +0.000 A 
ATOM      5  S   UNL     1       1.413   8.183  20.287  0.00  0.00    +0.000 S 
ATOM      6  N   UNL     1       1.904   5.716  21.126  0.00  0.00    +0.000 N 
ATOM      7  C   UNL     1       2.472   4.466  21.121  0.00  0.00    +0.000 A 
ATOM      8  O   UNL     1       2.204   3.629  21.979  0.00  0.00    +0.000 OA
ATOM      9  H   UNL     1       3.213   7.103  18.509  0.00  0.00    +0.000 HD
ATOM     10  H   UNL     1       1.250   5.913  21.873  0.00  0.00    +0.000 HD
ENDROOT
BRANCH   2  11
ATOM     11  C   UNL     1       4.595   4.970  17.980  0.00  0.00    +0.000 A 
ATOM     12  C   UNL     1       5.826   5.643  17.946  0.00  0.00    +0.000 A 
ATOM     13  C   UNL     1       6.624   5.612  16.794  0.00  0.00    +0.000 A 
ATOM     14  C   UNL     1       6.212   4.878  15.686  0.00  0.00    +0.000 A 
ATOM     15 BR   UNL     1       7.250   4.901  14.106  0.00  0.00    +0.000 Br
ATOM     16  C   UNL     1       5.025   4.149  15.728  0.00  0.00    +0.000 A 
ATOM     17  C   UNL     1       4.213   4.201  16.869  0.00  0.00    +0.000 A 
ENDBRANCH   2  11
BRANCH   1  19
ATOM     18  N   UNL     1       4.708   1.746  19.800  0.00  0.00    +0.000 NA
ATOM     19  C   UNL     1       4.124   2.859  19.901  0.00  0.00    +0.000 C 
ENDBRANCH   1  19
TORSDOF 2
ENDMDL
MODEL 6
REMARK VINA RESULT:      -6.1      1.747      1.764
REMARK  Name = 
REMARK  2 active torsions:
REMARK  status: ('A' for Active; 'I' for Inactive)
REMARK    1  A    between atoms: C_2  and  C_3
REMARK    2  A    between atoms: C_4  and  C_5
REMARK                            x       y       z     vdW  Elec       q    Type
REMARK                         _______ _______ _______ _____ _____    ______ ____
ROOT
ATOM      1  C   UNL     1       3.590   5.181  17.639  0.00  0.00    +0.000 A 
ATOM      2  C   UNL     1       3.792   6.465  18.006  0.00  0.00    +0.000 A 
ATOM      3  N   UNL     1       5.045   7.024  17.929  0.00  0.00    +0.000 N 
ATOM      4  C   UNL     1       6.143   6.340  17.492  0.00  0.00    +0.000 A 
ATOM      5  S   UNL     1       7.640   7.052  17.411  0.00  0.00    +0.000 S 
ATOM      6  N   UNL     1       5.941   5.036  17.128  0.00  0.00    +0.000 N 
ATOM      7  C   UNL     1       4.735   4.381  17.168  0.00  0.00    +0.000 A 
ATOM      8  O   UNL     1       4.625   3.205  16.831  0.00  0.00    +0.000 OA
ATOM      9  H   UNL     1       5.181   7.992  18.208  0.00  0.00    +0.000 HD
ATOM     10  H   UNL     1       6.737   4.500  16.807  0.00  0.00    +0.000 HD
ENDROOT
BRANCH   2  11
ATOM     11  C   UNL     1       2.687   7.328  18.487  0.00  0.00    +0.000 A 
ATOM     12  C   UNL     1       2.118   8.302  17.651  0.00  0.00    +0.000 A 
ATOM     13  C   UNL     1       1.217   9.245  18.163  0.00  0.00    +0.000 A 
ATOM     14  C   UNL     1       0.851   9.194  19.505  0.00  0.00    +0.000 A 
ATOM     15 BR   UNL     1      -0.303  10.513  20.214  0.00  0.00    +0.000 Br
ATOM     16  C   UNL     1       1.354   8.193  20.333  0.00  0.00    +0.000 A 
ATOM     17  C   UNL     1       2.276   7.266  19.828  0.00  0.00    +0.000 A 
ENDBRANCH   2  11
BRANCH   1  19
ATOM     18  N   UNL     1       1.041   4.082  17.803  0.00  0.00    +0.000 NA
ATOM     19  C   UNL     1       2.197   4.580  17.728  0.00  0.00    +0.000 C 
ENDBRANCH   1  19
TORSDOF 2
ENDMDL
MODEL 7
REMARK VINA RESULT:      -6.1      4.320      5.708
REMARK  Name = 
REMARK  2 active torsions:
REMARK  status: ('A' for Active; 'I' for Inactive)
REMARK    1  A    between atoms: C_2  and  C_3
REMARK    2  A    between atoms: C_4  and  C_5
REMARK                            x       y       z     vdW  Elec       q    Type
REMARK                         _______ _______ _______ _____ _____    ______ ____
ROOT
ATOM      1  C   UNL     1       6.577   5.162  15.434  0.00  0.00    +0.000 A 
ATOM      2  C   UNL     1       5.395   4.510  15.482  0.00  0.00    +0.000 A 
ATOM      3  N   UNL     1       4.916   3.851  14.375  0.00  0.00    +0.000 N 
ATOM      4  C   UNL     1       5.579   3.814  13.182  0.00  0.00    +0.000 A 
ATOM      5  S   UNL     1       4.966   3.005  11.869  0.00  0.00    +0.000 S 
ATOM      6  N   UNL     1       6.772   4.482  13.129  0.00  0.00    +0.000 N 
ATOM      7  C   UNL     1       7.339   5.171  14.172  0.00  0.00    +0.000 A 
ATOM      8  O   UNL     1       8.414   5.755  14.054  0.00  0.00    +0.000 OA
ATOM      9  H   UNL     1       4.024   3.364  14.428  0.00  0.00    +0.000 HD
ATOM     10  H   UNL     1       7.284   4.480  12.256  0.00  0.00    +0.000 HD
ENDROOT
BRANCH   2  11
ATOM     11  C   UNL     1       4.576   4.457  16.717  0.00  0.00    +0.000 A 
ATOM     12  C   UNL     1       4.326   3.236  17.363  0.00  0.00    +0.000 A 
ATOM     13  C   UNL     1       3.396   3.159  18.408  0.00  0.00    +0.000 A 
ATOM     14  C   UNL     1       2.741   4.309  18.837  0.00  0.00    +0.000 A 
ATOM     15 BR   UNL     1       1.429   4.191  20.194  0.00  0.00    +0.000 Br
ATOM     16  C   UNL     1       3.027   5.541  18.252  0.00  0.00    +0.000 A 
ATOM     17  C   UNL     1       3.937   5.615  17.189  0.00  0.00    +0.000 A 
ENDBRANCH   2  11
BRANCH   1  19
ATOM     18  N   UNL     1       7.521   6.480  17.693  0.00  0.00    +0.000 NA
ATOM     19  C   UNL     1       7.093   5.882  16.668  0.00  0.00    +0.000 C 
ENDBRANCH   1  19
TORSDOF 2
ENDMDL
MODEL 8
REMARK VINA RESULT:      -6.1      5.984      7.783
REMARK  Name = 
REMARK  2 active torsions:
REMARK  status: ('A' for Active; 'I' for Inactive)
REMARK    1  A    between atoms: C_2  and  C_3
REMARK    2  A    between atoms: C_4  and  C_5
REMARK                            x       y       z     vdW  Elec       q    Type
REMARK                         _______ _______ _______ _____ _____    ______ ____
ROOT
ATOM      1  C   UNL     1      -0.044  11.715  19.137  0.00  0.00    +0.000 A 
ATOM      2  C   UNL     1      -0.055  10.525  18.499  0.00  0.00    +0.000 A 
ATOM      3  N   UNL     1      -0.998  10.259  17.535  0.00  0.00    +0.000 N 
ATOM      4  C   UNL     1      -1.966  11.152  17.169  0.00  0.00    +0.000 A 
ATOM      5  S   UNL     1      -3.085  10.792  15.999  0.00  0.00    +0.000 S 
ATOM      6  N   UNL     1      -1.961  12.354  17.822  0.00  0.00    +0.000 N 
ATOM      7  C   UNL     1      -1.068  12.720  18.799  0.00  0.00    +0.000 A 
ATOM      8  O   UNL     1      -1.125  13.817  19.350  0.00  0.00    +0.000 OA
ATOM      9  H   UNL     1      -0.993   9.359  17.062  0.00  0.00    +0.000 HD
ATOM     10  H   UNL     1      -2.670  13.034  17.579  0.00  0.00    +0.000 HD
ENDROOT
BRANCH   2  11
ATOM     11  C   UNL     1       0.944   9.469  18.787  0.00  0.00    +0.000 A 
ATOM     12  C   UNL     1       1.822   9.017  17.788  0.00  0.00    +0.000 A 
ATOM     13  C   UNL     1       2.626   7.890  18.002  0.00  0.00    +0.000 A 
ATOM     14  C   UNL     1       2.584   7.232  19.228  0.00  0.00    +0.000 A 
ATOM     15 BR   UNL     1       3.610   5.665  19.488  0.00  0.00    +0.000 Br
ATOM     16  C   UNL     1       1.769   7.707  20.253  0.00  0.00    +0.000 A 
ATOM     17  C   UNL     1       0.945   8.819  20.031  0.00  0.00    +0.000 A 
ENDBRANCH   2  11
BRANCH   1  19
ATOM     18  N   UNL     1       1.881  12.224  21.079  0.00  0.00    +0.000 NA
ATOM     19  C   UNL     1       1.008  11.993  20.198  0.00  0.00    +0.000 C 
ENDBRANCH   1  19
TORSDOF 2
ENDMDL
MODEL 9
REMARK VINA RESULT:      -6.1      1.244      1.702
REMARK  Name = 
REMARK  2 active torsions:
REMARK  status: ('A' for Active; 'I' for Inactive)
REMARK    1  A    between atoms: C_2  and  C_3
REMARK    2  A    between atoms: C_4  and  C_5
REMARK                            x       y       z     vdW  Elec       q    Type
REMARK                         _______ _______ _______ _____ _____    ______ ____
ROOT
ATOM      1  C   UNL     1       3.570   4.722  18.128  0.00  0.00    +0.000 A 
ATOM      2  C   UNL     1       3.995   5.914  18.597  0.00  0.00    +0.000 A 
ATOM      3  N   UNL     1       5.313   6.099  18.939  0.00  0.00    +0.000 N 
ATOM      4  C   UNL     1       6.257   5.118  18.836  0.00  0.00    +0.000 A 
ATOM      5  S   UNL     1       7.840   5.383  19.257  0.00  0.00    +0.000 S 
ATOM      6  N   UNL     1       5.825   3.906  18.369  0.00  0.00    +0.000 N 
ATOM      7  C   UNL     1       4.535   3.614  18.002  0.00  0.00    +0.000 A 
ATOM      8  O   UNL     1       4.213   2.501  17.596  0.00  0.00    +0.000 OA
ATOM      9  H   UNL     1       5.618   7.004  19.290  0.00  0.00    +0.000 HD
ATOM     10  H   UNL     1       6.499   3.156  18.289  0.00  0.00    +0.000 HD
ENDROOT
BRANCH   2  11
ATOM     11  C   UNL     1       3.081   7.071  18.748  0.00  0.00    +0.000 A 
ATOM     12  C   UNL     1       2.324   7.242  19.919  0.00  0.00    +0.000 A 
ATOM     13  C   UNL     1       1.319   8.217  19.983  0.00  0.00    +0.000 A 
ATOM     14  C   UNL     1       1.092   9.049  18.891  0.00  0.00    +0.000 A 
ATOM     15 BR   UNL     1      -0.315  10.311  18.949  0.00  0.00    +0.000 Br
ATOM     16  C   UNL     1       1.879   8.938  17.747  0.00  0.00    +0.000 A 
ATOM     17  C   UNL     1       2.866   7.946  17.671  0.00  0.00    +0.000 A 
ENDBRANCH   2  11
BRANCH   1  19
ATOM     18  N   UNL     1       0.897   4.381  17.440  0.00  0.00    +0.000 NA
ATOM     19  C   UNL     1       2.109   4.535  17.752  0.00  0.00    +0.000 C 
ENDBRANCH   1  19
TORSDOF 2
ENDMDL
