MODEL 1
REMARK VINA RESULT:      -8.9      0.000      0.000
REMARK  Name = 
REMARK  10 active torsions:
REMARK  status: ('A' for Active; 'I' for Inactive)
REMARK    1  A    between atoms: C_1  and  C_2
REMARK    2  A    between atoms: C_2  and  C_3
REMARK    3  A    between atoms: C_2  and  C_4
REMARK    4  A    between atoms: C_2  and  C_5
REMARK    5  A    between atoms: C_7  and  C_8
REMARK    6  A    between atoms: C_8  and  N_9
REMARK    7  A    between atoms: C_10  and  C_12
REMARK    8  A    between atoms: C_12  and  C_13
REMARK    9  A    between atoms: N_22  and  C_23
REMARK   10  A    between atoms: C_27  and  C_28
REMARK                            x       y       z     vdW  Elec       q    Type
REMARK                         _______ _______ _______ _____ _____    ______ ____
ROOT
ATOM      1  C   UNL     1       2.432   3.941  19.303  0.00  0.00    +0.000 A 
ATOM      2  C   UNL     1       2.051   5.298  19.377  0.00  0.00    +0.000 A 
ATOM      3  C   UNL     1       2.919   5.986  18.554  0.00  0.00    +0.000 A 
ATOM      4  N   UNL     1       3.855   5.047  18.130  0.00  0.00    +0.000 N 
ATOM      5  N   UNL     1       3.476   3.785  18.479  0.00  0.00    +0.000 NA
ENDROOT
BRANCH   4   6
ATOM      6  C   UNL     1       5.032   5.251  17.347  0.00  0.00    +0.000 A 
ATOM      7  C   UNL     1       6.079   6.064  17.798  0.00  0.00    +0.000 A 
ATOM      8  C   UNL     1       7.166   6.351  16.973  0.00  0.00    +0.000 A 
ATOM      9  C   UNL     1       7.231   5.807  15.695  0.00  0.00    +0.000 A 
ATOM     10  C   UNL     1       6.226   4.938  15.242  0.00  0.00    +0.000 A 
ATOM     11  C   UNL     1       5.138   4.643  16.087  0.00  0.00    +0.000 A 
BRANCH  10  12
ATOM     12  C   UNL     1       6.290   4.348  13.854  0.00  0.00    +0.000 C 
ATOM     13  F   UNL     1       6.600   3.021  13.843  0.00  0.00    +0.000 F 
ATOM     14  F   UNL     1       5.115   4.462  13.178  0.00  0.00    +0.000 F 
ATOM     15  F   UNL     1       7.233   4.952  13.078  0.00  0.00    +0.000 F 
ENDBRANCH  10  12
ENDBRANCH   4   6
BRANCH   1  17
ATOM     16  C   UNL     1       2.540   1.473  19.733  0.00  0.00    +0.000 C 
ATOM     17  C   UNL     1       1.740   2.768  19.988  0.00  0.00    +0.000 C 
ATOM     18  C   UNL     1       0.318   2.590  19.413  0.00  0.00    +0.000 C 
ATOM     19  C   UNL     1       1.612   2.956  21.513  0.00  0.00    +0.000 C 
ENDBRANCH   1  17
BRANCH   3  20
ATOM     20  C   UNL     1       2.895   7.394  18.079  0.00  0.00    +0.000 C 
BRANCH  20  21
ATOM     21  N   UNL     1       1.974   8.177  18.864  0.00  0.00    +0.000 N 
ATOM     22  C   UNL     1       1.676   9.477  18.524  0.00  0.00    +0.000 C 
ATOM     23  O   UNL     1       2.163  10.051  17.553  0.00  0.00    +0.000 OA
ATOM     24  H   UNL     1       1.534   7.744  19.667  0.00  0.00    +0.000 HD
BRANCH  22  25
ATOM     25  C   UNL     1       0.695  10.165  19.451  0.00  0.00    +0.000 C 
BRANCH  25  26
ATOM     26  C   UNL     1      -0.601  10.534  18.772  0.00  0.00    +0.000 A 
ATOM     27  C   UNL     1      -1.411  11.571  19.292  0.00  0.00    +0.000 A 
ATOM     28  C   UNL     1      -2.586  11.965  18.646  0.00  0.00    +0.000 A 
ATOM     29  C   UNL     1      -2.931  11.305  17.488  0.00  0.00    +0.000 A 
ATOM     30  C   UNL     1      -2.157  10.289  16.979  0.00  0.00    +0.000 A 
ATOM     31  C   UNL     1      -0.991   9.880  17.592  0.00  0.00    +0.000 A 
ATOM     32  O   UNL     1      -2.668   9.773  15.830  0.00  0.00    +0.000 OA
ATOM     33  C   UNL     1      -3.860  10.575  15.680  0.00  0.00    +0.000 C 
ATOM     34  O   UNL     1      -4.021  11.562  16.719  0.00  0.00    +0.000 OA
ENDBRANCH  25  26
ENDBRANCH  22  25
ENDBRANCH  20  21
ENDBRANCH   3  20
TORSDOF 7
ENDMDL
MODEL 2
REMARK VINA RESULT:      -8.8      0.648      1.407
REMARK  Name = 
REMARK  10 active torsions:
REMARK  status: ('A' for Active; 'I' for Inactive)
REMARK    1  A    between atoms: C_1  and  C_2
REMARK    2  A    between atoms: C_2  and  C_3
REMARK    3  A    between atoms: C_2  and  C_4
REMARK    4  A    between atoms: C_2  and  C_5
REMARK    5  A    between atoms: C_7  and  C_8
REMARK    6  A    between atoms: C_8  and  N_9
REMARK    7  A    between atoms: C_10  and  C_12
REMARK    8  A    between atoms: C_12  and  C_13
REMARK    9  A    between atoms: N_22  and  C_23
REMARK   10  A    between atoms: C_27  and  C_28
REMARK                            x       y       z     vdW  Elec       q    Type
REMARK                         _______ _______ _______ _____ _____    ______ ____
ROOT
ATOM      1  C   UNL     1       2.450   4.130  19.495  0.00  0.00    +0.000 A 
ATOM      2  C   UNL     1       2.083   5.493  19.548  0.00  0.00    +0.000 A 
ATOM      3  C   UNL     1       2.940   6.154  18.693  0.00  0.00    +0.000 A 
ATOM      4  N   UNL     1       3.858   5.198  18.270  0.00  0.00    +0.000 N 
ATOM      5  N   UNL     1       3.475   3.947  18.652  0.00  0.00    +0.000 NA
ENDROOT
BRANCH   4   6
ATOM      6  C   UNL     1       5.020   5.374  17.457  0.00  0.00    +0.000 A 
ATOM      7  C   UNL     1       6.072   6.207  17.858  0.00  0.00    +0.000 A 
ATOM      8  C   UNL     1       7.143   6.464  17.003  0.00  0.00    +0.000 A 
ATOM      9  C   UNL     1       7.187   5.871  15.745  0.00  0.00    +0.000 A 
ATOM     10  C   UNL     1       6.177   4.983  15.345  0.00  0.00    +0.000 A 
ATOM     11  C   UNL     1       5.105   4.718  16.220  0.00  0.00    +0.000 A 
BRANCH  10  12
ATOM     12  C   UNL     1       6.217   4.341  13.980  0.00  0.00    +0.000 C 
ATOM     13  F   UNL     1       7.169   4.870  13.160  0.00  0.00    +0.000 F 
ATOM     14  F   UNL     1       6.473   3.006  14.033  0.00  0.00    +0.000 F 
ATOM     15  F   UNL     1       5.039   4.473  13.309  0.00  0.00    +0.000 F 
ENDBRANCH  10  12
ENDBRANCH   4   6
BRANCH   1  17
ATOM     16  C   UNL     1       2.244   1.636  19.631  0.00  0.00    +0.000 C 
ATOM     17  C   UNL     1       1.762   2.979  20.218  0.00  0.00    +0.000 C 
ATOM     18  C   UNL     1       0.232   3.079  20.029  0.00  0.00    +0.000 C 
ATOM     19  C   UNL     1       2.050   2.967  21.733  0.00  0.00    +0.000 C 
ENDBRANCH   1  17
BRANCH   3  20
ATOM     20  C   UNL     1       2.919   7.553  18.189  0.00  0.00    +0.000 C 
BRANCH  20  21
ATOM     21  N   UNL     1       1.924   8.327  18.889  0.00  0.00    +0.000 N 
ATOM     22  C   UNL     1       1.522   9.558  18.420  0.00  0.00    +0.000 C 
ATOM     23  O   UNL     1       1.973  10.074  17.400  0.00  0.00    +0.000 OA
ATOM     24  H   UNL     1       1.512   7.940  19.728  0.00  0.00    +0.000 HD
BRANCH  22  25
ATOM     25  C   UNL     1       0.474  10.247  19.269  0.00  0.00    +0.000 C 
BRANCH  25  26
ATOM     26  C   UNL     1      -0.835  10.447  18.546  0.00  0.00    +0.000 A 
ATOM     27  C   UNL     1      -1.096   9.759  17.337  0.00  0.00    +0.000 A 
ATOM     28  C   UNL     1      -2.325   9.888  16.682  0.00  0.00    +0.000 A 
ATOM     29  C   UNL     1      -3.270  10.712  17.252  0.00  0.00    +0.000 A 
ATOM     30  C   UNL     1      -3.022  11.392  18.422  0.00  0.00    +0.000 A 
ATOM     31  C   UNL     1      -1.822  11.283  19.092  0.00  0.00    +0.000 A 
ATOM     32  O   UNL     1      -4.083  12.144  18.817  0.00  0.00    +0.000 OA
ATOM     33  C   UNL     1      -5.022  11.868  17.757  0.00  0.00    +0.000 C 
ATOM     34  O   UNL     1      -4.519  10.943  16.771  0.00  0.00    +0.000 OA
ENDBRANCH  25  26
ENDBRANCH  22  25
ENDBRANCH  20  21
ENDBRANCH   3  20
TORSDOF 7
ENDMDL
MODEL 3
REMARK VINA RESULT:      -8.7      1.944      2.922
REMARK  Name = 
REMARK  10 active torsions:
REMARK  status: ('A' for Active; 'I' for Inactive)
REMARK    1  A    between atoms: C_1  and  C_2
REMARK    2  A    between atoms: C_2  and  C_3
REMARK    3  A    between atoms: C_2  and  C_4
REMARK    4  A    between atoms: C_2  and  C_5
REMARK    5  A    between atoms: C_7  and  C_8
REMARK    6  A    between atoms: C_8  and  N_9
REMARK    7  A    between atoms: C_10  and  C_12
REMARK    8  A    between atoms: C_12  and  C_13
REMARK    9  A    between atoms: N_22  and  C_23
REMARK   10  A    between atoms: C_27  and  C_28
REMARK                            x       y       z     vdW  Elec       q    Type
REMARK                         _______ _______ _______ _____ _____    ______ ____
ROOT
ATOM      1  C   UNL     1       2.598   4.139  19.291  0.00  0.00    +0.000 A 
ATOM      2  C   UNL     1       2.256   5.508  19.249  0.00  0.00    +0.000 A 
ATOM      3  C   UNL     1       3.098   6.086  18.321  0.00  0.00    +0.000 A 
ATOM      4  N   UNL     1       3.987   5.082  17.947  0.00  0.00    +0.000 N 
ATOM      5  N   UNL     1       3.594   3.872  18.437  0.00  0.00    +0.000 NA
ENDROOT
BRANCH   4   6
ATOM      6  C   UNL     1       5.127   5.173  17.091  0.00  0.00    +0.000 A 
ATOM      7  C   UNL     1       6.254   5.923  17.451  0.00  0.00    +0.000 A 
ATOM      8  C   UNL     1       7.307   6.102  16.556  0.00  0.00    +0.000 A 
ATOM      9  C   UNL     1       7.257   5.512  15.297  0.00  0.00    +0.000 A 
ATOM     10  C   UNL     1       6.169   4.704  14.935  0.00  0.00    +0.000 A 
ATOM     11  C   UNL     1       5.114   4.517  15.851  0.00  0.00    +0.000 A 
BRANCH  10  12
ATOM     12  C   UNL     1       6.108   4.065  13.569  0.00  0.00    +0.000 C 
ATOM     13  F   UNL     1       6.960   4.632  12.668  0.00  0.00    +0.000 F 
ATOM     14  F   UNL     1       6.418   2.741  13.592  0.00  0.00    +0.000 F 
ATOM     15  F   UNL     1       4.869   4.154  13.010  0.00  0.00    +0.000 F 
ENDBRANCH  10  12
ENDBRANCH   4   6
BRANCH   1  17
ATOM     16  C   UNL     1       2.607   2.945  21.496  0.00  0.00    +0.000 C 
ATOM     17  C   UNL     1       1.913   3.061  20.121  0.00  0.00    +0.000 C 
ATOM     18  C   UNL     1       2.018   1.698  19.401  0.00  0.00    +0.000 C 
ATOM     19  C   UNL     1       0.419   3.351  20.365  0.00  0.00    +0.000 C 
ENDBRANCH   1  17
BRANCH   3  20
ATOM     20  C   UNL     1       3.085   7.442  17.711  0.00  0.00    +0.000 C 
BRANCH  20  21
ATOM     21  N   UNL     1       1.786   8.050  17.857  0.00  0.00    +0.000 N 
ATOM     22  C   UNL     1       1.649   9.415  17.969  0.00  0.00    +0.000 C 
ATOM     23  O   UNL     1       2.600  10.194  17.955  0.00  0.00    +0.000 OA
ATOM     24  H   UNL     1       0.970   7.451  17.861  0.00  0.00    +0.000 HD
BRANCH  22  25
ATOM     25  C   UNL     1       0.222   9.897  18.121  0.00  0.00    +0.000 C 
BRANCH  25  26
ATOM     26  C   UNL     1      -0.133  10.259  19.542  0.00  0.00    +0.000 A 
ATOM     27  C   UNL     1       0.204   9.389  20.607  0.00  0.00    +0.000 A 
ATOM     28  C   UNL     1      -0.066   9.733  21.934  0.00  0.00    +0.000 A 
ATOM     29  C   UNL     1      -0.676  10.945  22.170  0.00  0.00    +0.000 A 
ATOM     30  C   UNL     1      -1.016  11.793  21.142  0.00  0.00    +0.000 A 
ATOM     31  C   UNL     1      -0.760  11.483  19.823  0.00  0.00    +0.000 A 
ATOM     32  O   UNL     1      -1.602  12.936  21.586  0.00  0.00    +0.000 OA
ATOM     33  C   UNL     1      -1.601  12.706  23.011  0.00  0.00    +0.000 C 
ATOM     34  O   UNL     1      -0.996  11.452  23.389  0.00  0.00    +0.000 OA
ENDBRANCH  25  26
ENDBRANCH  22  25
ENDBRANCH  20  21
ENDBRANCH   3  20
TORSDOF 7
ENDMDL
MODEL 4
REMARK VINA RESULT:      -8.7      0.610      1.465
REMARK  Name = 
REMARK  10 active torsions:
REMARK  status: ('A' for Active; 'I' for Inactive)
REMARK    1  A    between atoms: C_1  and  C_2
REMARK    2  A    between atoms: C_2  and  C_3
REMARK    3  A    between atoms: C_2  and  C_4
REMARK    4  A    between atoms: C_2  and  C_5
REMARK    5  A    between atoms: C_7  and  C_8
REMARK    6  A    between atoms: C_8  and  N_9
REMARK    7  A    between atoms: C_10  and  C_12
REMARK    8  A    between atoms: C_12  and  C_13
REMARK    9  A    between atoms: N_22  and  C_23
REMARK   10  A    between atoms: C_27  and  C_28
REMARK                            x       y       z     vdW  Elec       q    Type
REMARK                         _______ _______ _______ _____ _____    ______ ____
ROOT
ATOM      1  C   UNL     1       2.365   4.030  19.208  0.00  0.00    +0.000 A 
ATOM      2  C   UNL     1       2.016   5.395  19.302  0.00  0.00    +0.000 A 
ATOM      3  C   UNL     1       2.906   6.075  18.497  0.00  0.00    +0.000 A 
ATOM      4  N   UNL     1       3.823   5.121  18.064  0.00  0.00    +0.000 N 
ATOM      5  N   UNL     1       3.412   3.863  18.389  0.00  0.00    +0.000 NA
ENDROOT
BRANCH   4   6
ATOM      6  C   UNL     1       5.011   5.310  17.293  0.00  0.00    +0.000 A 
ATOM      7  C   UNL     1       6.058   6.120  17.750  0.00  0.00    +0.000 A 
ATOM      8  C   UNL     1       7.157   6.392  16.936  0.00  0.00    +0.000 A 
ATOM      9  C   UNL     1       7.233   5.837  15.662  0.00  0.00    +0.000 A 
ATOM     10  C   UNL     1       6.227   4.972  15.205  0.00  0.00    +0.000 A 
ATOM     11  C   UNL     1       5.127   4.691  16.040  0.00  0.00    +0.000 A 
BRANCH  10  12
ATOM     12  C   UNL     1       6.303   4.370  13.823  0.00  0.00    +0.000 C 
ATOM     13  F   UNL     1       6.645   3.051  13.824  0.00  0.00    +0.000 F 
ATOM     14  F   UNL     1       5.124   4.448  13.149  0.00  0.00    +0.000 F 
ATOM     15  F   UNL     1       7.229   4.990  13.039  0.00  0.00    +0.000 F 
ENDBRANCH  10  12
ENDBRANCH   4   6
BRANCH   1  17
ATOM     16  C   UNL     1       1.339   3.207  21.342  0.00  0.00    +0.000 C 
ATOM     17  C   UNL     1       1.641   2.863  19.868  0.00  0.00    +0.000 C 
ATOM     18  C   UNL     1       2.532   1.603  19.828  0.00  0.00    +0.000 C 
ATOM     19  C   UNL     1       0.306   2.519  19.177  0.00  0.00    +0.000 C 
ENDBRANCH   1  17
BRANCH   3  20
ATOM     20  C   UNL     1       2.920   7.492  18.046  0.00  0.00    +0.000 C 
BRANCH  20  21
ATOM     21  N   UNL     1       1.956   8.267  18.787  0.00  0.00    +0.000 N 
ATOM     22  C   UNL     1       1.652   9.559  18.422  0.00  0.00    +0.000 C 
ATOM     23  O   UNL     1       2.167  10.131  17.464  0.00  0.00    +0.000 OA
ATOM     24  H   UNL     1       1.493   7.836  19.576  0.00  0.00    +0.000 HD
BRANCH  22  25
ATOM     25  C   UNL     1       0.625  10.240  19.302  0.00  0.00    +0.000 C 
BRANCH  25  26
ATOM     26  C   UNL     1      -0.703  10.441  18.616  0.00  0.00    +0.000 A 
ATOM     27  C   UNL     1      -1.003   9.745  17.420  0.00  0.00    +0.000 A 
ATOM     28  C   UNL     1      -2.249   9.875  16.801  0.00  0.00    +0.000 A 
ATOM     29  C   UNL     1      -3.174  10.707  17.392  0.00  0.00    +0.000 A 
ATOM     30  C   UNL     1      -2.890  11.394  18.548  0.00  0.00    +0.000 A 
ATOM     31  C   UNL     1      -1.671  11.285  19.184  0.00  0.00    +0.000 A 
ATOM     32  O   UNL     1      -3.935  12.154  18.969  0.00  0.00    +0.000 OA
ATOM     33  C   UNL     1      -4.906  11.874  17.938  0.00  0.00    +0.000 C 
ATOM     34  O   UNL     1      -4.435  10.940  16.945  0.00  0.00    +0.000 OA
ENDBRANCH  25  26
ENDBRANCH  22  25
ENDBRANCH  20  21
ENDBRANCH   3  20
TORSDOF 7
ENDMDL
MODEL 5
REMARK VINA RESULT:      -8.7      0.422      1.114
REMARK  Name = 
REMARK  10 active torsions:
REMARK  status: ('A' for Active; 'I' for Inactive)
REMARK    1  A    between atoms: C_1  and  C_2
REMARK    2  A    between atoms: C_2  and  C_3
REMARK    3  A    between atoms: C_2  and  C_4
REMARK    4  A    between atoms: C_2  and  C_5
REMARK    5  A    between atoms: C_7  and  C_8
REMARK    6  A    between atoms: C_8  and  N_9
REMARK    7  A    between atoms: C_10  and  C_12
REMARK    8  A    between atoms: C_12  and  C_13
REMARK    9  A    between atoms: N_22  and  C_23
REMARK   10  A    between atoms: C_27  and  C_28
REMARK                            x       y       z     vdW  Elec       q    Type
REMARK                         _______ _______ _______ _____ _____    ______ ____
ROOT
ATOM      1  C   UNL     1       2.706   3.975  19.517  0.00  0.00    +0.000 A 
ATOM      2  C   UNL     1       2.305   5.326  19.601  0.00  0.00    +0.000 A 
ATOM      3  C   UNL     1       3.104   6.018  18.713  0.00  0.00    +0.000 A 
ATOM      4  N   UNL     1       4.027   5.091  18.239  0.00  0.00    +0.000 N 
ATOM      5  N   UNL     1       3.696   3.827  18.627  0.00  0.00    +0.000 NA
ENDROOT
BRANCH   4   6
ATOM      6  C   UNL     1       5.145   5.306  17.377  0.00  0.00    +0.000 A 
ATOM      7  C   UNL     1       6.179   6.185  17.724  0.00  0.00    +0.000 A 
ATOM      8  C   UNL     1       7.200   6.477  16.822  0.00  0.00    +0.000 A 
ATOM      9  C   UNL     1       7.215   5.873  15.569  0.00  0.00    +0.000 A 
ATOM     10  C   UNL     1       6.226   4.940  15.220  0.00  0.00    +0.000 A 
ATOM     11  C   UNL     1       5.204   4.641  16.143  0.00  0.00    +0.000 A 
BRANCH  10  12
ATOM     12  C   UNL     1       6.235   4.285  13.860  0.00  0.00    +0.000 C 
ATOM     13  F   UNL     1       7.151   4.824  13.006  0.00  0.00    +0.000 F 
ATOM     14  F   UNL     1       6.516   2.956  13.917  0.00  0.00    +0.000 F 
ATOM     15  F   UNL     1       5.034   4.391  13.226  0.00  0.00    +0.000 F 
ENDBRANCH  10  12
ENDBRANCH   4   6
BRANCH   1  17
ATOM     16  C   UNL     1       0.833   3.275  21.029  0.00  0.00    +0.000 C 
ATOM     17  C   UNL     1       2.084   2.799  20.261  0.00  0.00    +0.000 C 
ATOM     18  C   UNL     1       3.097   2.225  21.276  0.00  0.00    +0.000 C 
ATOM     19  C   UNL     1       1.658   1.654  19.320  0.00  0.00    +0.000 C 
ENDBRANCH   1  17
BRANCH   3  20
ATOM     20  C   UNL     1       3.022   7.420  18.225  0.00  0.00    +0.000 C 
BRANCH  20  21
ATOM     21  N   UNL     1       2.043   8.162  18.980  0.00  0.00    +0.000 N 
ATOM     22  C   UNL     1       1.571   9.375  18.533  0.00  0.00    +0.000 C 
ATOM     23  O   UNL     1       1.941   9.901  17.485  0.00  0.00    +0.000 OA
ATOM     24  H   UNL     1       1.696   7.765  19.843  0.00  0.00    +0.000 HD
BRANCH  22  25
ATOM     25  C   UNL     1       0.552  10.031  19.440  0.00  0.00    +0.000 C 
BRANCH  25  26
ATOM     26  C   UNL     1      -0.707  10.442  18.717  0.00  0.00    +0.000 A 
ATOM     27  C   UNL     1      -1.498  11.509  19.207  0.00  0.00    +0.000 A 
ATOM     28  C   UNL     1      -2.636  11.940  18.520  0.00  0.00    +0.000 A 
ATOM     29  C   UNL     1      -2.965  11.287  17.353  0.00  0.00    +0.000 A 
ATOM     30  C   UNL     1      -2.210  10.242  16.874  0.00  0.00    +0.000 A 
ATOM     31  C   UNL     1      -1.080   9.797  17.527  0.00  0.00    +0.000 A 
ATOM     32  O   UNL     1      -2.700   9.740  15.711  0.00  0.00    +0.000 OA
ATOM     33  C   UNL     1      -3.858  10.581  15.518  0.00  0.00    +0.000 C 
ATOM     34  O   UNL     1      -4.019  11.579  16.547  0.00  0.00    +0.000 OA
ENDBRANCH  25  26
ENDBRANCH  22  25
ENDBRANCH  20  21
ENDBRANCH   3  20
TORSDOF 7
ENDMDL
MODEL 6
REMARK VINA RESULT:      -8.6      1.886      2.505
REMARK  Name = 
REMARK  10 active torsions:
REMARK  status: ('A' for Active; 'I' for Inactive)
REMARK    1  A    between atoms: C_1  and  C_2
REMARK    2  A    between atoms: C_2  and  C_3
REMARK    3  A    between atoms: C_2  and  C_4
REMARK    4  A    between atoms: C_2  and  C_5
REMARK    5  A    between atoms: C_7  and  C_8
REMARK    6  A    between atoms: C_8  and  N_9
REMARK    7  A    between atoms: C_10  and  C_12
REMARK    8  A    between atoms: C_12  and  C_13
REMARK    9  A    between atoms: N_22  and  C_23
REMARK   10  A    between atoms: C_27  and  C_28
REMARK                            x       y       z     vdW  Elec       q    Type
REMARK                         _______ _______ _______ _____ _____    ______ ____
ROOT
ATOM      1  C   UNL     1       2.339   3.954  19.115  0.00  0.00    +0.000 A 
ATOM      2  C   UNL     1       1.909   5.293  19.239  0.00  0.00    +0.000 A 
ATOM      3  C   UNL     1       2.803   6.052  18.512  0.00  0.00    +0.000 A 
ATOM      4  N   UNL     1       3.795   5.167  18.098  0.00  0.00    +0.000 N 
ATOM      5  N   UNL     1       3.437   3.876  18.352  0.00  0.00    +0.000 NA
ENDROOT
BRANCH   4   6
ATOM      6  C   UNL     1       5.010   5.450  17.403  0.00  0.00    +0.000 A 
ATOM      7  C   UNL     1       5.467   4.630  16.364  0.00  0.00    +0.000 A 
ATOM      8  C   UNL     1       6.712   4.849  15.777  0.00  0.00    +0.000 A 
ATOM      9  C   UNL     1       7.506   5.908  16.206  0.00  0.00    +0.000 A 
ATOM     10  C   UNL     1       7.045   6.783  17.201  0.00  0.00    +0.000 A 
ATOM     11  C   UNL     1       5.779   6.562  17.779  0.00  0.00    +0.000 A 
BRANCH  10  12
ATOM     12  C   UNL     1       7.904   7.930  17.672  0.00  0.00    +0.000 C 
ATOM     13  F   UNL     1       7.190   9.050  17.980  0.00  0.00    +0.000 F 
ATOM     14  F   UNL     1       8.622   7.628  18.787  0.00  0.00    +0.000 F 
ATOM     15  F   UNL     1       8.811   8.318  16.732  0.00  0.00    +0.000 F 
ENDBRANCH  10  12
ENDBRANCH   4   6
BRANCH   1  17
ATOM     16  C   UNL     1       0.349   2.444  18.901  0.00  0.00    +0.000 C 
ATOM     17  C   UNL     1       1.646   2.724  19.689  0.00  0.00    +0.000 C 
ATOM     18  C   UNL     1       1.280   2.971  21.169  0.00  0.00    +0.000 C 
ATOM     19  C   UNL     1       2.524   1.458  19.626  0.00  0.00    +0.000 C 
ENDBRANCH   1  17
BRANCH   3  20
ATOM     20  C   UNL     1       2.762   7.484  18.115  0.00  0.00    +0.000 C 
BRANCH  20  21
ATOM     21  N   UNL     1       1.753   8.188  18.867  0.00  0.00    +0.000 N 
ATOM     22  C   UNL     1       1.429   9.493  18.574  0.00  0.00    +0.000 C 
ATOM     23  O   UNL     1       1.965  10.138  17.675  0.00  0.00    +0.000 OA
ATOM     24  H   UNL     1       1.272   7.695  19.609  0.00  0.00    +0.000 HD
BRANCH  22  25
ATOM     25  C   UNL     1       0.354  10.092  19.456  0.00  0.00    +0.000 C 
BRANCH  25  26
ATOM     26  C   UNL     1      -0.894  10.466  18.696  0.00  0.00    +0.000 A 
ATOM     27  C   UNL     1      -1.751  11.482  19.184  0.00  0.00    +0.000 A 
ATOM     28  C   UNL     1      -2.882  11.880  18.466  0.00  0.00    +0.000 A 
ATOM     29  C   UNL     1      -3.137  11.247  17.270  0.00  0.00    +0.000 A 
ATOM     30  C   UNL     1      -2.316  10.252  16.792  0.00  0.00    +0.000 A 
ATOM     31  C   UNL     1      -1.192   9.839  17.476  0.00  0.00    +0.000 A 
ATOM     32  O   UNL     1      -2.739   9.762  15.597  0.00  0.00    +0.000 OA
ATOM     33  C   UNL     1      -3.926  10.555  15.383  0.00  0.00    +0.000 C 
ATOM     34  O   UNL     1      -4.172  11.514  16.432  0.00  0.00    +0.000 OA
ENDBRANCH  25  26
ENDBRANCH  22  25
ENDBRANCH  20  21
ENDBRANCH   3  20
TORSDOF 7
ENDMDL
MODEL 7
REMARK VINA RESULT:      -8.6      2.008      2.726
REMARK  Name = 
REMARK  10 active torsions:
REMARK  status: ('A' for Active; 'I' for Inactive)
REMARK    1  A    between atoms: C_1  and  C_2
REMARK    2  A    between atoms: C_2  and  C_3
REMARK    3  A    between atoms: C_2  and  C_4
REMARK    4  A    between atoms: C_2  and  C_5
REMARK    5  A    between atoms: C_7  and  C_8
REMARK    6  A    between atoms: C_8  and  N_9
REMARK    7  A    between atoms: C_10  and  C_12
REMARK    8  A    between atoms: C_12  and  C_13
REMARK    9  A    between atoms: N_22  and  C_23
REMARK   10  A    between atoms: C_27  and  C_28
REMARK                            x       y       z     vdW  Elec       q    Type
REMARK                         _______ _______ _______ _____ _____    ______ ____
ROOT
ATOM      1  C   UNL     1       2.313   4.117  19.040  0.00  0.00    +0.000 A 
ATOM      2  C   UNL     1       1.844   5.446  19.120  0.00  0.00    +0.000 A 
ATOM      3  C   UNL     1       2.722   6.208  18.376  0.00  0.00    +0.000 A 
ATOM      4  N   UNL     1       3.741   5.340  17.996  0.00  0.00    +0.000 N 
ATOM      5  N   UNL     1       3.419   4.048  18.286  0.00  0.00    +0.000 NA
ENDROOT
BRANCH   4   6
ATOM      6  C   UNL     1       4.953   5.637  17.301  0.00  0.00    +0.000 A 
ATOM      7  C   UNL     1       5.372   4.876  16.203  0.00  0.00    +0.000 A 
ATOM      8  C   UNL     1       6.614   5.101  15.611  0.00  0.00    +0.000 A 
ATOM      9  C   UNL     1       7.443   6.108  16.095  0.00  0.00    +0.000 A 
ATOM     10  C   UNL     1       7.019   6.927  17.153  0.00  0.00    +0.000 A 
ATOM     11  C   UNL     1       5.757   6.701  17.737  0.00  0.00    +0.000 A 
BRANCH  10  12
ATOM     12  C   UNL     1       7.916   8.018  17.684  0.00  0.00    +0.000 C 
ATOM     13  F   UNL     1       7.241   9.146  18.045  0.00  0.00    +0.000 F 
ATOM     14  F   UNL     1       8.617   7.636  18.785  0.00  0.00    +0.000 F 
ATOM     15  F   UNL     1       8.841   8.420  16.768  0.00  0.00    +0.000 F 
ENDBRANCH  10  12
ENDBRANCH   4   6
BRANCH   1  17
ATOM     16  C   UNL     1       2.606   1.678  19.539  0.00  0.00    +0.000 C 
ATOM     17  C   UNL     1       1.651   2.885  19.646  0.00  0.00    +0.000 C 
ATOM     18  C   UNL     1       0.352   2.556  18.878  0.00  0.00    +0.000 C 
ATOM     19  C   UNL     1       1.286   3.073  21.132  0.00  0.00    +0.000 C 
ENDBRANCH   1  17
BRANCH   3  20
ATOM     20  C   UNL     1       2.642   7.626  17.936  0.00  0.00    +0.000 C 
BRANCH  20  21
ATOM     21  N   UNL     1       1.618   8.326  18.669  0.00  0.00    +0.000 N 
ATOM     22  C   UNL     1       1.374   9.663  18.449  0.00  0.00    +0.000 C 
ATOM     23  O   UNL     1       1.997  10.339  17.633  0.00  0.00    +0.000 OA
ATOM     24  H   UNL     1       1.066   7.810  19.342  0.00  0.00    +0.000 HD
BRANCH  22  25
ATOM     25  C   UNL     1       0.270  10.254  19.301  0.00  0.00    +0.000 C 
BRANCH  25  26
ATOM     26  C   UNL     1      -1.015  10.468  18.540  0.00  0.00    +0.000 A 
ATOM     27  C   UNL     1      -1.246   9.787  17.320  0.00  0.00    +0.000 A 
ATOM     28  C   UNL     1      -2.453   9.929  16.630  0.00  0.00    +0.000 A 
ATOM     29  C   UNL     1      -3.408  10.758  17.174  0.00  0.00    +0.000 A 
ATOM     30  C   UNL     1      -3.190  11.431  18.354  0.00  0.00    +0.000 A 
ATOM     31  C   UNL     1      -2.012  11.309  19.059  0.00  0.00    +0.000 A 
ATOM     32  O   UNL     1      -4.256  12.191  18.720  0.00  0.00    +0.000 OA
ATOM     33  C   UNL     1      -5.166  11.926  17.631  0.00  0.00    +0.000 C 
ATOM     34  O   UNL     1      -4.640  11.001  16.657  0.00  0.00    +0.000 OA
ENDBRANCH  25  26
ENDBRANCH  22  25
ENDBRANCH  20  21
ENDBRANCH   3  20
TORSDOF 7
ENDMDL
MODEL 8
REMARK VINA RESULT:      -8.5      1.984      2.783
REMARK  Name = 
REMARK  10 active torsions:
REMARK  status: ('A' for Active; 'I' for Inactive)
REMARK    1  A    between atoms: C_1  and  C_2
REMARK    2  A    between atoms: C_2  and  C_3
REMARK    3  A    between atoms: C_2  and  C_4
REMARK    4  A    between atoms: C_2  and  C_5
REMARK    5  A    between atoms: C_7  and  C_8
REMARK    6  A    between atoms: C_8  and  N_9
REMARK    7  A    between atoms: C_10  and  C_12
REMARK    8  A    between atoms: C_12  and  C_13
REMARK    9  A    between atoms: N_22  and  C_23
REMARK   10  A    between atoms: C_27  and  C_28
REMARK                            x       y       z     vdW  Elec       q    Type
REMARK                         _______ _______ _______ _____ _____    ______ ____
ROOT
ATOM      1  C   UNL     1       2.282   4.086  19.077  0.00  0.00    +0.000 A 
ATOM      2  C   UNL     1       1.839   5.424  19.166  0.00  0.00    +0.000 A 
ATOM      3  C   UNL     1       2.729   6.173  18.423  0.00  0.00    +0.000 A 
ATOM      4  N   UNL     1       3.730   5.287  18.035  0.00  0.00    +0.000 N 
ATOM      5  N   UNL     1       3.384   4.000  18.320  0.00  0.00    +0.000 NA
ENDROOT
BRANCH   4   6
ATOM      6  C   UNL     1       4.946   5.565  17.337  0.00  0.00    +0.000 A 
ATOM      7  C   UNL     1       5.364   4.778  16.257  0.00  0.00    +0.000 A 
ATOM      8  C   UNL     1       6.609   4.985  15.664  0.00  0.00    +0.000 A 
ATOM      9  C   UNL     1       7.440   5.999  16.128  0.00  0.00    +0.000 A 
ATOM     10  C   UNL     1       7.018   6.842  17.168  0.00  0.00    +0.000 A 
ATOM     11  C   UNL     1       5.752   6.634  17.753  0.00  0.00    +0.000 A 
BRANCH  10  12
ATOM     12  C   UNL     1       7.918   7.941  17.678  0.00  0.00    +0.000 C 
ATOM     13  F   UNL     1       8.645   7.580  18.773  0.00  0.00    +0.000 F 
ATOM     14  F   UNL     1       8.822   8.355  16.750  0.00  0.00    +0.000 F 
ATOM     15  F   UNL     1       7.221   9.051  18.049  0.00  0.00    +0.000 F 
ENDBRANCH  10  12
ENDBRANCH   4   6
BRANCH   1  17
ATOM     16  C   UNL     1       0.252   2.620  18.968  0.00  0.00    +0.000 C 
ATOM     17  C   UNL     1       1.599   2.865  19.680  0.00  0.00    +0.000 C 
ATOM     18  C   UNL     1       1.326   3.105  21.182  0.00  0.00    +0.000 C 
ATOM     19  C   UNL     1       2.445   1.582  19.554  0.00  0.00    +0.000 C 
ENDBRANCH   1  17
BRANCH   3  20
ATOM     20  C   UNL     1       2.675   7.594  17.989  0.00  0.00    +0.000 C 
BRANCH  20  21
ATOM     21  N   UNL     1       1.654   8.306  18.716  0.00  0.00    +0.000 N 
ATOM     22  C   UNL     1       1.424   9.645  18.492  0.00  0.00    +0.000 C 
ATOM     23  O   UNL     1       2.059  10.313  17.679  0.00  0.00    +0.000 OA
ATOM     24  H   UNL     1       1.093   7.796  19.387  0.00  0.00    +0.000 HD
BRANCH  22  25
ATOM     25  C   UNL     1       0.322  10.248  19.338  0.00  0.00    +0.000 C 
BRANCH  25  26
ATOM     26  C   UNL     1      -0.966  10.444  18.577  0.00  0.00    +0.000 A 
ATOM     27  C   UNL     1      -1.205   9.730  17.378  0.00  0.00    +0.000 A 
ATOM     28  C   UNL     1      -2.415   9.857  16.691  0.00  0.00    +0.000 A 
ATOM     29  C   UNL     1      -3.365  10.704  17.217  0.00  0.00    +0.000 A 
ATOM     30  C   UNL     1      -3.139  11.409  18.375  0.00  0.00    +0.000 A 
ATOM     31  C   UNL     1      -1.957  11.304  19.078  0.00  0.00    +0.000 A 
ATOM     32  O   UNL     1      -4.201  12.182  18.726  0.00  0.00    +0.000 OA
ATOM     33  C   UNL     1      -5.117  11.890  17.649  0.00  0.00    +0.000 C 
ATOM     34  O   UNL     1      -4.599  10.937  16.699  0.00  0.00    +0.000 OA
ENDBRANCH  25  26
ENDBRANCH  22  25
ENDBRANCH  20  21
ENDBRANCH   3  20
TORSDOF 7
ENDMDL
MODEL 9
REMARK VINA RESULT:      -8.4      3.673      5.949
REMARK  Name = 
REMARK  10 active torsions:
REMARK  status: ('A' for Active; 'I' for Inactive)
REMARK    1  A    between atoms: C_1  and  C_2
REMARK    2  A    between atoms: C_2  and  C_3
REMARK    3  A    between atoms: C_2  and  C_4
REMARK    4  A    between atoms: C_2  and  C_5
REMARK    5  A    between atoms: C_7  and  C_8
REMARK    6  A    between atoms: C_8  and  N_9
REMARK    7  A    between atoms: C_10  and  C_12
REMARK    8  A    between atoms: C_12  and  C_13
REMARK    9  A    between atoms: N_22  and  C_23
REMARK   10  A    between atoms: C_27  and  C_28
REMARK                            x       y       z     vdW  Elec       q    Type
REMARK                         _______ _______ _______ _____ _____    ______ ____
ROOT
ATOM      1  C   UNL     1       5.642   6.453  17.704  0.00  0.00    +0.000 A 
ATOM      2  C   UNL     1       4.688   7.420  17.318  0.00  0.00    +0.000 A 
ATOM      3  C   UNL     1       3.460   6.922  17.700  0.00  0.00    +0.000 A 
ATOM      4  N   UNL     1       3.708   5.636  18.171  0.00  0.00    +0.000 N 
ATOM      5  N   UNL     1       5.046   5.410  18.297  0.00  0.00    +0.000 NA
ENDROOT
BRANCH   4   6
ATOM      6  C   UNL     1       2.771   4.643  18.593  0.00  0.00    +0.000 A 
ATOM      7  C   UNL     1       1.765   4.177  17.737  0.00  0.00    +0.000 A 
ATOM      8  C   UNL     1       0.786   3.300  18.199  0.00  0.00    +0.000 A 
ATOM      9  C   UNL     1       0.814   2.858  19.517  0.00  0.00    +0.000 A 
ATOM     10  C   UNL     1       1.847   3.259  20.378  0.00  0.00    +0.000 A 
ATOM     11  C   UNL     1       2.841   4.136  19.899  0.00  0.00    +0.000 A 
BRANCH  10  12
ATOM     12  C   UNL     1       1.880   2.786  21.810  0.00  0.00    +0.000 C 
ATOM     13  F   UNL     1       0.661   2.399  22.281  0.00  0.00    +0.000 F 
ATOM     14  F   UNL     1       2.706   1.721  21.994  0.00  0.00    +0.000 F 
ATOM     15  F   UNL     1       2.315   3.753  22.666  0.00  0.00    +0.000 F 
ENDBRANCH  10  12
ENDBRANCH   4   6
BRANCH   1  17
ATOM     16  C   UNL     1       7.552   8.046  17.394  0.00  0.00    +0.000 C 
ATOM     17  C   UNL     1       7.154   6.564  17.556  0.00  0.00    +0.000 C 
ATOM     18  C   UNL     1       7.616   5.789  16.302  0.00  0.00    +0.000 C 
ATOM     19  C   UNL     1       7.918   5.996  18.769  0.00  0.00    +0.000 C 
ENDBRANCH   1  17
BRANCH   3  20
ATOM     20  C   UNL     1       2.120   7.565  17.734  0.00  0.00    +0.000 C 
BRANCH  20  21
ATOM     21  N   UNL     1       2.165   8.787  18.498  0.00  0.00    +0.000 N 
ATOM     22  C   UNL     1       1.150   9.713  18.418  0.00  0.00    +0.000 C 
ATOM     23  O   UNL     1       0.159   9.571  17.706  0.00  0.00    +0.000 OA
ATOM     24  H   UNL     1       2.955   8.944  19.111  0.00  0.00    +0.000 HD
BRANCH  22  25
ATOM     25  C   UNL     1       1.348  10.944  19.278  0.00  0.00    +0.000 C 
BRANCH  25  26
ATOM     26  C   UNL     1       0.362  11.036  20.415  0.00  0.00    +0.000 A 
ATOM     27  C   UNL     1       0.505  10.209  21.555  0.00  0.00    +0.000 A 
ATOM     28  C   UNL     1      -0.366  10.319  22.643  0.00  0.00    +0.000 A 
ATOM     29  C   UNL     1      -1.371  11.257  22.566  0.00  0.00    +0.000 A 
ATOM     30  C   UNL     1      -1.525  12.059  21.459  0.00  0.00    +0.000 A 
ATOM     31  C   UNL     1      -0.681  11.976  20.372  0.00  0.00    +0.000 A 
ATOM     32  O   UNL     1      -2.571  12.918  21.584  0.00  0.00    +0.000 OA
ATOM     33  C   UNL     1      -3.064  12.557  22.892  0.00  0.00    +0.000 C 
ATOM     34  O   UNL     1      -2.293  11.517  23.528  0.00  0.00    +0.000 OA
ENDBRANCH  25  26
ENDBRANCH  22  25
ENDBRANCH  20  21
ENDBRANCH   3  20
TORSDOF 7
ENDMDL
