MODEL 1
REMARK VINA RESULT:      -7.1      0.000      0.000
REMARK  Name = 
REMARK  7 active torsions:
REMARK  status: ('A' for Active; 'I' for Inactive)
REMARK    1  A    between atoms: C_1  and  O_2
REMARK    2  A    between atoms: O_2  and  C_3
REMARK    3  A    between atoms: C_3  and  C_4
REMARK    4  A    between atoms: C_4  and  N_5
REMARK    5  A    between atoms: C_13  and  C_15
REMARK    6  A    between atoms: C_15  and  C_16
REMARK    7  A    between atoms: C_16  and  N_17
REMARK                            x       y       z     vdW  Elec       q    Type
REMARK                         _______ _______ _______ _____ _____    ______ ____
ROOT
ATOM      1  N   UNL     1       3.782   3.056  19.789  0.00  0.00    +0.000 NA
ATOM      2  C   UNL     1       2.894   4.173  20.149  0.00  0.00    +0.000 C 
ATOM      3  C   UNL     1       1.943   4.603  19.025  0.00  0.00    +0.000 C 
ATOM      4  C   UNL     1       1.068   3.427  18.572  0.00  0.00    +0.000 C 
ATOM      5  C   UNL     1       1.845   2.120  18.524  0.00  0.00    +0.000 C 
ATOM      6  C   UNL     1       3.357   2.346  18.575  0.00  0.00    +0.000 C 
ATOM      7  C   UNL     1       3.861   3.074  17.298  0.00  0.00    +0.000 C 
ATOM      8  N   UNL     1       3.810   4.544  17.263  0.00  0.00    +0.000 N 
ATOM      9  C   UNL     1       4.594   5.286  16.372  0.00  0.00    +0.000 C 
ATOM     10  O   UNL     1       4.502   6.512  16.269  0.00  0.00    +0.000 OA
ATOM     11  C   UNL     1       2.683   5.258  17.854  0.00  0.00    +0.000 C 
ENDROOT
BRANCH   1  12
ATOM     12  C   UNL     1       4.066   2.218  20.970  0.00  0.00    +0.000 C 
BRANCH  12  13
ATOM     13  C   UNL     1       5.197   1.175  20.857  0.00  0.00    +0.000 C 
BRANCH  13  15
ATOM     14  C   UNL     1       6.425  -0.308  22.212  0.00  0.00    +0.000 C 
ATOM     15  O   UNL     1       5.863   0.994  22.106  0.00  0.00    +0.000 OA
ENDBRANCH  13  15
ENDBRANCH  12  13
ENDBRANCH   1  12
BRANCH   9  16
ATOM     16  C   UNL     1       5.556   4.507  15.500  0.00  0.00    +0.000 C 
BRANCH  16  17
ATOM     17  C   UNL     1       6.934   5.149  15.471  0.00  0.00    +0.000 C 
BRANCH  17  18
ATOM     18  N   UNL     1       7.315   5.623  16.790  0.00  0.00    +0.000 N 
ATOM     19  C   UNL     1       7.451   4.875  17.925  0.00  0.00    +0.000 A 
ATOM     20  C   UNL     1       7.863   5.748  18.901  0.00  0.00    +0.000 A 
ATOM     21 CL   UNL     1       8.209   5.422  20.522  0.00  0.00    +0.000 Cl
ATOM     22  C   UNL     1       7.949   6.997  18.262  0.00  0.00    +0.000 A 
ATOM     23  N   UNL     1       7.609   6.928  16.970  0.00  0.00    +0.000 NA
ENDBRANCH  17  18
ENDBRANCH  16  17
ENDBRANCH   9  16
TORSDOF 6
ENDMDL
MODEL 2
REMARK VINA RESULT:      -7.0      2.244      2.736
REMARK  Name = 
REMARK  7 active torsions:
REMARK  status: ('A' for Active; 'I' for Inactive)
REMARK    1  A    between atoms: C_1  and  O_2
REMARK    2  A    between atoms: O_2  and  C_3
REMARK    3  A    between atoms: C_3  and  C_4
REMARK    4  A    between atoms: C_4  and  N_5
REMARK    5  A    between atoms: C_13  and  C_15
REMARK    6  A    between atoms: C_15  and  C_16
REMARK    7  A    between atoms: C_16  and  N_17
REMARK                            x       y       z     vdW  Elec       q    Type
REMARK                         _______ _______ _______ _____ _____    ______ ____
ROOT
ATOM      1  N   UNL     1       3.908   2.788  19.881  0.00  0.00    +0.000 NA
ATOM      2  C   UNL     1       3.015   3.112  21.006  0.00  0.00    +0.000 C 
ATOM      3  C   UNL     1       1.661   3.693  20.580  0.00  0.00    +0.000 C 
ATOM      4  C   UNL     1       0.920   2.727  19.648  0.00  0.00    +0.000 C 
ATOM      5  C   UNL     1       1.860   2.050  18.661  0.00  0.00    +0.000 C 
ATOM      6  C   UNL     1       3.218   2.751  18.585  0.00  0.00    +0.000 C 
ATOM      7  C   UNL     1       3.082   4.176  17.984  0.00  0.00    +0.000 C 
ATOM      8  N   UNL     1       2.746   5.289  18.886  0.00  0.00    +0.000 N 
ATOM      9  C   UNL     1       3.003   6.621  18.539  0.00  0.00    +0.000 C 
ATOM     10  O   UNL     1       2.651   7.570  19.244  0.00  0.00    +0.000 OA
ATOM     11  C   UNL     1       1.794   5.095  19.974  0.00  0.00    +0.000 C 
ENDROOT
BRANCH   1  12
ATOM     12  C   UNL     1       4.750   1.620  20.207  0.00  0.00    +0.000 C 
BRANCH  12  13
ATOM     13  C   UNL     1       4.838   1.187  21.684  0.00  0.00    +0.000 C 
BRANCH  13  15
ATOM     14  C   UNL     1       6.492  -0.382  22.270  0.00  0.00    +0.000 C 
ATOM     15  O   UNL     1       6.192   0.996  22.090  0.00  0.00    +0.000 OA
ENDBRANCH  13  15
ENDBRANCH  12  13
ENDBRANCH   1  12
BRANCH   9  16
ATOM     16  C   UNL     1       3.716   6.857  17.225  0.00  0.00    +0.000 C 
BRANCH  16  17
ATOM     17  C   UNL     1       5.227   6.874  17.401  0.00  0.00    +0.000 C 
BRANCH  17  18
ATOM     18  N   UNL     1       5.870   5.974  16.460  0.00  0.00    +0.000 N 
ATOM     19  C   UNL     1       5.317   5.425  15.338  0.00  0.00    +0.000 A 
ATOM     20  C   UNL     1       6.314   4.683  14.754  0.00  0.00    +0.000 A 
ATOM     21 CL   UNL     1       6.248   3.770  13.334  0.00  0.00    +0.000 Cl
ATOM     22  C   UNL     1       7.429   4.846  15.594  0.00  0.00    +0.000 A 
ATOM     23  N   UNL     1       7.163   5.631  16.643  0.00  0.00    +0.000 NA
ENDBRANCH  17  18
ENDBRANCH  16  17
ENDBRANCH   9  16
TORSDOF 6
ENDMDL
MODEL 3
REMARK VINA RESULT:      -6.8      3.626      4.793
REMARK  Name = 
REMARK  7 active torsions:
REMARK  status: ('A' for Active; 'I' for Inactive)
REMARK    1  A    between atoms: C_1  and  O_2
REMARK    2  A    between atoms: O_2  and  C_3
REMARK    3  A    between atoms: C_3  and  C_4
REMARK    4  A    between atoms: C_4  and  N_5
REMARK    5  A    between atoms: C_13  and  C_15
REMARK    6  A    between atoms: C_15  and  C_16
REMARK    7  A    between atoms: C_16  and  N_17
REMARK                            x       y       z     vdW  Elec       q    Type
REMARK                         _______ _______ _______ _____ _____    ______ ____
ROOT
ATOM      1  N   UNL     1       3.800   3.454  19.041  0.00  0.00    +0.000 NA
ATOM      2  C   UNL     1       4.024   4.736  19.728  0.00  0.00    +0.000 C 
ATOM      3  C   UNL     1       3.928   5.962  18.811  0.00  0.00    +0.000 C 
ATOM      4  C   UNL     1       2.558   6.023  18.124  0.00  0.00    +0.000 C 
ATOM      5  C   UNL     1       2.069   4.648  17.697  0.00  0.00    +0.000 C 
ATOM      6  C   UNL     1       3.191   3.607  17.713  0.00  0.00    +0.000 C 
ATOM      7  C   UNL     1       4.266   3.921  16.638  0.00  0.00    +0.000 C 
ATOM      8  N   UNL     1       5.352   4.852  16.984  0.00  0.00    +0.000 N 
ATOM      9  C   UNL     1       6.554   4.879  16.268  0.00  0.00    +0.000 C 
ATOM     10  O   UNL     1       7.440   5.708  16.488  0.00  0.00    +0.000 OA
ATOM     11  C   UNL     1       5.083   6.029  17.805  0.00  0.00    +0.000 C 
ENDROOT
BRANCH   1  12
ATOM     12  C   UNL     1       3.154   2.486  19.949  0.00  0.00    +0.000 C 
BRANCH  12  13
ATOM     13  C   UNL     1       2.636   3.006  21.304  0.00  0.00    +0.000 C 
BRANCH  13  15
ATOM     14  C   UNL     1       0.600   2.794  20.141  0.00  0.00    +0.000 C 
ATOM     15  O   UNL     1       1.279   3.438  21.211  0.00  0.00    +0.000 OA
ENDBRANCH  13  15
ENDBRANCH  12  13
ENDBRANCH   1  12
BRANCH   9  16
ATOM     16  C   UNL     1       6.716   3.850  15.170  0.00  0.00    +0.000 C 
BRANCH  16  17
ATOM     17  C   UNL     1       6.784   4.498  13.796  0.00  0.00    +0.000 C 
BRANCH  17  18
ATOM     18  N   UNL     1       6.017   3.740  12.824  0.00  0.00    +0.000 N 
ATOM     19  C   UNL     1       4.785   4.051  12.326  0.00  0.00    +0.000 A 
ATOM     20  C   UNL     1       4.490   3.067  11.414  0.00  0.00    +0.000 A 
ATOM     21 CL   UNL     1       3.106   2.901  10.460  0.00  0.00    +0.000 Cl
ATOM     22  C   UNL     1       5.604   2.210  11.430  0.00  0.00    +0.000 A 
ATOM     23  N   UNL     1       6.540   2.613  12.295  0.00  0.00    +0.000 NA
ENDBRANCH  17  18
ENDBRANCH  16  17
ENDBRANCH   9  16
TORSDOF 6
ENDMDL
MODEL 4
REMARK VINA RESULT:      -6.8      2.385      2.901
REMARK  Name = 
REMARK  7 active torsions:
REMARK  status: ('A' for Active; 'I' for Inactive)
REMARK    1  A    between atoms: C_1  and  O_2
REMARK    2  A    between atoms: O_2  and  C_3
REMARK    3  A    between atoms: C_3  and  C_4
REMARK    4  A    between atoms: C_4  and  N_5
REMARK    5  A    between atoms: C_13  and  C_15
REMARK    6  A    between atoms: C_15  and  C_16
REMARK    7  A    between atoms: C_16  and  N_17
REMARK                            x       y       z     vdW  Elec       q    Type
REMARK                         _______ _______ _______ _____ _____    ______ ____
ROOT
ATOM      1  N   UNL     1       3.548   2.866  20.332  0.00  0.00    +0.000 NA
ATOM      2  C   UNL     1       2.220   3.385  20.697  0.00  0.00    +0.000 C 
ATOM      3  C   UNL     1       1.377   3.841  19.499  0.00  0.00    +0.000 C 
ATOM      4  C   UNL     1       1.181   2.693  18.501  0.00  0.00    +0.000 C 
ATOM      5  C   UNL     1       2.441   1.856  18.336  0.00  0.00    +0.000 C 
ATOM      6  C   UNL     1       3.677   2.558  18.901  0.00  0.00    +0.000 C 
ATOM      7  C   UNL     1       4.022   3.834  18.085  0.00  0.00    +0.000 C 
ATOM      8  N   UNL     1       3.351   5.095  18.437  0.00  0.00    +0.000 N 
ATOM      9  C   UNL     1       3.875   6.337  18.062  0.00  0.00    +0.000 C 
ATOM     10  O   UNL     1       3.283   7.399  18.274  0.00  0.00    +0.000 OA
ATOM     11  C   UNL     1       1.946   5.098  18.831  0.00  0.00    +0.000 C 
ENDROOT
BRANCH   1  12
ATOM     12  C   UNL     1       3.965   1.805  21.269  0.00  0.00    +0.000 C 
BRANCH  12  13
ATOM     13  C   UNL     1       5.314   1.104  21.008  0.00  0.00    +0.000 C 
BRANCH  13  15
ATOM     14  C   UNL     1       6.534  -0.424  22.318  0.00  0.00    +0.000 C 
ATOM     15  O   UNL     1       6.039   0.905  22.221  0.00  0.00    +0.000 OA
ENDBRANCH  13  15
ENDBRANCH  12  13
ENDBRANCH   1  12
BRANCH   9  16
ATOM     16  C   UNL     1       5.208   6.326  17.345  0.00  0.00    +0.000 C 
BRANCH  16  17
ATOM     17  C   UNL     1       5.052   6.631  15.863  0.00  0.00    +0.000 C 
BRANCH  17  18
ATOM     18  N   UNL     1       5.755   5.652  15.053  0.00  0.00    +0.000 N 
ATOM     19  C   UNL     1       5.203   4.752  14.188  0.00  0.00    +0.000 A 
ATOM     20  C   UNL     1       6.258   4.074  13.628  0.00  0.00    +0.000 A 
ATOM     21 CL   UNL     1       6.220   2.839  12.477  0.00  0.00    +0.000 Cl
ATOM     22  C   UNL     1       7.404   4.635  14.216  0.00  0.00    +0.000 A 
ATOM     23  N   UNL     1       7.104   5.598  15.094  0.00  0.00    +0.000 NA
ENDBRANCH  17  18
ENDBRANCH  16  17
ENDBRANCH   9  16
TORSDOF 6
ENDMDL
MODEL 5
REMARK VINA RESULT:      -6.8      3.646      4.871
REMARK  Name = 
REMARK  7 active torsions:
REMARK  status: ('A' for Active; 'I' for Inactive)
REMARK    1  A    between atoms: C_1  and  O_2
REMARK    2  A    between atoms: O_2  and  C_3
REMARK    3  A    between atoms: C_3  and  C_4
REMARK    4  A    between atoms: C_4  and  N_5
REMARK    5  A    between atoms: C_13  and  C_15
REMARK    6  A    between atoms: C_15  and  C_16
REMARK    7  A    between atoms: C_16  and  N_17
REMARK                            x       y       z     vdW  Elec       q    Type
REMARK                         _______ _______ _______ _____ _____    ______ ____
ROOT
ATOM      1  N   UNL     1       3.936   3.057  18.280  0.00  0.00    +0.000 NA
ATOM      2  C   UNL     1       4.664   3.617  19.431  0.00  0.00    +0.000 C 
ATOM      3  C   UNL     1       4.791   5.145  19.406  0.00  0.00    +0.000 C 
ATOM      4  C   UNL     1       3.408   5.807  19.351  0.00  0.00    +0.000 C 
ATOM      5  C   UNL     1       2.451   5.056  18.438  0.00  0.00    +0.000 C 
ATOM      6  C   UNL     1       3.179   4.066  17.527  0.00  0.00    +0.000 C 
ATOM      7  C   UNL     1       4.091   4.803  16.509  0.00  0.00    +0.000 C 
ATOM      8  N   UNL     1       5.455   5.167  16.926  0.00  0.00    +0.000 N 
ATOM      9  C   UNL     1       6.460   5.444  15.991  0.00  0.00    +0.000 C 
ATOM     10  O   UNL     1       7.584   5.833  16.320  0.00  0.00    +0.000 OA
ATOM     11  C   UNL     1       5.713   5.635  18.284  0.00  0.00    +0.000 C 
ENDROOT
BRANCH   1  12
ATOM     12  C   UNL     1       3.194   1.844  18.677  0.00  0.00    +0.000 C 
BRANCH  12  13
ATOM     13  C   UNL     1       1.799   2.029  19.307  0.00  0.00    +0.000 C 
BRANCH  13  15
ATOM     14  C   UNL     1       1.340   3.233  21.277  0.00  0.00    +0.000 C 
ATOM     15  O   UNL     1       1.868   2.031  20.732  0.00  0.00    +0.000 OA
ENDBRANCH  13  15
ENDBRANCH  12  13
ENDBRANCH   1  12
BRANCH   9  16
ATOM     16  C   UNL     1       6.098   5.274  14.531  0.00  0.00    +0.000 C 
BRANCH  16  17
ATOM     17  C   UNL     1       6.824   4.093  13.906  0.00  0.00    +0.000 C 
BRANCH  17  18
ATOM     18  N   UNL     1       6.027   3.491  12.852  0.00  0.00    +0.000 N 
ATOM     19  C   UNL     1       4.810   3.913  12.399  0.00  0.00    +0.000 A 
ATOM     20  C   UNL     1       4.475   3.061  11.376  0.00  0.00    +0.000 A 
ATOM     21 CL   UNL     1       3.087   3.071  10.414  0.00  0.00    +0.000 Cl
ATOM     22  C   UNL     1       5.551   2.161  11.285  0.00  0.00    +0.000 A 
ATOM     23  N   UNL     1       6.502   2.415  12.189  0.00  0.00    +0.000 NA
ENDBRANCH  17  18
ENDBRANCH  16  17
ENDBRANCH   9  16
TORSDOF 6
ENDMDL
MODEL 6
REMARK VINA RESULT:      -6.6      3.452      4.563
REMARK  Name = 
REMARK  7 active torsions:
REMARK  status: ('A' for Active; 'I' for Inactive)
REMARK    1  A    between atoms: C_1  and  O_2
REMARK    2  A    between atoms: O_2  and  C_3
REMARK    3  A    between atoms: C_3  and  C_4
REMARK    4  A    between atoms: C_4  and  N_5
REMARK    5  A    between atoms: C_13  and  C_15
REMARK    6  A    between atoms: C_15  and  C_16
REMARK    7  A    between atoms: C_16  and  N_17
REMARK                            x       y       z     vdW  Elec       q    Type
REMARK                         _______ _______ _______ _____ _____    ______ ____
ROOT
ATOM      1  N   UNL     1       3.901   3.937  19.169  0.00  0.00    +0.000 NA
ATOM      2  C   UNL     1       3.825   5.314  19.684  0.00  0.00    +0.000 C 
ATOM      3  C   UNL     1       3.532   6.368  18.608  0.00  0.00    +0.000 C 
ATOM      4  C   UNL     1       2.215   6.057  17.885  0.00  0.00    +0.000 C 
ATOM      5  C   UNL     1       2.038   4.568  17.633  0.00  0.00    +0.000 C 
ATOM      6  C   UNL     1       3.344   3.792  17.817  0.00  0.00    +0.000 C 
ATOM      7  C   UNL     1       4.389   4.186  16.737  0.00  0.00    +0.000 C 
ATOM      8  N   UNL     1       5.245   5.357  16.984  0.00  0.00    +0.000 N 
ATOM      9  C   UNL     1       6.453   5.542  16.301  0.00  0.00    +0.000 C 
ATOM     10  O   UNL     1       7.140   6.558  16.432  0.00  0.00    +0.000 OA
ATOM     11  C   UNL     1       4.701   6.546  17.633  0.00  0.00    +0.000 C 
ENDROOT
BRANCH   1  12
ATOM     12  C   UNL     1       3.418   2.978  20.180  0.00  0.00    +0.000 C 
BRANCH  12  13
ATOM     13  C   UNL     1       2.507   3.514  21.303  0.00  0.00    +0.000 C 
BRANCH  13  15
ATOM     14  C   UNL     1       0.934   2.308  20.033  0.00  0.00    +0.000 C 
ATOM     15  O   UNL     1       1.128   3.356  20.973  0.00  0.00    +0.000 OA
ENDBRANCH  13  15
ENDBRANCH  12  13
ENDBRANCH   1  12
BRANCH   9  16
ATOM     16  C   UNL     1       6.877   4.439  15.356  0.00  0.00    +0.000 C 
BRANCH  16  17
ATOM     17  C   UNL     1       6.935   4.925  13.916  0.00  0.00    +0.000 C 
BRANCH  17  18
ATOM     18  N   UNL     1       6.339   3.954  13.015  0.00  0.00    +0.000 N 
ATOM     19  C   UNL     1       6.969   2.915  12.392  0.00  0.00    +0.000 A 
ATOM     20  C   UNL     1       5.996   2.257  11.683  0.00  0.00    +0.000 A 
ATOM     21 CL   UNL     1       6.151   0.884  10.712  0.00  0.00    +0.000 Cl
ATOM     22  C   UNL     1       4.812   2.970  11.939  0.00  0.00    +0.000 A 
ATOM     23  N   UNL     1       5.016   4.014  12.750  0.00  0.00    +0.000 NA
ENDBRANCH  17  18
ENDBRANCH  16  17
ENDBRANCH   9  16
TORSDOF 6
ENDMDL
MODEL 7
REMARK VINA RESULT:      -6.6      4.854      6.573
REMARK  Name = 
REMARK  7 active torsions:
REMARK  status: ('A' for Active; 'I' for Inactive)
REMARK    1  A    between atoms: C_1  and  O_2
REMARK    2  A    between atoms: O_2  and  C_3
REMARK    3  A    between atoms: C_3  and  C_4
REMARK    4  A    between atoms: C_4  and  N_5
REMARK    5  A    between atoms: C_13  and  C_15
REMARK    6  A    between atoms: C_15  and  C_16
REMARK    7  A    between atoms: C_16  and  N_17
REMARK                            x       y       z     vdW  Elec       q    Type
REMARK                         _______ _______ _______ _____ _____    ______ ____
ROOT
ATOM      1  N   UNL     1       3.172   4.109  18.084  0.00  0.00    +0.000 NA
ATOM      2  C   UNL     1       3.900   4.434  16.846  0.00  0.00    +0.000 C 
ATOM      3  C   UNL     1       4.884   5.602  16.988  0.00  0.00    +0.000 C 
ATOM      4  C   UNL     1       5.917   5.316  18.085  0.00  0.00    +0.000 C 
ATOM      5  C   UNL     1       5.295   4.626  19.290  0.00  0.00    +0.000 C 
ATOM      6  C   UNL     1       3.768   4.716  19.282  0.00  0.00    +0.000 C 
ATOM      7  C   UNL     1       3.290   6.183  19.462  0.00  0.00    +0.000 C 
ATOM      8  N   UNL     1       3.180   7.036  18.268  0.00  0.00    +0.000 N 
ATOM      9  C   UNL     1       2.392   8.192  18.260  0.00  0.00    +0.000 C 
ATOM     10  O   UNL     1       2.355   8.964  17.299  0.00  0.00    +0.000 OA
ATOM     11  C   UNL     1       4.170   6.943  17.200  0.00  0.00    +0.000 C 
ENDROOT
BRANCH   1  12
ATOM     12  C   UNL     1       2.890   2.663  18.156  0.00  0.00    +0.000 C 
BRANCH  12  13
ATOM     13  C   UNL     1       1.593   2.217  18.859  0.00  0.00    +0.000 C 
BRANCH  13  15
ATOM     14  C   UNL     1       1.195   2.935  21.066  0.00  0.00    +0.000 C 
ATOM     15  O   UNL     1       1.816   1.955  20.244  0.00  0.00    +0.000 OA
ENDBRANCH  13  15
ENDBRANCH  12  13
ENDBRANCH   1  12
BRANCH   9  16
ATOM     16  C   UNL     1       1.594   8.482  19.514  0.00  0.00    +0.000 C 
BRANCH  16  17
ATOM     17  C   UNL     1       0.712   9.709  19.348  0.00  0.00    +0.000 C 
BRANCH  17  18
ATOM     18  N   UNL     1       0.181  10.145  20.628  0.00  0.00    +0.000 N 
ATOM     19  C   UNL     1      -0.228  11.403  20.962  0.00  0.00    +0.000 A 
ATOM     20  C   UNL     1      -0.686  11.317  22.253  0.00  0.00    +0.000 A 
ATOM     21 CL   UNL     1      -1.329  12.542  23.223  0.00  0.00    +0.000 Cl
ATOM     22  C   UNL     1      -0.515   9.969  22.612  0.00  0.00    +0.000 A 
ATOM     23  N   UNL     1       0.020   9.247  21.623  0.00  0.00    +0.000 NA
ENDBRANCH  17  18
ENDBRANCH  16  17
ENDBRANCH   9  16
TORSDOF 6
ENDMDL
MODEL 8
REMARK VINA RESULT:      -6.6      5.041      7.143
REMARK  Name = 
REMARK  7 active torsions:
REMARK  status: ('A' for Active; 'I' for Inactive)
REMARK    1  A    between atoms: C_1  and  O_2
REMARK    2  A    between atoms: O_2  and  C_3
REMARK    3  A    between atoms: C_3  and  C_4
REMARK    4  A    between atoms: C_4  and  N_5
REMARK    5  A    between atoms: C_13  and  C_15
REMARK    6  A    between atoms: C_15  and  C_16
REMARK    7  A    between atoms: C_16  and  N_17
REMARK                            x       y       z     vdW  Elec       q    Type
REMARK                         _______ _______ _______ _____ _____    ______ ____
ROOT
ATOM      1  N   UNL     1       4.933   5.449  18.501  0.00  0.00    +0.000 NA
ATOM      2  C   UNL     1       4.628   4.663  19.708  0.00  0.00    +0.000 C 
ATOM      3  C   UNL     1       3.140   4.332  19.879  0.00  0.00    +0.000 C 
ATOM      4  C   UNL     1       2.608   3.563  18.663  0.00  0.00    +0.000 C 
ATOM      5  C   UNL     1       3.178   4.094  17.356  0.00  0.00    +0.000 C 
ATOM      6  C   UNL     1       3.833   5.466  17.528  0.00  0.00    +0.000 C 
ATOM      7  C   UNL     1       2.782   6.550  17.891  0.00  0.00    +0.000 C 
ATOM      8  N   UNL     1       2.421   6.730  19.307  0.00  0.00    +0.000 N 
ATOM      9  C   UNL     1       1.827   7.910  19.770  0.00  0.00    +0.000 C 
ATOM     10  O   UNL     1       1.440   8.046  20.933  0.00  0.00    +0.000 OA
ATOM     11  C   UNL     1       2.299   5.576  20.191  0.00  0.00    +0.000 C 
ENDROOT
BRANCH   1  12
ATOM     12  C   UNL     1       6.266   5.097  17.976  0.00  0.00    +0.000 C 
BRANCH  12  13
ATOM     13  C   UNL     1       6.566   5.424  16.499  0.00  0.00    +0.000 C 
BRANCH  13  15
ATOM     14  C   UNL     1       7.593   7.249  17.573  0.00  0.00    +0.000 C 
ATOM     15  O   UNL     1       7.524   6.474  16.383  0.00  0.00    +0.000 OA
ENDBRANCH  13  15
ENDBRANCH  12  13
ENDBRANCH   1  12
BRANCH   9  16
ATOM     16  C   UNL     1       1.645   9.023  18.760  0.00  0.00    +0.000 C 
BRANCH  16  17
ATOM     17  C   UNL     1       0.946  10.228  19.372  0.00  0.00    +0.000 C 
BRANCH  17  18
ATOM     18  N   UNL     1      -0.381  10.401  18.809  0.00  0.00    +0.000 N 
ATOM     19  C   UNL     1      -1.398  11.156  19.318  0.00  0.00    +0.000 A 
ATOM     20  C   UNL     1      -2.433  11.043  18.424  0.00  0.00    +0.000 A 
ATOM     21 CL   UNL     1      -3.964  11.753  18.495  0.00  0.00    +0.000 Cl
ATOM     22  C   UNL     1      -1.947  10.202  17.408  0.00  0.00    +0.000 A 
ATOM     23  N   UNL     1      -0.693   9.801  17.640  0.00  0.00    +0.000 NA
ENDBRANCH  17  18
ENDBRANCH  16  17
ENDBRANCH   9  16
TORSDOF 6
ENDMDL
MODEL 9
REMARK VINA RESULT:      -6.6      5.050      7.118
REMARK  Name = 
REMARK  7 active torsions:
REMARK  status: ('A' for Active; 'I' for Inactive)
REMARK    1  A    between atoms: C_1  and  O_2
REMARK    2  A    between atoms: O_2  and  C_3
REMARK    3  A    between atoms: C_3  and  C_4
REMARK    4  A    between atoms: C_4  and  N_5
REMARK    5  A    between atoms: C_13  and  C_15
REMARK    6  A    between atoms: C_15  and  C_16
REMARK    7  A    between atoms: C_16  and  N_17
REMARK                            x       y       z     vdW  Elec       q    Type
REMARK                         _______ _______ _______ _____ _____    ______ ____
ROOT
ATOM      1  N   UNL     1       5.464   5.957  18.390  0.00  0.00    +0.000 NA
ATOM      2  C   UNL     1       5.239   4.940  19.431  0.00  0.00    +0.000 C 
ATOM      3  C   UNL     1       3.820   4.359  19.442  0.00  0.00    +0.000 C 
ATOM      4  C   UNL     1       3.476   3.733  18.084  0.00  0.00    +0.000 C 
ATOM      5  C   UNL     1       4.008   4.558  16.923  0.00  0.00    +0.000 C 
ATOM      6  C   UNL     1       4.420   5.967  17.356  0.00  0.00    +0.000 C 
ATOM      7  C   UNL     1       3.190   6.798  17.812  0.00  0.00    +0.000 C 
ATOM      8  N   UNL     1       2.742   6.679  19.209  0.00  0.00    +0.000 N 
ATOM      9  C   UNL     1       1.942   7.657  19.811  0.00  0.00    +0.000 C 
ATOM     10  O   UNL     1       1.487   7.533  20.951  0.00  0.00    +0.000 OA
ATOM     11  C   UNL     1       2.773   5.387  19.887  0.00  0.00    +0.000 C 
ENDROOT
BRANCH   1  12
ATOM     12  C   UNL     1       6.858   5.909  17.911  0.00  0.00    +0.000 C 
BRANCH  12  13
ATOM     13  C   UNL     1       7.205   4.889  16.807  0.00  0.00    +0.000 C 
BRANCH  13  15
ATOM     14  C   UNL     1       6.893   4.811  14.475  0.00  0.00    +0.000 C 
ATOM     15  O   UNL     1       7.454   5.537  15.561  0.00  0.00    +0.000 OA
ENDBRANCH  13  15
ENDBRANCH  12  13
ENDBRANCH   1  12
BRANCH   9  16
ATOM     16  C   UNL     1       1.624   8.882  18.981  0.00  0.00    +0.000 C 
BRANCH  16  17
ATOM     17  C   UNL     1       0.829   9.908  19.774  0.00  0.00    +0.000 C 
BRANCH  17  18
ATOM     18  N   UNL     1      -0.128  10.595  18.925  0.00  0.00    +0.000 N 
ATOM     19  C   UNL     1      -0.961  10.031  18.002  0.00  0.00    +0.000 A 
ATOM     20  C   UNL     1      -1.701  11.064  17.485  0.00  0.00    +0.000 A 
ATOM     21 CL   UNL     1      -2.909  11.003  16.305  0.00  0.00    +0.000 Cl
ATOM     22  C   UNL     1      -1.245  12.212  18.157  0.00  0.00    +0.000 A 
ATOM     23  N   UNL     1      -0.278  11.932  19.036  0.00  0.00    +0.000 NA
ENDBRANCH  17  18
ENDBRANCH  16  17
ENDBRANCH   9  16
TORSDOF 6
ENDMDL
