MODEL 1
REMARK VINA RESULT:      -7.1      0.000      0.000
REMARK  Name = 
REMARK  4 active torsions:
REMARK  status: ('A' for Active; 'I' for Inactive)
REMARK    1  A    between atoms: C_1  and  O_2
REMARK    2  A    between atoms: O_2  and  C_3
REMARK    3  A    between atoms: C_8  and  O_9
REMARK    4  A    between atoms: O_9  and  C_10
REMARK                            x       y       z     vdW  Elec       q    Type
REMARK                         _______ _______ _______ _____ _____    ______ ____
ROOT
ATOM      1  C   UNL     1       7.892  13.609  25.237  0.00  0.00    +0.000 A 
ATOM      2  C   UNL     1       8.505  14.541  24.370  0.00  0.00    +0.000 A 
ATOM      3  C   UNL     1       8.750  14.185  23.054  0.00  0.00    +0.000 A 
ATOM      4  C   UNL     1       8.440  12.873  22.606  0.00  0.00    +0.000 A 
ATOM      5  C   UNL     1       7.887  11.939  23.462  0.00  0.00    +0.000 A 
ATOM      6  C   UNL     1       7.618  12.293  24.790  0.00  0.00    +0.000 A 
ATOM      7  C   UNL     1       8.782  12.594  21.163  0.00  0.00    +0.000 C 
ATOM      8  C   UNL     1      10.110  12.725  21.026  0.00  0.00    +0.000 C 
ATOM      9  C   UNL     1       9.051  12.584  19.256  0.00  0.00    +0.000 C 
ATOM     10  N   UNL     1       9.384  11.391  18.346  0.00  0.00    +0.000 NA
ATOM     11  C   UNL     1      10.675  11.498  17.573  0.00  0.00    +0.000 C 
ATOM     12  C   UNL     1      11.409  12.723  17.984  0.00  0.00    +0.000 C 
ATOM     13  C   UNL     1      11.731  13.781  17.205  0.00  0.00    +0.000 C 
ATOM     14  C   UNL     1      12.007  15.268  17.536  0.00  0.00    +0.000 C 
ATOM     15  O   UNL     1      12.333  15.766  18.857  0.00  0.00    +0.000 OA
ATOM     16  C   UNL     1      11.624  15.354  20.040  0.00  0.00    +0.000 C 
ATOM     17  C   UNL     1      11.080  16.455  20.960  0.00  0.00    +0.000 C 
ATOM     18  C   UNL     1      10.420  15.875  22.240  0.00  0.00    +0.000 C 
ATOM     19  O   UNL     1      10.893  16.129  23.349  0.00  0.00    +0.000 OA
ATOM     20  N   UNL     1       9.331  15.015  22.039  0.00  0.00    +0.000 N 
ATOM     21  C   UNL     1       9.108  14.349  20.749  0.00  0.00    +0.000 C 
ATOM     22  C   UNL     1      10.513  14.427  19.678  0.00  0.00    +0.000 C 
ATOM     23  C   UNL     1      11.329  12.772  19.444  0.00  0.00    +0.000 C 
ATOM     24  C   UNL     1      10.194  11.415  20.374  0.00  0.00    +0.000 C 
ATOM     25  C   UNL     1       9.555  10.439  19.408  0.00  0.00    +0.000 C 
ENDROOT
BRANCH   1  27
ATOM     26  C   UNL     1       6.542  14.911  26.692  0.00  0.00    +0.000 C 
ATOM     27  O   UNL     1       7.571  13.940  26.531  0.00  0.00    +0.000 OA
ENDBRANCH   1  27
BRANCH   6  28
ATOM     28  O   UNL     1       7.091  11.233  25.478  0.00  0.00    +0.000 OA
ATOM     29  C   UNL     1       5.684  11.125  25.618  0.00  0.00    +0.000 C 
ENDBRANCH   6  28
TORSDOF 2
ENDMDL
MODEL 2
REMARK VINA RESULT:      -7.0      9.000     11.010
REMARK  Name = 
REMARK  4 active torsions:
REMARK  status: ('A' for Active; 'I' for Inactive)
REMARK    1  A    between atoms: C_1  and  O_2
REMARK    2  A    between atoms: O_2  and  C_3
REMARK    3  A    between atoms: C_8  and  O_9
REMARK    4  A    between atoms: O_9  and  C_10
REMARK                            x       y       z     vdW  Elec       q    Type
REMARK                         _______ _______ _______ _____ _____    ______ ____
ROOT
ATOM      1  C   UNL     1       1.672   6.812  20.610  0.00  0.00    +0.000 A 
ATOM      2  C   UNL     1       0.770   7.612  21.345  0.00  0.00    +0.000 A 
ATOM      3  C   UNL     1       0.455   8.880  20.885  0.00  0.00    +0.000 A 
ATOM      4  C   UNL     1       1.084   9.384  19.715  0.00  0.00    +0.000 A 
ATOM      5  C   UNL     1       2.006   8.627  19.018  0.00  0.00    +0.000 A 
ATOM      6  C   UNL     1       2.320   7.338  19.464  0.00  0.00    +0.000 A 
ATOM      7  C   UNL     1       0.684  10.788  19.331  0.00  0.00    +0.000 C 
ATOM      8  C   UNL     1       1.053  11.605  20.329  0.00  0.00    +0.000 C 
ATOM      9  C   UNL     1      -0.188  12.452  18.910  0.00  0.00    +0.000 C 
ATOM     10  N   UNL     1       0.373  13.653  18.131  0.00  0.00    +0.000 NA
ATOM     11  C   UNL     1       0.415  14.959  18.885  0.00  0.00    +0.000 C 
ATOM     12  C   UNL     1       0.004  14.741  20.297  0.00  0.00    +0.000 C 
ATOM     13  C   UNL     1      -1.065  15.278  20.926  0.00  0.00    +0.000 C 
ATOM     14  C   UNL     1      -1.901  14.804  22.140  0.00  0.00    +0.000 C 
ATOM     15  O   UNL     1      -1.458  13.817  23.104  0.00  0.00    +0.000 OA
ATOM     16  C   UNL     1      -0.823  12.584  22.716  0.00  0.00    +0.000 C 
ATOM     17  C   UNL     1      -1.394  11.281  23.289  0.00  0.00    +0.000 C 
ATOM     18  C   UNL     1      -0.562  10.041  22.866  0.00  0.00    +0.000 C 
ATOM     19  O   UNL     1       0.014   9.363  23.718  0.00  0.00    +0.000 OA
ATOM     20  N   UNL     1      -0.461   9.804  21.488  0.00  0.00    +0.000 N 
ATOM     21  C   UNL     1      -0.719  10.867  20.507  0.00  0.00    +0.000 C 
ATOM     22  C   UNL     1      -0.763  12.480  21.230  0.00  0.00    +0.000 C 
ATOM     23  C   UNL     1       0.692  13.527  20.735  0.00  0.00    +0.000 C 
ATOM     24  C   UNL     1       1.735  12.490  19.382  0.00  0.00    +0.000 C 
ATOM     25  C   UNL     1       1.710  13.140  18.014  0.00  0.00    +0.000 C 
ENDROOT
BRANCH   1  27
ATOM     26  C   UNL     1       1.148   4.504  20.429  0.00  0.00    +0.000 C 
ATOM     27  O   UNL     1       1.964   5.526  20.993  0.00  0.00    +0.000 OA
ENDBRANCH   1  27
BRANCH   6  28
ATOM     28  O   UNL     1       3.260   6.758  18.655  0.00  0.00    +0.000 OA
ATOM     29  C   UNL     1       3.696   7.444  17.493  0.00  0.00    +0.000 C 
ENDBRANCH   6  28
TORSDOF 2
ENDMDL
MODEL 3
REMARK VINA RESULT:      -6.9     12.067     15.301
REMARK  Name = 
REMARK  4 active torsions:
REMARK  status: ('A' for Active; 'I' for Inactive)
REMARK    1  A    between atoms: C_1  and  O_2
REMARK    2  A    between atoms: O_2  and  C_3
REMARK    3  A    between atoms: C_8  and  O_9
REMARK    4  A    between atoms: O_9  and  C_10
REMARK                            x       y       z     vdW  Elec       q    Type
REMARK                         _______ _______ _______ _____ _____    ______ ____
ROOT
ATOM      1  C   UNL     1      -2.765  10.305  17.108  0.00  0.00    +0.000 A 
ATOM      2  C   UNL     1      -3.983  10.919  17.474  0.00  0.00    +0.000 A 
ATOM      3  C   UNL     1      -4.011  11.779  18.558  0.00  0.00    +0.000 A 
ATOM      4  C   UNL     1      -2.835  11.989  19.326  0.00  0.00    +0.000 A 
ATOM      5  C   UNL     1      -1.651  11.352  19.006  0.00  0.00    +0.000 A 
ATOM      6  C   UNL     1      -1.605  10.493  17.901  0.00  0.00    +0.000 A 
ATOM      7  C   UNL     1      -2.997  12.921  20.502  0.00  0.00    +0.000 C 
ATOM      8  C   UNL     1      -3.890  12.371  21.338  0.00  0.00    +0.000 C 
ATOM      9  C   UNL     1      -3.395  14.336  21.746  0.00  0.00    +0.000 C 
ATOM     10  N   UNL     1      -2.748  14.615  23.112  0.00  0.00    +0.000 NA
ATOM     11  C   UNL     1      -3.683  14.598  24.295  0.00  0.00    +0.000 C 
ATOM     12  C   UNL     1      -5.040  14.176  23.860  0.00  0.00    +0.000 C 
ATOM     13  C   UNL     1      -6.180  14.901  23.926  0.00  0.00    +0.000 C 
ATOM     14  C   UNL     1      -7.493  14.848  23.107  0.00  0.00    +0.000 C 
ATOM     15  O   UNL     1      -7.909  13.719  22.300  0.00  0.00    +0.000 OA
ATOM     16  C   UNL     1      -7.012  13.023  21.414  0.00  0.00    +0.000 C 
ATOM     17  C   UNL     1      -7.462  12.823  19.962  0.00  0.00    +0.000 C 
ATOM     18  C   UNL     1      -6.445  11.982  19.144  0.00  0.00    +0.000 C 
ATOM     19  O   UNL     1      -6.778  10.891  18.680  0.00  0.00    +0.000 OA
ATOM     20  N   UNL     1      -5.149  12.507  19.042  0.00  0.00    +0.000 N 
ATOM     21  C   UNL     1      -4.653  13.515  19.988  0.00  0.00    +0.000 C 
ATOM     22  C   UNL     1      -5.670  13.675  21.426  0.00  0.00    +0.000 C 
ATOM     23  C   UNL     1      -4.841  13.036  22.964  0.00  0.00    +0.000 C 
ATOM     24  C   UNL     1      -2.971  12.540  22.466  0.00  0.00    +0.000 C 
ATOM     25  C   UNL     1      -1.942  13.426  23.138  0.00  0.00    +0.000 C 
ENDROOT
BRANCH   1  27
ATOM     26  C   UNL     1      -3.032  10.093  14.759  0.00  0.00    +0.000 C 
ATOM     27  O   UNL     1      -2.675   9.496  16.001  0.00  0.00    +0.000 OA
ENDBRANCH   1  27
BRANCH   6  28
ATOM     28  O   UNL     1      -0.357   9.949  17.758  0.00  0.00    +0.000 OA
ATOM     29  C   UNL     1       0.638  10.227  18.729  0.00  0.00    +0.000 C 
ENDBRANCH   6  28
TORSDOF 2
ENDMDL
MODEL 4
REMARK VINA RESULT:      -6.6     11.505     14.747
REMARK  Name = 
REMARK  4 active torsions:
REMARK  status: ('A' for Active; 'I' for Inactive)
REMARK    1  A    between atoms: C_1  and  O_2
REMARK    2  A    between atoms: O_2  and  C_3
REMARK    3  A    between atoms: C_8  and  O_9
REMARK    4  A    between atoms: O_9  and  C_10
REMARK                            x       y       z     vdW  Elec       q    Type
REMARK                         _______ _______ _______ _____ _____    ______ ____
ROOT
ATOM      1  C   UNL     1      -2.950  10.404  17.535  0.00  0.00    +0.000 A 
ATOM      2  C   UNL     1      -4.056  11.106  18.061  0.00  0.00    +0.000 A 
ATOM      3  C   UNL     1      -3.855  12.037  19.066  0.00  0.00    +0.000 A 
ATOM      4  C   UNL     1      -2.552  12.234  19.598  0.00  0.00    +0.000 A 
ATOM      5  C   UNL     1      -1.472  11.514  19.124  0.00  0.00    +0.000 A 
ATOM      6  C   UNL     1      -1.660  10.582  18.095  0.00  0.00    +0.000 A 
ATOM      7  C   UNL     1      -2.463  13.250  20.710  0.00  0.00    +0.000 C 
ATOM      8  C   UNL     1      -3.214  12.805  21.729  0.00  0.00    +0.000 C 
ATOM      9  C   UNL     1      -2.574  14.764  21.896  0.00  0.00    +0.000 C 
ATOM     10  N   UNL     1      -1.681  15.098  23.101  0.00  0.00    +0.000 NA
ATOM     11  C   UNL     1      -2.390  15.210  24.429  0.00  0.00    +0.000 C 
ATOM     12  C   UNL     1      -3.819  14.834  24.271  0.00  0.00    +0.000 C 
ATOM     13  C   UNL     1      -4.898  15.622  24.481  0.00  0.00    +0.000 C 
ATOM     14  C   UNL     1      -6.337  15.585  23.912  0.00  0.00    +0.000 C 
ATOM     15  O   UNL     1      -6.937  14.429  23.277  0.00  0.00    +0.000 OA
ATOM     16  C   UNL     1      -6.242  13.629  22.303  0.00  0.00    +0.000 C 
ATOM     17  C   UNL     1      -6.953  13.357  20.971  0.00  0.00    +0.000 C 
ATOM     18  C   UNL     1      -6.134  12.409  20.053  0.00  0.00    +0.000 C 
ATOM     19  O   UNL     1      -6.589  11.309  19.738  0.00  0.00    +0.000 OA
ATOM     20  N   UNL     1      -4.857  12.855  19.686  0.00  0.00    +0.000 N 
ATOM     21  C   UNL     1      -4.158  13.896  20.452  0.00  0.00    +0.000 C 
ATOM     22  C   UNL     1      -4.894  14.206  22.030  0.00  0.00    +0.000 C 
ATOM     23  C   UNL     1      -3.831  13.628  23.442  0.00  0.00    +0.000 C 
ATOM     24  C   UNL     1      -2.101  13.000  22.663  0.00  0.00    +0.000 C 
ATOM     25  C   UNL     1      -0.933  13.872  23.075  0.00  0.00    +0.000 C 
ENDROOT
BRANCH   1  27
ATOM     26  C   UNL     1      -2.944  10.063  15.185  0.00  0.00    +0.000 C 
ATOM     27  O   UNL     1      -3.092   9.520  16.493  0.00  0.00    +0.000 OA
ENDBRANCH   1  27
BRANCH   6  28
ATOM     28  O   UNL     1      -0.481   9.964  17.777  0.00  0.00    +0.000 OA
ATOM     29  C   UNL     1       0.572   9.942  18.727  0.00  0.00    +0.000 C 
ENDBRANCH   6  28
TORSDOF 2
ENDMDL
MODEL 5
REMARK VINA RESULT:      -6.5      1.887      3.732
REMARK  Name = 
REMARK  4 active torsions:
REMARK  status: ('A' for Active; 'I' for Inactive)
REMARK    1  A    between atoms: C_1  and  O_2
REMARK    2  A    between atoms: O_2  and  C_3
REMARK    3  A    between atoms: C_8  and  O_9
REMARK    4  A    between atoms: O_9  and  C_10
REMARK                            x       y       z     vdW  Elec       q    Type
REMARK                         _______ _______ _______ _____ _____    ______ ____
ROOT
ATOM      1  C   UNL     1       7.645  12.631  24.426  0.00  0.00    +0.000 A 
ATOM      2  C   UNL     1       8.517  12.136  23.432  0.00  0.00    +0.000 A 
ATOM      3  C   UNL     1       9.049  13.010  22.498  0.00  0.00    +0.000 A 
ATOM      4  C   UNL     1       8.669  14.378  22.513  0.00  0.00    +0.000 A 
ATOM      5  C   UNL     1       7.776  14.861  23.450  0.00  0.00    +0.000 A 
ATOM      6  C   UNL     1       7.244  13.991  24.410  0.00  0.00    +0.000 A 
ATOM      7  C   UNL     1       9.289  15.225  21.428  0.00  0.00    +0.000 C 
ATOM      8  C   UNL     1       8.877  14.739  20.247  0.00  0.00    +0.000 C 
ATOM      9  C   UNL     1      10.410  16.123  20.145  0.00  0.00    +0.000 C 
ATOM     10  N   UNL     1      10.122  17.416  19.367  0.00  0.00    +0.000 NA
ATOM     11  C   UNL     1      10.127  17.290  17.863  0.00  0.00    +0.000 C 
ATOM     12  C   UNL     1      10.293  15.864  17.477  0.00  0.00    +0.000 C 
ATOM     13  C   UNL     1      11.313  15.324  16.773  0.00  0.00    +0.000 C 
ATOM     14  C   UNL     1      11.894  13.890  16.722  0.00  0.00    +0.000 C 
ATOM     15  O   UNL     1      11.196  12.707  17.183  0.00  0.00    +0.000 OA
ATOM     16  C   UNL     1      10.480  12.663  18.432  0.00  0.00    +0.000 C 
ATOM     17  C   UNL     1      10.797  11.509  19.391  0.00  0.00    +0.000 C 
ATOM     18  C   UNL     1       9.892  11.531  20.652  0.00  0.00    +0.000 C 
ATOM     19  O   UNL     1       9.118  10.599  20.874  0.00  0.00    +0.000 OA
ATOM     20  N   UNL     1       9.970  12.681  21.449  0.00  0.00    +0.000 N 
ATOM     21  C   UNL     1      10.499  13.946  20.920  0.00  0.00    +0.000 C 
ATOM     22  C   UNL     1      10.631  13.958  19.157  0.00  0.00    +0.000 C 
ATOM     23  C   UNL     1       9.404  15.102  18.354  0.00  0.00    +0.000 C 
ATOM     24  C   UNL     1       8.457  16.077  19.819  0.00  0.00    +0.000 C 
ATOM     25  C   UNL     1       8.765  17.560  19.817  0.00  0.00    +0.000 C 
ENDROOT
BRANCH   1  27
ATOM     26  C   UNL     1       5.905  11.175  25.124  0.00  0.00    +0.000 C 
ATOM     27  O   UNL     1       7.145  11.815  25.411  0.00  0.00    +0.000 OA
ENDBRANCH   1  27
BRANCH   6  28
ATOM     28  O   UNL     1       6.372  14.650  25.234  0.00  0.00    +0.000 OA
ATOM     29  C   UNL     1       6.852  15.226  26.437  0.00  0.00    +0.000 C 
ENDBRANCH   6  28
TORSDOF 2
ENDMDL
MODEL 6
REMARK VINA RESULT:      -6.5      1.869      2.096
REMARK  Name = 
REMARK  4 active torsions:
REMARK  status: ('A' for Active; 'I' for Inactive)
REMARK    1  A    between atoms: C_1  and  O_2
REMARK    2  A    between atoms: O_2  and  C_3
REMARK    3  A    between atoms: C_8  and  O_9
REMARK    4  A    between atoms: O_9  and  C_10
REMARK                            x       y       z     vdW  Elec       q    Type
REMARK                         _______ _______ _______ _____ _____    ______ ____
ROOT
ATOM      1  C   UNL     1       6.129  13.531  23.695  0.00  0.00    +0.000 A 
ATOM      2  C   UNL     1       6.338  14.519  22.706  0.00  0.00    +0.000 A 
ATOM      3  C   UNL     1       7.236  14.274  21.682  0.00  0.00    +0.000 A 
ATOM      4  C   UNL     1       7.980  13.064  21.666  0.00  0.00    +0.000 A 
ATOM      5  C   UNL     1       7.820  12.115  22.657  0.00  0.00    +0.000 A 
ATOM      6  C   UNL     1       6.901  12.343  23.690  0.00  0.00    +0.000 A 
ATOM      7  C   UNL     1       8.951  12.926  20.519  0.00  0.00    +0.000 C 
ATOM      8  C   UNL     1       9.854  13.913  20.627  0.00  0.00    +0.000 C 
ATOM      9  C   UNL     1       9.890  12.878  18.838  0.00  0.00    +0.000 C 
ATOM     10  N   UNL     1      11.193  12.139  18.495  0.00  0.00    +0.000 NA
ATOM     11  C   UNL     1      12.333  13.008  18.024  0.00  0.00    +0.000 C 
ATOM     12  C   UNL     1      11.951  14.440  18.125  0.00  0.00    +0.000 C 
ATOM     13  C   UNL     1      11.847  15.330  17.112  0.00  0.00    +0.000 C 
ATOM     14  C   UNL     1      11.019  16.628  16.951  0.00  0.00    +0.000 C 
ATOM     15  O   UNL     1      10.433  17.366  18.051  0.00  0.00    +0.000 OA
ATOM     16  C   UNL     1       9.721  16.724  19.126  0.00  0.00    +0.000 C 
ATOM     17  C   UNL     1       8.322  17.254  19.466  0.00  0.00    +0.000 C 
ATOM     18  C   UNL     1       7.708  16.537  20.698  0.00  0.00    +0.000 C 
ATOM     19  O   UNL     1       7.453  17.174  21.721  0.00  0.00    +0.000 OA
ATOM     20  N   UNL     1       7.541  15.149  20.587  0.00  0.00    +0.000 N 
ATOM     21  C   UNL     1       8.289  14.364  19.595  0.00  0.00    +0.000 C 
ATOM     22  C   UNL     1       9.643  15.254  18.886  0.00  0.00    +0.000 C 
ATOM     23  C   UNL     1      11.296  14.593  19.424  0.00  0.00    +0.000 C 
ATOM     24  C   UNL     1      10.952  12.950  20.508  0.00  0.00    +0.000 C 
ATOM     25  C   UNL     1      11.468  11.696  19.834  0.00  0.00    +0.000 C 
ENDROOT
BRANCH   1  27
ATOM     26  C   UNL     1       5.441  14.778  25.594  0.00  0.00    +0.000 C 
ATOM     27  O   UNL     1       5.200  13.702  24.692  0.00  0.00    +0.000 OA
ENDBRANCH   1  27
BRANCH   6  28
ATOM     28  O   UNL     1       6.898  11.301  24.577  0.00  0.00    +0.000 OA
ATOM     29  C   UNL     1       7.295  11.528  25.919  0.00  0.00    +0.000 C 
ENDBRANCH   6  28
TORSDOF 2
ENDMDL
MODEL 7
REMARK VINA RESULT:      -6.5     11.234     14.443
REMARK  Name = 
REMARK  4 active torsions:
REMARK  status: ('A' for Active; 'I' for Inactive)
REMARK    1  A    between atoms: C_1  and  O_2
REMARK    2  A    between atoms: O_2  and  C_3
REMARK    3  A    between atoms: C_8  and  O_9
REMARK    4  A    between atoms: O_9  and  C_10
REMARK                            x       y       z     vdW  Elec       q    Type
REMARK                         _______ _______ _______ _____ _____    ______ ____
ROOT
ATOM      1  C   UNL     1      -0.077  10.354  19.647  0.00  0.00    +0.000 A 
ATOM      2  C   UNL     1      -1.260  10.812  19.025  0.00  0.00    +0.000 A 
ATOM      3  C   UNL     1      -2.073  11.712  19.693  0.00  0.00    +0.000 A 
ATOM      4  C   UNL     1      -1.745  12.117  21.014  0.00  0.00    +0.000 A 
ATOM      5  C   UNL     1      -0.616  11.634  21.649  0.00  0.00    +0.000 A 
ATOM      6  C   UNL     1       0.224  10.737  20.977  0.00  0.00    +0.000 A 
ATOM      7  C   UNL     1      -2.723  13.074  21.650  0.00  0.00    +0.000 C 
ATOM      8  C   UNL     1      -3.906  12.447  21.741  0.00  0.00    +0.000 C 
ATOM      9  C   UNL     1      -3.955  14.479  22.118  0.00  0.00    +0.000 C 
ATOM     10  N   UNL     1      -4.423  14.910  23.517  0.00  0.00    +0.000 NA
ATOM     11  C   UNL     1      -5.909  14.821  23.766  0.00  0.00    +0.000 C 
ATOM     12  C   UNL     1      -6.580  14.196  22.596  0.00  0.00    +0.000 C 
ATOM     13  C   UNL     1      -7.509  14.761  21.792  0.00  0.00    +0.000 C 
ATOM     14  C   UNL     1      -7.914  14.489  20.323  0.00  0.00    +0.000 C 
ATOM     15  O   UNL     1      -7.596  13.276  19.597  0.00  0.00    +0.000 OA
ATOM     16  C   UNL     1      -6.291  12.668  19.634  0.00  0.00    +0.000 C 
ATOM     17  C   UNL     1      -5.624  12.339  18.292  0.00  0.00    +0.000 C 
ATOM     18  C   UNL     1      -4.268  11.607  18.477  0.00  0.00    +0.000 C 
ATOM     19  O   UNL     1      -4.123  10.459  18.053  0.00  0.00    +0.000 OA
ATOM     20  N   UNL     1      -3.284  12.299  19.197  0.00  0.00    +0.000 N 
ATOM     21  C   UNL     1      -3.630  13.410  20.094  0.00  0.00    +0.000 C 
ATOM     22  C   UNL     1      -5.360  13.497  20.453  0.00  0.00    +0.000 C 
ATOM     23  C   UNL     1      -5.749  13.053  22.216  0.00  0.00    +0.000 C 
ATOM     24  C   UNL     1      -4.007  12.796  23.160  0.00  0.00    +0.000 C 
ATOM     25  C   UNL     1      -3.768  13.845  24.226  0.00  0.00    +0.000 C 
ENDROOT
BRANCH   1  27
ATOM     26  C   UNL     1       1.721  10.134  18.113  0.00  0.00    +0.000 C 
ATOM     27  O   UNL     1       0.794   9.513  18.997  0.00  0.00    +0.000 OA
ENDBRANCH   1  27
BRANCH   6  28
ATOM     28  O   UNL     1       1.273  10.364  21.774  0.00  0.00    +0.000 OA
ATOM     29  C   UNL     1       1.211   9.134  22.476  0.00  0.00    +0.000 C 
ENDBRANCH   6  28
TORSDOF 2
ENDMDL
MODEL 8
REMARK VINA RESULT:      -6.3      9.004     10.348
REMARK  Name = 
REMARK  4 active torsions:
REMARK  status: ('A' for Active; 'I' for Inactive)
REMARK    1  A    between atoms: C_1  and  O_2
REMARK    2  A    between atoms: O_2  and  C_3
REMARK    3  A    between atoms: C_8  and  O_9
REMARK    4  A    between atoms: O_9  and  C_10
REMARK                            x       y       z     vdW  Elec       q    Type
REMARK                         _______ _______ _______ _____ _____    ______ ____
ROOT
ATOM      1  C   UNL     1      -2.430  12.192  23.024  0.00  0.00    +0.000 A 
ATOM      2  C   UNL     1      -2.692  13.347  22.254  0.00  0.00    +0.000 A 
ATOM      3  C   UNL     1      -1.783  13.737  21.285  0.00  0.00    +0.000 A 
ATOM      4  C   UNL     1      -0.574  13.011  21.115  0.00  0.00    +0.000 A 
ATOM      5  C   UNL     1      -0.286  11.910  21.899  0.00  0.00    +0.000 A 
ATOM      6  C   UNL     1      -1.206  11.495  22.871  0.00  0.00    +0.000 A 
ATOM      7  C   UNL     1       0.351  13.551  20.051  0.00  0.00    +0.000 C 
ATOM      8  C   UNL     1       0.713  14.790  20.416  0.00  0.00    +0.000 C 
ATOM      9  C   UNL     1       1.206  14.263  18.479  0.00  0.00    +0.000 C 
ATOM     10  N   UNL     1       2.700  14.262  18.123  0.00  0.00    +0.000 NA
ATOM     11  C   UNL     1       3.325  15.620  17.920  0.00  0.00    +0.000 C 
ATOM     12  C   UNL     1       2.339  16.683  18.246  0.00  0.00    +0.000 C 
ATOM     13  C   UNL     1       1.842  17.619  17.406  0.00  0.00    +0.000 C 
ATOM     14  C   UNL     1       0.518  18.421  17.412  0.00  0.00    +0.000 C 
ATOM     15  O   UNL     1      -0.334  18.585  18.572  0.00  0.00    +0.000 OA
ATOM     16  C   UNL     1      -0.677  17.493  19.446  0.00  0.00    +0.000 C 
ATOM     17  C   UNL     1      -2.163  17.269  19.752  0.00  0.00    +0.000 C 
ATOM     18  C   UNL     1      -2.384  16.122  20.775  0.00  0.00    +0.000 C 
ATOM     19  O   UNL     1      -2.895  16.360  21.870  0.00  0.00    +0.000 OA
ATOM     20  N   UNL     1      -1.909  14.858  20.398  0.00  0.00    +0.000 N 
ATOM     21  C   UNL     1      -0.891  14.702  19.350  0.00  0.00    +0.000 C 
ATOM     22  C   UNL     1      -0.086  16.222  18.936  0.00  0.00    +0.000 C 
ATOM     23  C   UNL     1       1.690  16.265  19.488  0.00  0.00    +0.000 C 
ATOM     24  C   UNL     1       2.127  14.458  20.221  0.00  0.00    +0.000 C 
ATOM     25  C   UNL     1       3.150  13.726  19.378  0.00  0.00    +0.000 C 
ENDROOT
BRANCH   1  27
ATOM     26  C   UNL     1      -4.255  12.689  24.459  0.00  0.00    +0.000 C 
ATOM     27  O   UNL     1      -3.333  11.730  23.950  0.00  0.00    +0.000 OA
ENDBRANCH   1  27
BRANCH   6  28
ATOM     28  O   UNL     1      -0.735  10.404  23.550  0.00  0.00    +0.000 OA
ATOM     29  C   UNL     1       0.082   9.463  22.875  0.00  0.00    +0.000 C 
ENDBRANCH   6  28
TORSDOF 2
ENDMDL
MODEL 9
REMARK VINA RESULT:      -6.2     11.655     14.657
REMARK  Name = 
REMARK  4 active torsions:
REMARK  status: ('A' for Active; 'I' for Inactive)
REMARK    1  A    between atoms: C_1  and  O_2
REMARK    2  A    between atoms: O_2  and  C_3
REMARK    3  A    between atoms: C_8  and  O_9
REMARK    4  A    between atoms: O_9  and  C_10
REMARK                            x       y       z     vdW  Elec       q    Type
REMARK                         _______ _______ _______ _____ _____    ______ ____
ROOT
ATOM      1  C   UNL     1      -4.209  11.610  17.717  0.00  0.00    +0.000 A 
ATOM      2  C   UNL     1      -3.215  11.701  18.717  0.00  0.00    +0.000 A 
ATOM      3  C   UNL     1      -3.506  12.346  19.907  0.00  0.00    +0.000 A 
ATOM      4  C   UNL     1      -4.774  12.959  20.088  0.00  0.00    +0.000 A 
ATOM      5  C   UNL     1      -5.735  12.919  19.095  0.00  0.00    +0.000 A 
ATOM      6  C   UNL     1      -5.459  12.255  17.893  0.00  0.00    +0.000 A 
ATOM      7  C   UNL     1      -4.962  13.659  21.412  0.00  0.00    +0.000 C 
ATOM      8  C   UNL     1      -4.060  14.649  21.481  0.00  0.00    +0.000 C 
ATOM      9  C   UNL     1      -5.042  14.227  23.251  0.00  0.00    +0.000 C 
ATOM     10  N   UNL     1      -5.880  15.361  23.862  0.00  0.00    +0.000 NA
ATOM     11  C   UNL     1      -5.099  16.454  24.549  0.00  0.00    +0.000 C 
ATOM     12  C   UNL     1      -3.642  16.231  24.356  0.00  0.00    +0.000 C 
ATOM     13  C   UNL     1      -2.718  16.003  25.316  0.00  0.00    +0.000 C 
ATOM     14  C   UNL     1      -1.350  15.280  25.289  0.00  0.00    +0.000 C 
ATOM     15  O   UNL     1      -0.596  14.999  24.084  0.00  0.00    +0.000 OA
ATOM     16  C   UNL     1      -1.205  14.467  22.892  0.00  0.00    +0.000 C 
ATOM     17  C   UNL     1      -0.567  13.220  22.266  0.00  0.00    +0.000 C 
ATOM     18  C   UNL     1      -1.265  12.809  20.942  0.00  0.00    +0.000 C 
ATOM     19  O   UNL     1      -0.638  12.826  19.882  0.00  0.00    +0.000 OA
ATOM     20  N   UNL     1      -2.629  12.498  21.032  0.00  0.00    +0.000 N 
ATOM     21  C   UNL     1      -3.447  12.955  22.164  0.00  0.00    +0.000 C 
ATOM     22  C   UNL     1      -2.656  14.209  23.127  0.00  0.00    +0.000 C 
ATOM     23  C   UNL     1      -3.472  15.871  22.948  0.00  0.00    +0.000 C 
ATOM     24  C   UNL     1      -5.109  15.609  21.834  0.00  0.00    +0.000 C 
ATOM     25  C   UNL     1      -6.383  15.863  22.614  0.00  0.00    +0.000 C 
ENDROOT
BRANCH   1  27
ATOM     26  C   UNL     1      -2.630  10.814  16.134  0.00  0.00    +0.000 C 
ATOM     27  O   UNL     1      -3.988  10.924  16.548  0.00  0.00    +0.000 OA
ENDBRANCH   1  27
BRANCH   6  28
ATOM     28  O   UNL     1      -6.523  12.340  17.036  0.00  0.00    +0.000 OA
ATOM     29  C   UNL     1      -7.120  13.602  16.790  0.00  0.00    +0.000 C 
ENDBRANCH   6  28
TORSDOF 2
ENDMDL
