MODEL 1
REMARK VINA RESULT:      -8.7      0.000      0.000
REMARK  Name = 
REMARK  8 active torsions:
REMARK  status: ('A' for Active; 'I' for Inactive)
REMARK    1  A    between atoms: N_2  and  C_4
REMARK    2  A    between atoms: C_7  and  N_8
REMARK    3  A    between atoms: N_10  and  C_11
REMARK    4  A    between atoms: N_18  and  C_19
REMARK    5  A    between atoms: C_19  and  C_20
REMARK    6  A    between atoms: C_20  and  O_21
REMARK    7  A    between atoms: O_21  and  C_22
REMARK    8  A    between atoms: C_28  and  O_29
REMARK                            x       y       z     vdW  Elec       q    Type
REMARK                         _______ _______ _______ _____ _____    ______ ____
ROOT
ATOM      1  N   UNL     1       5.991   4.664  17.238  0.00  0.00    +0.000 N 
ATOM      2  C   UNL     1       6.883   5.568  16.712  0.00  0.00    +0.000 C 
ATOM      3  N   UNL     1       7.342   5.633  15.503  0.00  0.00    +0.000 NA
ATOM      4  N   UNL     1       7.287   6.512  17.620  0.00  0.00    +0.000 N 
ATOM      5  H   UNL     1       5.978   3.750  16.804  0.00  0.00    +0.000 HD
ATOM      6  H   UNL     1       7.074   6.353  18.601  0.00  0.00    +0.000 HD
ENDROOT
BRANCH   3   7
ATOM      7  C   UNL     1       6.951   4.838  14.411  0.00  0.00    +0.000 A 
ATOM      8  C   UNL     1       5.781   4.064  14.423  0.00  0.00    +0.000 A 
ATOM      9  C   UNL     1       5.309   3.435  13.266  0.00  0.00    +0.000 A 
ATOM     10  C   UNL     1       5.982   3.593  12.059  0.00  0.00    +0.000 A 
ATOM     11  C   UNL     1       7.148   4.353  12.015  0.00  0.00    +0.000 A 
ATOM     12  C   UNL     1       7.631   4.961  13.182  0.00  0.00    +0.000 A 
ATOM     13 BR   UNL     1       9.215   6.006  13.025  0.00  0.00    +0.000 Br
ENDBRANCH   3   7
BRANCH   1  17
ATOM     14  C   UNL     1       2.716   5.112  19.839  0.00  0.00    +0.000 A 
ATOM     15  C   UNL     1       3.150   6.195  19.050  0.00  0.00    +0.000 A 
ATOM     16  C   UNL     1       4.306   6.070  18.269  0.00  0.00    +0.000 A 
ATOM     17  C   UNL     1       5.044   4.878  18.266  0.00  0.00    +0.000 A 
ATOM     18  C   UNL     1       4.668   3.877  19.186  0.00  0.00    +0.000 A 
ATOM     19  C   UNL     1       3.509   3.972  19.953  0.00  0.00    +0.000 A 
BRANCH  14  21
ATOM     20  O   UNL     1       0.718   4.114  20.441  0.00  0.00    +0.000 OA
ATOM     21  N   UNL     1       1.401   5.147  20.474  0.00  0.00    +0.000 N 
ATOM     22  O   UNL     1       1.063   6.197  21.038  0.00  0.00    +0.000 OA
ENDBRANCH  14  21
BRANCH  18  23
ATOM     23  O   UNL     1       5.409   2.742  19.387  0.00  0.00    +0.000 OA
ATOM     24  H   UNL     1       5.974   2.614  18.601  0.00  0.00    +0.000 HD
ENDBRANCH  18  23
ENDBRANCH   1  17
BRANCH   4  25
ATOM     25  C   UNL     1       7.703   7.860  17.253  0.00  0.00    +0.000 C 
BRANCH  25  26
ATOM     26  C   UNL     1       8.387   8.586  18.424  0.00  0.00    +0.000 C 
BRANCH  26  27
ATOM     27  O   UNL     1       8.511   9.964  18.071  0.00  0.00    +0.000 OA
BRANCH  27  28
ATOM     28  C   UNL     1       9.461  10.691  18.730  0.00  0.00    +0.000 A 
ATOM     29  C   UNL     1      10.435  11.265  17.905  0.00  0.00    +0.000 A 
ATOM     30  C   UNL     1      11.448  12.055  18.437  0.00  0.00    +0.000 A 
ATOM     31  C   UNL     1      11.483  12.307  19.805  0.00  0.00    +0.000 A 
ATOM     32  C   UNL     1      10.506  11.757  20.635  0.00  0.00    +0.000 A 
ATOM     33  C   UNL     1       9.494  10.948  20.099  0.00  0.00    +0.000 A 
ENDBRANCH  27  28
ENDBRANCH  26  27
ENDBRANCH  25  26
ENDBRANCH   4  25
TORSDOF 8
ENDMDL
MODEL 2
REMARK VINA RESULT:      -8.2      3.530      8.236
REMARK  Name = 
REMARK  8 active torsions:
REMARK  status: ('A' for Active; 'I' for Inactive)
REMARK    1  A    between atoms: N_2  and  C_4
REMARK    2  A    between atoms: C_7  and  N_8
REMARK    3  A    between atoms: N_10  and  C_11
REMARK    4  A    between atoms: N_18  and  C_19
REMARK    5  A    between atoms: C_19  and  C_20
REMARK    6  A    between atoms: C_20  and  O_21
REMARK    7  A    between atoms: O_21  and  C_22
REMARK    8  A    between atoms: C_28  and  O_29
REMARK                            x       y       z     vdW  Elec       q    Type
REMARK                         _______ _______ _______ _____ _____    ______ ____
ROOT
ATOM      1  N   UNL     1       6.041   4.657  18.765  0.00  0.00    +0.000 N 
ATOM      2  C   UNL     1       5.390   3.844  17.868  0.00  0.00    +0.000 C 
ATOM      3  N   UNL     1       4.254   3.238  18.011  0.00  0.00    +0.000 NA
ATOM      4  N   UNL     1       6.061   3.710  16.680  0.00  0.00    +0.000 N 
ATOM      5  H   UNL     1       5.856   4.477  19.743  0.00  0.00    +0.000 HD
ATOM      6  H   UNL     1       7.024   4.030  16.638  0.00  0.00    +0.000 HD
ENDROOT
BRANCH   3   7
ATOM      7  C   UNL     1       3.368   3.356  19.098  0.00  0.00    +0.000 A 
ATOM      8  C   UNL     1       3.328   2.421  20.142  0.00  0.00    +0.000 A 
ATOM      9  C   UNL     1       2.582   2.653  21.303  0.00  0.00    +0.000 A 
ATOM     10  C   UNL     1       1.883   3.846  21.459  0.00  0.00    +0.000 A 
ATOM     11  C   UNL     1       1.901   4.793  20.438  0.00  0.00    +0.000 A 
ATOM     12  C   UNL     1       2.630   4.546  19.267  0.00  0.00    +0.000 A 
ATOM     13 BR   UNL     1       2.622   5.907  17.936  0.00  0.00    +0.000 Br
ENDBRANCH   3   7
BRANCH   1  17
ATOM     14  C   UNL     1       8.120   8.284  18.307  0.00  0.00    +0.000 A 
ATOM     15  C   UNL     1       7.115   7.922  17.390  0.00  0.00    +0.000 A 
ATOM     16  C   UNL     1       6.503   6.665  17.487  0.00  0.00    +0.000 A 
ATOM     17  C   UNL     1       6.884   5.756  18.484  0.00  0.00    +0.000 A 
ATOM     18  C   UNL     1       8.000   6.093  19.279  0.00  0.00    +0.000 A 
ATOM     19  C   UNL     1       8.606   7.346  19.216  0.00  0.00    +0.000 A 
BRANCH  14  21
ATOM     20  O   UNL     1       9.449   9.942  19.220  0.00  0.00    +0.000 OA
ATOM     21  N   UNL     1       8.601   9.663  18.362  0.00  0.00    +0.000 N 
ATOM     22  O   UNL     1       8.158  10.459  17.524  0.00  0.00    +0.000 OA
ENDBRANCH  14  21
BRANCH  18  23
ATOM     23  O   UNL     1       8.562   5.218  20.172  0.00  0.00    +0.000 OA
ATOM     24  H   UNL     1       8.589   5.660  21.042  0.00  0.00    +0.000 HD
ENDBRANCH  18  23
ENDBRANCH   1  17
BRANCH   4  25
ATOM     25  C   UNL     1       5.403   3.451  15.406  0.00  0.00    +0.000 C 
BRANCH  25  26
ATOM     26  C   UNL     1       5.644   4.585  14.396  0.00  0.00    +0.000 C 
BRANCH  26  27
ATOM     27  O   UNL     1       5.004   4.224  13.172  0.00  0.00    +0.000 OA
BRANCH  27  28
ATOM     28  C   UNL     1       5.662   3.341  12.364  0.00  0.00    +0.000 A 
ATOM     29  C   UNL     1       7.024   3.607  12.193  0.00  0.00    +0.000 A 
ATOM     30  C   UNL     1       7.825   2.774  11.418  0.00  0.00    +0.000 A 
ATOM     31  C   UNL     1       7.275   1.642  10.826  0.00  0.00    +0.000 A 
ATOM     32  C   UNL     1       5.921   1.354  11.006  0.00  0.00    +0.000 A 
ATOM     33  C   UNL     1       5.113   2.203  11.775  0.00  0.00    +0.000 A 
ENDBRANCH  27  28
ENDBRANCH  26  27
ENDBRANCH  25  26
ENDBRANCH   4  25
TORSDOF 8
ENDMDL
MODEL 3
REMARK VINA RESULT:      -8.2      1.116      1.519
REMARK  Name = 
REMARK  8 active torsions:
REMARK  status: ('A' for Active; 'I' for Inactive)
REMARK    1  A    between atoms: N_2  and  C_4
REMARK    2  A    between atoms: C_7  and  N_8
REMARK    3  A    between atoms: N_10  and  C_11
REMARK    4  A    between atoms: N_18  and  C_19
REMARK    5  A    between atoms: C_19  and  C_20
REMARK    6  A    between atoms: C_20  and  O_21
REMARK    7  A    between atoms: O_21  and  C_22
REMARK    8  A    between atoms: C_28  and  O_29
REMARK                            x       y       z     vdW  Elec       q    Type
REMARK                         _______ _______ _______ _____ _____    ______ ____
ROOT
ATOM      1  N   UNL     1       5.626   4.201  16.861  0.00  0.00    +0.000 N 
ATOM      2  C   UNL     1       6.394   5.276  16.482  0.00  0.00    +0.000 C 
ATOM      3  N   UNL     1       6.950   5.501  15.334  0.00  0.00    +0.000 NA
ATOM      4  N   UNL     1       6.537   6.209  17.476  0.00  0.00    +0.000 N 
ATOM      5  H   UNL     1       5.814   3.330  16.381  0.00  0.00    +0.000 HD
ATOM      6  H   UNL     1       6.261   5.949  18.418  0.00  0.00    +0.000 HD
ENDROOT
BRANCH   3   7
ATOM      7  C   UNL     1       6.810   4.730  14.166  0.00  0.00    +0.000 A 
ATOM      8  C   UNL     1       5.715   3.880  13.951  0.00  0.00    +0.000 A 
ATOM      9  C   UNL     1       5.495   3.272  12.710  0.00  0.00    +0.000 A 
ATOM     10  C   UNL     1       6.351   3.527  11.643  0.00  0.00    +0.000 A 
ATOM     11  C   UNL     1       7.448   4.365  11.826  0.00  0.00    +0.000 A 
ATOM     12  C   UNL     1       7.679   4.953  13.078  0.00  0.00    +0.000 A 
ATOM     13 BR   UNL     1       9.186   6.106  13.231  0.00  0.00    +0.000 Br
ENDBRANCH   3   7
BRANCH   1  17
ATOM     14  C   UNL     1       2.268   3.576  19.315  0.00  0.00    +0.000 A 
ATOM     15  C   UNL     1       2.153   4.338  18.136  0.00  0.00    +0.000 A 
ATOM     16  C   UNL     1       3.297   4.632  17.382  0.00  0.00    +0.000 A 
ATOM     17  C   UNL     1       4.561   4.181  17.790  0.00  0.00    +0.000 A 
ATOM     18  C   UNL     1       4.654   3.561  19.054  0.00  0.00    +0.000 A 
ATOM     19  C   UNL     1       3.527   3.238  19.807  0.00  0.00    +0.000 A 
BRANCH  14  21
ATOM     20  O   UNL     1       1.020   3.155  21.217  0.00  0.00    +0.000 OA
ATOM     21  N   UNL     1       1.070   3.071  19.982  0.00  0.00    +0.000 N 
ATOM     22  O   UNL     1       0.162   2.623  19.269  0.00  0.00    +0.000 OA
ENDBRANCH  14  21
BRANCH  18  23
ATOM     23  O   UNL     1       5.853   3.227  19.627  0.00  0.00    +0.000 OA
ATOM     24  H   UNL     1       5.707   3.139  20.588  0.00  0.00    +0.000 HD
ENDBRANCH  18  23
ENDBRANCH   1  17
BRANCH   4  25
ATOM     25  C   UNL     1       6.746   7.629  17.227  0.00  0.00    +0.000 C 
BRANCH  25  26
ATOM     26  C   UNL     1       8.012   8.153  17.926  0.00  0.00    +0.000 C 
BRANCH  26  27
ATOM     27  O   UNL     1       8.205   9.509  17.523  0.00  0.00    +0.000 OA
BRANCH  27  28
ATOM     28  C   UNL     1       9.050  10.269  18.281  0.00  0.00    +0.000 A 
ATOM     29  C   UNL     1       8.907  10.101  19.662  0.00  0.00    +0.000 A 
ATOM     30  C   UNL     1       9.720  10.791  20.556  0.00  0.00    +0.000 A 
ATOM     31  C   UNL     1      10.712  11.638  20.074  0.00  0.00    +0.000 A 
ATOM     32  C   UNL     1      10.878  11.799  18.698  0.00  0.00    +0.000 A 
ATOM     33  C   UNL     1      10.047  11.115  17.799  0.00  0.00    +0.000 A 
ENDBRANCH  27  28
ENDBRANCH  26  27
ENDBRANCH  25  26
ENDBRANCH   4  25
TORSDOF 8
ENDMDL
MODEL 4
REMARK VINA RESULT:      -8.2      3.535      8.323
REMARK  Name = 
REMARK  8 active torsions:
REMARK  status: ('A' for Active; 'I' for Inactive)
REMARK    1  A    between atoms: N_2  and  C_4
REMARK    2  A    between atoms: C_7  and  N_8
REMARK    3  A    between atoms: N_10  and  C_11
REMARK    4  A    between atoms: N_18  and  C_19
REMARK    5  A    between atoms: C_19  and  C_20
REMARK    6  A    between atoms: C_20  and  O_21
REMARK    7  A    between atoms: O_21  and  C_22
REMARK    8  A    between atoms: C_28  and  O_29
REMARK                            x       y       z     vdW  Elec       q    Type
REMARK                         _______ _______ _______ _____ _____    ______ ____
ROOT
ATOM      1  N   UNL     1       6.015   4.640  18.741  0.00  0.00    +0.000 N 
ATOM      2  C   UNL     1       5.285   3.903  17.840  0.00  0.00    +0.000 C 
ATOM      3  N   UNL     1       4.139   3.325  18.017  0.00  0.00    +0.000 NA
ATOM      4  N   UNL     1       5.880   3.820  16.608  0.00  0.00    +0.000 N 
ATOM      5  H   UNL     1       5.882   4.408  19.717  0.00  0.00    +0.000 HD
ATOM      6  H   UNL     1       6.850   4.112  16.526  0.00  0.00    +0.000 HD
ENDROOT
BRANCH   3   7
ATOM      7  C   UNL     1       3.323   3.405  19.159  0.00  0.00    +0.000 A 
ATOM      8  C   UNL     1       3.348   2.436  20.172  0.00  0.00    +0.000 A 
ATOM      9  C   UNL     1       2.677   2.628  21.385  0.00  0.00    +0.000 A 
ATOM     10  C   UNL     1       1.989   3.813  21.624  0.00  0.00    +0.000 A 
ATOM     11  C   UNL     1       1.943   4.794  20.637  0.00  0.00    +0.000 A 
ATOM     12  C   UNL     1       2.597   4.587  19.414  0.00  0.00    +0.000 A 
ATOM     13 BR   UNL     1       2.508   5.992  18.132  0.00  0.00    +0.000 Br
ENDBRANCH   3   7
BRANCH   1  17
ATOM     14  C   UNL     1       8.140   8.244  18.299  0.00  0.00    +0.000 A 
ATOM     15  C   UNL     1       7.169   7.871  17.350  0.00  0.00    +0.000 A 
ATOM     16  C   UNL     1       6.545   6.620  17.445  0.00  0.00    +0.000 A 
ATOM     17  C   UNL     1       6.878   5.729  18.474  0.00  0.00    +0.000 A 
ATOM     18  C   UNL     1       7.963   6.072  19.308  0.00  0.00    +0.000 A 
ATOM     19  C   UNL     1       8.580   7.319  19.245  0.00  0.00    +0.000 A 
BRANCH  14  21
ATOM     20  O   UNL     1       8.169  10.423  17.527  0.00  0.00    +0.000 OA
ATOM     21  N   UNL     1       8.629   9.619  18.348  0.00  0.00    +0.000 N 
ATOM     22  O   UNL     1       9.449   9.906  19.231  0.00  0.00    +0.000 OA
ENDBRANCH  14  21
BRANCH  18  23
ATOM     23  O   UNL     1       8.482   5.211  20.239  0.00  0.00    +0.000 OA
ATOM     24  H   UNL     1       7.854   4.469  20.338  0.00  0.00    +0.000 HD
ENDBRANCH  18  23
ENDBRANCH   1  17
BRANCH   4  25
ATOM     25  C   UNL     1       5.141   3.657  15.363  0.00  0.00    +0.000 C 
BRANCH  25  26
ATOM     26  C   UNL     1       5.632   4.628  14.276  0.00  0.00    +0.000 C 
BRANCH  26  27
ATOM     27  O   UNL     1       5.093   4.193  13.027  0.00  0.00    +0.000 OA
BRANCH  27  28
ATOM     28  C   UNL     1       5.847   3.322  12.294  0.00  0.00    +0.000 A 
ATOM     29  C   UNL     1       5.148   2.217  11.797  0.00  0.00    +0.000 A 
ATOM     30  C   UNL     1       5.783   1.261  11.011  0.00  0.00    +0.000 A 
ATOM     31  C   UNL     1       7.126   1.416  10.684  0.00  0.00    +0.000 A 
ATOM     32  C   UNL     1       7.830   2.525  11.156  0.00  0.00    +0.000 A 
ATOM     33  C   UNL     1       7.192   3.479  11.962  0.00  0.00    +0.000 A 
ENDBRANCH  27  28
ENDBRANCH  26  27
ENDBRANCH  25  26
ENDBRANCH   4  25
TORSDOF 8
ENDMDL
MODEL 5
REMARK VINA RESULT:      -8.1      5.132      9.074
REMARK  Name = 
REMARK  8 active torsions:
REMARK  status: ('A' for Active; 'I' for Inactive)
REMARK    1  A    between atoms: N_2  and  C_4
REMARK    2  A    between atoms: C_7  and  N_8
REMARK    3  A    between atoms: N_10  and  C_11
REMARK    4  A    between atoms: N_18  and  C_19
REMARK    5  A    between atoms: C_19  and  C_20
REMARK    6  A    between atoms: C_20  and  O_21
REMARK    7  A    between atoms: O_21  and  C_22
REMARK    8  A    between atoms: C_28  and  O_29
REMARK                            x       y       z     vdW  Elec       q    Type
REMARK                         _______ _______ _______ _____ _____    ______ ____
ROOT
ATOM      1  N   UNL     1       3.293   7.361  19.444  0.00  0.00    +0.000 N 
ATOM      2  C   UNL     1       2.213   6.999  20.212  0.00  0.00    +0.000 C 
ATOM      3  N   UNL     1       1.226   7.737  20.610  0.00  0.00    +0.000 NA
ATOM      4  N   UNL     1       2.219   5.671  20.554  0.00  0.00    +0.000 N 
ATOM      5  H   UNL     1       3.579   8.329  19.508  0.00  0.00    +0.000 HD
ATOM      6  H   UNL     1       3.073   5.143  20.401  0.00  0.00    +0.000 HD
ENDROOT
BRANCH   3   7
ATOM      7  C   UNL     1       0.983   9.077  20.258  0.00  0.00    +0.000 A 
ATOM      8  C   UNL     1       1.141   9.552  18.948  0.00  0.00    +0.000 A 
ATOM      9  C   UNL     1       0.713  10.832  18.577  0.00  0.00    +0.000 A 
ATOM     10  C   UNL     1       0.084  11.655  19.506  0.00  0.00    +0.000 A 
ATOM     11  C   UNL     1      -0.085  11.213  20.815  0.00  0.00    +0.000 A 
ATOM     12  C   UNL     1       0.368   9.940  21.188  0.00  0.00    +0.000 A 
ATOM     13 BR   UNL     1       0.069   9.405  22.991  0.00  0.00    +0.000 Br
ENDBRANCH   3   7
BRANCH   1  17
ATOM     14  C   UNL     1       5.893   5.465  16.735  0.00  0.00    +0.000 A 
ATOM     15  C   UNL     1       4.907   6.355  16.268  0.00  0.00    +0.000 A 
ATOM     16  C   UNL     1       3.976   6.898  17.163  0.00  0.00    +0.000 A 
ATOM     17  C   UNL     1       4.010   6.561  18.524  0.00  0.00    +0.000 A 
ATOM     18  C   UNL     1       4.907   5.548  18.922  0.00  0.00    +0.000 A 
ATOM     19  C   UNL     1       5.856   5.014  18.053  0.00  0.00    +0.000 A 
BRANCH  14  21
ATOM     20  O   UNL     1       6.971   5.457  14.688  0.00  0.00    +0.000 OA
ATOM     21  N   UNL     1       7.000   5.074  15.865  0.00  0.00    +0.000 N 
ATOM     22  O   UNL     1       7.918   4.412  16.368  0.00  0.00    +0.000 OA
ENDBRANCH  14  21
BRANCH  18  23
ATOM     23  O   UNL     1       4.916   5.023  20.188  0.00  0.00    +0.000 OA
ATOM     24  H   UNL     1       4.329   5.574  20.741  0.00  0.00    +0.000 HD
ENDBRANCH  18  23
ENDBRANCH   1  17
BRANCH   4  25
ATOM     25  C   UNL     1       1.011   4.897  20.810  0.00  0.00    +0.000 C 
BRANCH  25  26
ATOM     26  C   UNL     1       1.333   3.440  21.180  0.00  0.00    +0.000 C 
BRANCH  26  27
ATOM     27  O   UNL     1       0.989   2.618  20.064  0.00  0.00    +0.000 OA
BRANCH  27  28
ATOM     28  C   UNL     1       1.904   2.524  19.055  0.00  0.00    +0.000 A 
ATOM     29  C   UNL     1       1.692   3.405  17.989  0.00  0.00    +0.000 A 
ATOM     30  C   UNL     1       2.562   3.438  16.904  0.00  0.00    +0.000 A 
ATOM     31  C   UNL     1       3.678   2.609  16.887  0.00  0.00    +0.000 A 
ATOM     32  C   UNL     1       3.912   1.740  17.954  0.00  0.00    +0.000 A 
ATOM     33  C   UNL     1       3.026   1.697  19.040  0.00  0.00    +0.000 A 
ENDBRANCH  27  28
ENDBRANCH  26  27
ENDBRANCH  25  26
ENDBRANCH   4  25
TORSDOF 8
ENDMDL
MODEL 6
REMARK VINA RESULT:      -8.1      4.442      7.555
REMARK  Name = 
REMARK  8 active torsions:
REMARK  status: ('A' for Active; 'I' for Inactive)
REMARK    1  A    between atoms: N_2  and  C_4
REMARK    2  A    between atoms: C_7  and  N_8
REMARK    3  A    between atoms: N_10  and  C_11
REMARK    4  A    between atoms: N_18  and  C_19
REMARK    5  A    between atoms: C_19  and  C_20
REMARK    6  A    between atoms: C_20  and  O_21
REMARK    7  A    between atoms: O_21  and  C_22
REMARK    8  A    between atoms: C_28  and  O_29
REMARK                            x       y       z     vdW  Elec       q    Type
REMARK                         _______ _______ _______ _____ _____    ______ ____
ROOT
ATOM      1  N   UNL     1       3.026   7.184  18.337  0.00  0.00    +0.000 N 
ATOM      2  C   UNL     1       2.889   5.899  17.867  0.00  0.00    +0.000 C 
ATOM      3  N   UNL     1       3.816   5.021  17.650  0.00  0.00    +0.000 NA
ATOM      4  N   UNL     1       1.584   5.549  17.638  0.00  0.00    +0.000 N 
ATOM      5  H   UNL     1       3.906   7.639  18.135  0.00  0.00    +0.000 HD
ATOM      6  H   UNL     1       0.886   6.287  17.631  0.00  0.00    +0.000 HD
ENDROOT
BRANCH   3   7
ATOM      7  C   UNL     1       5.185   5.152  17.944  0.00  0.00    +0.000 A 
ATOM      8  C   UNL     1       5.652   5.497  19.221  0.00  0.00    +0.000 A 
ATOM      9  C   UNL     1       7.012   5.434  19.543  0.00  0.00    +0.000 A 
ATOM     10  C   UNL     1       7.935   4.993  18.600  0.00  0.00    +0.000 A 
ATOM     11  C   UNL     1       7.503   4.646  17.323  0.00  0.00    +0.000 A 
ATOM     12  C   UNL     1       6.143   4.734  16.997  0.00  0.00    +0.000 A 
ATOM     13 BR   UNL     1       5.636   4.212  15.237  0.00  0.00    +0.000 Br
ENDBRANCH   3   7
BRANCH   1  17
ATOM     14  C   UNL     1       0.857   9.646  20.969  0.00  0.00    +0.000 A 
ATOM     15  C   UNL     1       1.228   8.344  21.358  0.00  0.00    +0.000 A 
ATOM     16  C   UNL     1       1.854   7.493  20.438  0.00  0.00    +0.000 A 
ATOM     17  C   UNL     1       2.113   7.919  19.127  0.00  0.00    +0.000 A 
ATOM     18  C   UNL     1       1.585   9.166  18.732  0.00  0.00    +0.000 A 
ATOM     19  C   UNL     1       0.982  10.037  19.637  0.00  0.00    +0.000 A 
BRANCH  14  21
ATOM     20  O   UNL     1       0.219  10.202  23.122  0.00  0.00    +0.000 OA
ATOM     21  N   UNL     1       0.416  10.613  21.971  0.00  0.00    +0.000 N 
ATOM     22  O   UNL     1       0.300  11.794  21.615  0.00  0.00    +0.000 OA
ENDBRANCH  14  21
BRANCH  18  23
ATOM     23  O   UNL     1       1.633   9.613  17.438  0.00  0.00    +0.000 OA
ATOM     24  H   UNL     1       2.303  10.322  17.394  0.00  0.00    +0.000 HD
ENDBRANCH  18  23
ENDBRANCH   1  17
BRANCH   4  25
ATOM     25  C   UNL     1       1.087   4.182  17.726  0.00  0.00    +0.000 C 
BRANCH  25  26
ATOM     26  C   UNL     1       0.548   3.859  19.130  0.00  0.00    +0.000 C 
BRANCH  26  27
ATOM     27  O   UNL     1       0.901   2.509  19.434  0.00  0.00    +0.000 OA
BRANCH  27  28
ATOM     28  C   UNL     1       2.228   2.237  19.605  0.00  0.00    +0.000 A 
ATOM     29  C   UNL     1       2.822   1.534  18.551  0.00  0.00    +0.000 A 
ATOM     30  C   UNL     1       4.175   1.212  18.577  0.00  0.00    +0.000 A 
ATOM     31  C   UNL     1       4.961   1.618  19.650  0.00  0.00    +0.000 A 
ATOM     32  C   UNL     1       4.385   2.337  20.698  0.00  0.00    +0.000 A 
ATOM     33  C   UNL     1       3.018   2.648  20.677  0.00  0.00    +0.000 A 
ENDBRANCH  27  28
ENDBRANCH  26  27
ENDBRANCH  25  26
ENDBRANCH   4  25
TORSDOF 8
ENDMDL
MODEL 7
REMARK VINA RESULT:      -8.0      7.531     10.938
REMARK  Name = 
REMARK  8 active torsions:
REMARK  status: ('A' for Active; 'I' for Inactive)
REMARK    1  A    between atoms: N_2  and  C_4
REMARK    2  A    between atoms: C_7  and  N_8
REMARK    3  A    between atoms: N_10  and  C_11
REMARK    4  A    between atoms: N_18  and  C_19
REMARK    5  A    between atoms: C_19  and  C_20
REMARK    6  A    between atoms: C_20  and  O_21
REMARK    7  A    between atoms: O_21  and  C_22
REMARK    8  A    between atoms: C_28  and  O_29
REMARK                            x       y       z     vdW  Elec       q    Type
REMARK                         _______ _______ _______ _____ _____    ______ ____
ROOT
ATOM      1  N   UNL     1      -0.687  12.185  17.995  0.00  0.00    +0.000 N 
ATOM      2  C   UNL     1       0.403  11.545  18.535  0.00  0.00    +0.000 C 
ATOM      3  N   UNL     1       1.479  12.071  19.030  0.00  0.00    +0.000 NA
ATOM      4  N   UNL     1       0.271  10.181  18.548  0.00  0.00    +0.000 N 
ATOM      5  H   UNL     1      -0.509  13.089  17.576  0.00  0.00    +0.000 HD
ATOM      6  H   UNL     1      -0.478   9.768  18.001  0.00  0.00    +0.000 HD
ENDROOT
BRANCH   3   7
ATOM      7  C   UNL     1       1.736  13.440  19.218  0.00  0.00    +0.000 A 
ATOM      8  C   UNL     1       2.472  14.202  18.297  0.00  0.00    +0.000 A 
ATOM      9  C   UNL     1       2.554  15.595  18.402  0.00  0.00    +0.000 A 
ATOM     10  C   UNL     1       1.874  16.262  19.415  0.00  0.00    +0.000 A 
ATOM     11  C   UNL     1       1.138  15.534  20.347  0.00  0.00    +0.000 A 
ATOM     12  C   UNL     1       1.078  14.136  20.252  0.00  0.00    +0.000 A 
ATOM     13 BR   UNL     1       0.026  13.223  21.549  0.00  0.00    +0.000 Br
ENDBRANCH   3   7
BRANCH   1  17
ATOM     14  C   UNL     1      -4.849  11.577  17.927  0.00  0.00    +0.000 A 
ATOM     15  C   UNL     1      -4.196  11.889  19.135  0.00  0.00    +0.000 A 
ATOM     16  C   UNL     1      -2.799  11.982  19.170  0.00  0.00    +0.000 A 
ATOM     17  C   UNL     1      -2.037  11.763  18.013  0.00  0.00    +0.000 A 
ATOM     18  C   UNL     1      -2.713  11.299  16.866  0.00  0.00    +0.000 A 
ATOM     19  C   UNL     1      -4.103  11.223  16.804  0.00  0.00    +0.000 A 
BRANCH  14  21
ATOM     20  O   UNL     1      -6.752  12.615  17.123  0.00  0.00    +0.000 OA
ATOM     21  N   UNL     1      -6.301  11.699  17.823  0.00  0.00    +0.000 N 
ATOM     22  O   UNL     1      -6.991  10.858  18.415  0.00  0.00    +0.000 OA
ENDBRANCH  14  21
BRANCH  18  23
ATOM     23  O   UNL     1      -2.056  10.897  15.732  0.00  0.00    +0.000 OA
ATOM     24  H   UNL     1      -1.196  11.358  15.709  0.00  0.00    +0.000 HD
ENDBRANCH  18  23
ENDBRANCH   1  17
BRANCH   4  25
ATOM     25  C   UNL     1       0.912   9.317  19.532  0.00  0.00    +0.000 C 
BRANCH  25  26
ATOM     26  C   UNL     1       1.955   8.391  18.886  0.00  0.00    +0.000 C 
BRANCH  26  27
ATOM     27  O   UNL     1       2.345   7.424  19.862  0.00  0.00    +0.000 OA
BRANCH  27  28
ATOM     28  C   UNL     1       2.030   6.120  19.605  0.00  0.00    +0.000 A 
ATOM     29  C   UNL     1       2.271   5.707  18.291  0.00  0.00    +0.000 A 
ATOM     30  C   UNL     1       2.022   4.397  17.894  0.00  0.00    +0.000 A 
ATOM     31  C   UNL     1       1.555   3.471  18.821  0.00  0.00    +0.000 A 
ATOM     32  C   UNL     1       1.330   3.865  20.140  0.00  0.00    +0.000 A 
ATOM     33  C   UNL     1       1.566   5.190  20.535  0.00  0.00    +0.000 A 
ENDBRANCH  27  28
ENDBRANCH  26  27
ENDBRANCH  25  26
ENDBRANCH   4  25
TORSDOF 8
ENDMDL
MODEL 8
REMARK VINA RESULT:      -8.0      4.406      7.603
REMARK  Name = 
REMARK  8 active torsions:
REMARK  status: ('A' for Active; 'I' for Inactive)
REMARK    1  A    between atoms: N_2  and  C_4
REMARK    2  A    between atoms: C_7  and  N_8
REMARK    3  A    between atoms: N_10  and  C_11
REMARK    4  A    between atoms: N_18  and  C_19
REMARK    5  A    between atoms: C_19  and  C_20
REMARK    6  A    between atoms: C_20  and  O_21
REMARK    7  A    between atoms: O_21  and  C_22
REMARK    8  A    between atoms: C_28  and  O_29
REMARK                            x       y       z     vdW  Elec       q    Type
REMARK                         _______ _______ _______ _____ _____    ______ ____
ROOT
ATOM      1  N   UNL     1       3.064   7.267  18.283  0.00  0.00    +0.000 N 
ATOM      2  C   UNL     1       2.947   5.987  17.797  0.00  0.00    +0.000 C 
ATOM      3  N   UNL     1       3.885   5.122  17.576  0.00  0.00    +0.000 NA
ATOM      4  N   UNL     1       1.648   5.625  17.552  0.00  0.00    +0.000 N 
ATOM      5  H   UNL     1       3.941   7.736  18.093  0.00  0.00    +0.000 HD
ATOM      6  H   UNL     1       0.941   6.355  17.549  0.00  0.00    +0.000 HD
ENDROOT
BRANCH   3   7
ATOM      7  C   UNL     1       5.250   5.266  17.883  0.00  0.00    +0.000 A 
ATOM      8  C   UNL     1       5.707   5.537  19.181  0.00  0.00    +0.000 A 
ATOM      9  C   UNL     1       7.067   5.485  19.503  0.00  0.00    +0.000 A 
ATOM     10  C   UNL     1       8.002   5.128  18.537  0.00  0.00    +0.000 A 
ATOM     11  C   UNL     1       7.581   4.856  17.238  0.00  0.00    +0.000 A 
ATOM     12  C   UNL     1       6.219   4.933  16.914  0.00  0.00    +0.000 A 
ATOM     13 BR   UNL     1       5.728   4.516  15.122  0.00  0.00    +0.000 Br
ENDBRANCH   3   7
BRANCH   1  17
ATOM     14  C   UNL     1       0.846   9.665  20.933  0.00  0.00    +0.000 A 
ATOM     15  C   UNL     1       1.217   8.357  21.300  0.00  0.00    +0.000 A 
ATOM     16  C   UNL     1       1.861   7.528  20.372  0.00  0.00    +0.000 A 
ATOM     17  C   UNL     1       2.137   7.983  19.075  0.00  0.00    +0.000 A 
ATOM     18  C   UNL     1       1.610   9.236  18.698  0.00  0.00    +0.000 A 
ATOM     19  C   UNL     1       0.989  10.085  19.612  0.00  0.00    +0.000 A 
BRANCH  14  21
ATOM     20  O   UNL     1       0.164  10.172  23.084  0.00  0.00    +0.000 OA
ATOM     21  N   UNL     1       0.387  10.610  21.948  0.00  0.00    +0.000 N 
ATOM     22  O   UNL     1       0.282  11.800  21.619  0.00  0.00    +0.000 OA
ENDBRANCH  14  21
BRANCH  18  23
ATOM     23  O   UNL     1       1.675   9.710  17.414  0.00  0.00    +0.000 OA
ATOM     24  H   UNL     1       2.207   9.079  16.892  0.00  0.00    +0.000 HD
ENDBRANCH  18  23
ENDBRANCH   1  17
BRANCH   4  25
ATOM     25  C   UNL     1       1.166   4.251  17.620  0.00  0.00    +0.000 C 
BRANCH  25  26
ATOM     26  C   UNL     1       2.131   3.272  16.931  0.00  0.00    +0.000 C 
BRANCH  26  27
ATOM     27  O   UNL     1       2.212   2.097  17.738  0.00  0.00    +0.000 OA
BRANCH  27  28
ATOM     28  C   UNL     1       2.221   2.272  19.093  0.00  0.00    +0.000 A 
ATOM     29  C   UNL     1       3.496   2.326  19.667  0.00  0.00    +0.000 A 
ATOM     30  C   UNL     1       3.658   2.529  21.034  0.00  0.00    +0.000 A 
ATOM     31  C   UNL     1       2.541   2.710  21.842  0.00  0.00    +0.000 A 
ATOM     32  C   UNL     1       1.265   2.679  21.279  0.00  0.00    +0.000 A 
ATOM     33  C   UNL     1       1.103   2.460  19.903  0.00  0.00    +0.000 A 
ENDBRANCH  27  28
ENDBRANCH  26  27
ENDBRANCH  25  26
ENDBRANCH   4  25
TORSDOF 8
ENDMDL
MODEL 9
REMARK VINA RESULT:      -7.9      4.395      7.383
REMARK  Name = 
REMARK  8 active torsions:
REMARK  status: ('A' for Active; 'I' for Inactive)
REMARK    1  A    between atoms: N_2  and  C_4
REMARK    2  A    between atoms: C_7  and  N_8
REMARK    3  A    between atoms: N_10  and  C_11
REMARK    4  A    between atoms: N_18  and  C_19
REMARK    5  A    between atoms: C_19  and  C_20
REMARK    6  A    between atoms: C_20  and  O_21
REMARK    7  A    between atoms: O_21  and  C_22
REMARK    8  A    between atoms: C_28  and  O_29
REMARK                            x       y       z     vdW  Elec       q    Type
REMARK                         _______ _______ _______ _____ _____    ______ ____
ROOT
ATOM      1  N   UNL     1       2.823   6.808  19.667  0.00  0.00    +0.000 N 
ATOM      2  C   UNL     1       3.635   6.084  18.827  0.00  0.00    +0.000 C 
ATOM      3  N   UNL     1       3.798   4.800  18.778  0.00  0.00    +0.000 NA
ATOM      4  N   UNL     1       4.318   6.868  17.934  0.00  0.00    +0.000 N 
ATOM      5  H   UNL     1       2.633   6.391  20.569  0.00  0.00    +0.000 HD
ATOM      6  H   UNL     1       4.331   7.872  18.093  0.00  0.00    +0.000 HD
ENDROOT
BRANCH   3   7
ATOM      7  C   UNL     1       3.095   3.833  19.520  0.00  0.00    +0.000 A 
ATOM      8  C   UNL     1       3.530   3.385  20.776  0.00  0.00    +0.000 A 
ATOM      9  C   UNL     1       2.725   2.572  21.580  0.00  0.00    +0.000 A 
ATOM     10  C   UNL     1       1.448   2.214  21.158  0.00  0.00    +0.000 A 
ATOM     11  C   UNL     1       0.989   2.641  19.915  0.00  0.00    +0.000 A 
ATOM     12  C   UNL     1       1.809   3.435  19.101  0.00  0.00    +0.000 A 
ATOM     13 BR   UNL     1       1.091   3.998  17.430  0.00  0.00    +0.000 Br
ENDBRANCH   3   7
BRANCH   1  17
ATOM     14  C   UNL     1       0.337  10.064  18.712  0.00  0.00    +0.000 A 
ATOM     15  C   UNL     1       1.131   9.462  17.717  0.00  0.00    +0.000 A 
ATOM     16  C   UNL     1       2.036   8.450  18.065  0.00  0.00    +0.000 A 
ATOM     17  C   UNL     1       2.167   8.031  19.397  0.00  0.00    +0.000 A 
ATOM     18  C   UNL     1       1.473   8.765  20.381  0.00  0.00    +0.000 A 
ATOM     19  C   UNL     1       0.551   9.757  20.055  0.00  0.00    +0.000 A 
BRANCH  14  21
ATOM     20  O   UNL     1      -0.606  12.166  18.508  0.00  0.00    +0.000 OA
ATOM     21  N   UNL     1      -0.763  10.950  18.337  0.00  0.00    +0.000 N 
ATOM     22  O   UNL     1      -1.771  10.433  17.838  0.00  0.00    +0.000 OA
ENDBRANCH  14  21
BRANCH  18  23
ATOM     23  O   UNL     1       1.650   8.553  21.724  0.00  0.00    +0.000 OA
ATOM     24  H   UNL     1       1.069   9.177  22.201  0.00  0.00    +0.000 HD
ENDBRANCH  18  23
ENDBRANCH   1  17
BRANCH   4  25
ATOM     25  C   UNL     1       4.743   6.411  16.618  0.00  0.00    +0.000 C 
BRANCH  25  26
ATOM     26  C   UNL     1       6.241   6.068  16.587  0.00  0.00    +0.000 C 
BRANCH  26  27
ATOM     27  O   UNL     1       6.373   4.722  16.129  0.00  0.00    +0.000 OA
BRANCH  27  28
ATOM     28  C   UNL     1       6.509   4.534  14.783  0.00  0.00    +0.000 A 
ATOM     29  C   UNL     1       7.538   5.273  14.190  0.00  0.00    +0.000 A 
ATOM     30  C   UNL     1       7.809   5.161  12.830  0.00  0.00    +0.000 A 
ATOM     31  C   UNL     1       7.070   4.279  12.049  0.00  0.00    +0.000 A 
ATOM     32  C   UNL     1       6.054   3.521  12.633  0.00  0.00    +0.000 A 
ATOM     33  C   UNL     1       5.772   3.647  14.000  0.00  0.00    +0.000 A 
ENDBRANCH  27  28
ENDBRANCH  26  27
ENDBRANCH  25  26
ENDBRANCH   4  25
TORSDOF 8
ENDMDL
