MODEL 1
REMARK VINA RESULT:      -7.3      0.000      0.000
REMARK  Name = 
REMARK  7 active torsions:
REMARK  status: ('A' for Active; 'I' for Inactive)
REMARK    1  A    between atoms: C_1  and  C_2
REMARK    2  A    between atoms: C_2  and  C_3
REMARK    3  A    between atoms: C_2  and  N_12
REMARK    4  A    between atoms: C_3  and  C_4
REMARK    5  A    between atoms: N_15  and  C_16
REMARK    6  A    between atoms: C_16  and  C_17
REMARK    7  A    between atoms: N_21  and  C_22
REMARK                            x       y       z     vdW  Elec       q    Type
REMARK                         _______ _______ _______ _____ _____    ______ ____
ROOT
ATOM      1  N   UNL     1       4.113   6.721  17.054  0.00  0.00    +0.000 N 
ATOM      2  C   UNL     1       5.112   5.795  16.924  0.00  0.00    +0.000 C 
ATOM      3  O   UNL     1       5.263   4.828  17.656  0.00  0.00    +0.000 OA
ATOM      4  N   UNL     1       5.937   6.080  15.869  0.00  0.00    +0.000 N 
ATOM      5  H   UNL     1       4.313   7.634  16.664  0.00  0.00    +0.000 HD
ATOM      6  H   UNL     1       5.511   6.559  15.085  0.00  0.00    +0.000 HD
ENDROOT
BRANCH   1   8
ATOM      7  C   UNL     1       2.547   8.035  18.398  0.00  0.00    +0.000 C 
ATOM      8  C   UNL     1       3.145   6.647  18.143  0.00  0.00    +0.000 C 
BRANCH   8   9
ATOM      9  C   UNL     1       2.013   5.641  17.851  0.00  0.00    +0.000 C 
BRANCH   9  10
ATOM     10  C   UNL     1       1.929   4.482  18.807  0.00  0.00    +0.000 A 
ATOM     11  C   UNL     1       2.174   3.170  18.396  0.00  0.00    +0.000 A 
ATOM     12  F   UNL     1       2.469   2.918  17.111  0.00  0.00    +0.000 F 
ATOM     13  C   UNL     1       2.147   2.104  19.296  0.00  0.00    +0.000 A 
ATOM     14  C   UNL     1       1.858   2.338  20.640  0.00  0.00    +0.000 A 
ATOM     15  C   UNL     1       1.587   3.637  21.068  0.00  0.00    +0.000 A 
ATOM     16  C   UNL     1       1.623   4.689  20.154  0.00  0.00    +0.000 A 
ATOM     17  F   UNL     1       1.373   5.932  20.594  0.00  0.00    +0.000 F 
ENDBRANCH   9  10
ENDBRANCH   8   9
ENDBRANCH   1   8
BRANCH   4  18
ATOM     18  C   UNL     1       6.971   5.132  15.529  0.00  0.00    +0.000 C 
BRANCH  18  19
ATOM     19  C   UNL     1       6.684   4.539  14.196  0.00  0.00    +0.000 A 
ATOM     20  N   UNL     1       5.777   3.624  13.903  0.00  0.00    +0.000 NA
ATOM     21  C   UNL     1       5.976   3.401  12.571  0.00  0.00    +0.000 A 
ATOM     22  N   UNL     1       6.951   4.120  12.013  0.00  0.00    +0.000 NA
ATOM     23  N   UNL     1       7.386   4.843  13.060  0.00  0.00    +0.000 N 
ATOM     24  C   UNL     1       8.476   5.771  12.900  0.00  0.00    +0.000 C 
ENDBRANCH  18  19
ENDBRANCH   4  18
TORSDOF 5
ENDMDL
MODEL 2
REMARK VINA RESULT:      -7.2      3.772      7.220
REMARK  Name = 
REMARK  7 active torsions:
REMARK  status: ('A' for Active; 'I' for Inactive)
REMARK    1  A    between atoms: C_1  and  C_2
REMARK    2  A    between atoms: C_2  and  C_3
REMARK    3  A    between atoms: C_2  and  N_12
REMARK    4  A    between atoms: C_3  and  C_4
REMARK    5  A    between atoms: N_15  and  C_16
REMARK    6  A    between atoms: C_16  and  C_17
REMARK    7  A    between atoms: N_21  and  C_22
REMARK                            x       y       z     vdW  Elec       q    Type
REMARK                         _______ _______ _______ _____ _____    ______ ____
ROOT
ATOM      1  N   UNL     1       3.183   6.679  18.583  0.00  0.00    +0.000 N 
ATOM      2  C   UNL     1       2.481   7.842  18.422  0.00  0.00    +0.000 C 
ATOM      3  O   UNL     1       2.380   8.453  17.369  0.00  0.00    +0.000 OA
ATOM      4  N   UNL     1       1.898   8.251  19.591  0.00  0.00    +0.000 N 
ATOM      5  H   UNL     1       3.507   6.494  19.524  0.00  0.00    +0.000 HD
ATOM      6  H   UNL     1       1.630   7.519  20.238  0.00  0.00    +0.000 HD
ENDROOT
BRANCH   1   8
ATOM      7  C   UNL     1       5.431   6.321  17.684  0.00  0.00    +0.000 C 
ATOM      8  C   UNL     1       3.930   6.084  17.480  0.00  0.00    +0.000 C 
BRANCH   8   9
ATOM      9  C   UNL     1       3.659   4.572  17.339  0.00  0.00    +0.000 C 
BRANCH   9  10
ATOM     10  C   UNL     1       2.922   3.947  18.493  0.00  0.00    +0.000 A 
ATOM     11  C   UNL     1       3.595   3.455  19.614  0.00  0.00    +0.000 A 
ATOM     12  F   UNL     1       4.934   3.511  19.667  0.00  0.00    +0.000 F 
ATOM     13  C   UNL     1       2.905   2.923  20.705  0.00  0.00    +0.000 A 
ATOM     14  C   UNL     1       1.512   2.865  20.684  0.00  0.00    +0.000 A 
ATOM     15  C   UNL     1       0.822   3.329  19.564  0.00  0.00    +0.000 A 
ATOM     16  C   UNL     1       1.529   3.860  18.486  0.00  0.00    +0.000 A 
ATOM     17  F   UNL     1       0.840   4.313  17.428  0.00  0.00    +0.000 F 
ENDBRANCH   9  10
ENDBRANCH   8   9
ENDBRANCH   1   8
BRANCH   4  18
ATOM     18  C   UNL     1       1.024   9.400  19.560  0.00  0.00    +0.000 C 
BRANCH  18  19
ATOM     19  C   UNL     1       0.498   9.662  20.926  0.00  0.00    +0.000 A 
ATOM     20  N   UNL     1       0.001   8.783  21.777  0.00  0.00    +0.000 NA
ATOM     21  C   UNL     1      -0.380   9.555  22.837  0.00  0.00    +0.000 A 
ATOM     22  N   UNL     1      -0.152  10.862  22.701  0.00  0.00    +0.000 NA
ATOM     23  N   UNL     1       0.414  10.911  21.483  0.00  0.00    +0.000 N 
ATOM     24  C   UNL     1       0.818  12.174  20.919  0.00  0.00    +0.000 C 
ENDBRANCH  18  19
ENDBRANCH   4  18
TORSDOF 5
ENDMDL
MODEL 3
REMARK VINA RESULT:      -7.2      3.762      7.217
REMARK  Name = 
REMARK  7 active torsions:
REMARK  status: ('A' for Active; 'I' for Inactive)
REMARK    1  A    between atoms: C_1  and  C_2
REMARK    2  A    between atoms: C_2  and  C_3
REMARK    3  A    between atoms: C_2  and  N_12
REMARK    4  A    between atoms: C_3  and  C_4
REMARK    5  A    between atoms: N_15  and  C_16
REMARK    6  A    between atoms: C_16  and  C_17
REMARK    7  A    between atoms: N_21  and  C_22
REMARK                            x       y       z     vdW  Elec       q    Type
REMARK                         _______ _______ _______ _____ _____    ______ ____
ROOT
ATOM      1  N   UNL     1       3.163   6.719  18.530  0.00  0.00    +0.000 N 
ATOM      2  C   UNL     1       2.471   7.890  18.388  0.00  0.00    +0.000 C 
ATOM      3  O   UNL     1       2.391   8.528  17.349  0.00  0.00    +0.000 OA
ATOM      4  N   UNL     1       1.871   8.272  19.558  0.00  0.00    +0.000 N 
ATOM      5  H   UNL     1       3.470   6.507  19.471  0.00  0.00    +0.000 HD
ATOM      6  H   UNL     1       1.588   7.526  20.181  0.00  0.00    +0.000 HD
ENDROOT
BRANCH   1   8
ATOM      7  C   UNL     1       5.415   6.452  17.611  0.00  0.00    +0.000 C 
ATOM      8  C   UNL     1       3.925   6.147  17.425  0.00  0.00    +0.000 C 
BRANCH   8   9
ATOM      9  C   UNL     1       3.720   4.623  17.300  0.00  0.00    +0.000 C 
BRANCH   9  10
ATOM     10  C   UNL     1       2.974   3.985  18.441  0.00  0.00    +0.000 A 
ATOM     11  C   UNL     1       1.584   3.860  18.432  0.00  0.00    +0.000 A 
ATOM     12  F   UNL     1       0.877   4.339  17.396  0.00  0.00    +0.000 F 
ATOM     13  C   UNL     1       0.900   3.220  19.467  0.00  0.00    +0.000 A 
ATOM     14  C   UNL     1       1.609   2.700  20.549  0.00  0.00    +0.000 A 
ATOM     15  C   UNL     1       2.996   2.835  20.590  0.00  0.00    +0.000 A 
ATOM     16  C   UNL     1       3.661   3.473  19.544  0.00  0.00    +0.000 A 
ATOM     17  F   UNL     1       4.998   3.578  19.601  0.00  0.00    +0.000 F 
ENDBRANCH   9  10
ENDBRANCH   8   9
ENDBRANCH   1   8
BRANCH   4  18
ATOM     18  C   UNL     1       1.005   9.427  19.542  0.00  0.00    +0.000 C 
BRANCH  18  19
ATOM     19  C   UNL     1       0.511   9.698  20.917  0.00  0.00    +0.000 A 
ATOM     20  N   UNL     1       0.058   8.820  21.795  0.00  0.00    +0.000 NA
ATOM     21  C   UNL     1      -0.312   9.599  22.854  0.00  0.00    +0.000 A 
ATOM     22  N   UNL     1      -0.119  10.908  22.692  0.00  0.00    +0.000 NA
ATOM     23  N   UNL     1       0.412  10.953  21.458  0.00  0.00    +0.000 N 
ATOM     24  C   UNL     1       0.769  12.216  20.865  0.00  0.00    +0.000 C 
ENDBRANCH  18  19
ENDBRANCH   4  18
TORSDOF 5
ENDMDL
MODEL 4
REMARK VINA RESULT:      -7.2      5.069      6.464
REMARK  Name = 
REMARK  7 active torsions:
REMARK  status: ('A' for Active; 'I' for Inactive)
REMARK    1  A    between atoms: C_1  and  C_2
REMARK    2  A    between atoms: C_2  and  C_3
REMARK    3  A    between atoms: C_2  and  N_12
REMARK    4  A    between atoms: C_3  and  C_4
REMARK    5  A    between atoms: N_15  and  C_16
REMARK    6  A    between atoms: C_16  and  C_17
REMARK    7  A    between atoms: N_21  and  C_22
REMARK                            x       y       z     vdW  Elec       q    Type
REMARK                         _______ _______ _______ _____ _____    ______ ____
ROOT
ATOM      1  N   UNL     1       7.821   6.713  18.669  0.00  0.00    +0.000 N 
ATOM      2  C   UNL     1       7.882   7.954  18.096  0.00  0.00    +0.000 C 
ATOM      3  O   UNL     1       7.168   8.332  17.179  0.00  0.00    +0.000 OA
ATOM      4  N   UNL     1       8.847   8.735  18.673  0.00  0.00    +0.000 N 
ATOM      5  H   UNL     1       8.673   6.399  19.117  0.00  0.00    +0.000 HD
ATOM      6  H   UNL     1       9.039   8.558  19.652  0.00  0.00    +0.000 HD
ENDROOT
BRANCH   1   8
ATOM      7  C   UNL     1       7.689   4.505  17.622  0.00  0.00    +0.000 C 
ATOM      8  C   UNL     1       6.898   5.694  18.179  0.00  0.00    +0.000 C 
BRANCH   8   9
ATOM      9  C   UNL     1       5.931   5.206  19.276  0.00  0.00    +0.000 C 
BRANCH   9  10
ATOM     10  C   UNL     1       4.559   4.823  18.792  0.00  0.00    +0.000 A 
ATOM     11  C   UNL     1       4.071   3.522  18.921  0.00  0.00    +0.000 A 
ATOM     12  F   UNL     1       4.843   2.569  19.466  0.00  0.00    +0.000 F 
ATOM     13  C   UNL     1       2.777   3.183  18.519  0.00  0.00    +0.000 A 
ATOM     14  C   UNL     1       1.947   4.154  17.962  0.00  0.00    +0.000 A 
ATOM     15  C   UNL     1       2.423   5.455  17.803  0.00  0.00    +0.000 A 
ATOM     16  C   UNL     1       3.716   5.775  18.215  0.00  0.00    +0.000 A 
ATOM     17  F   UNL     1       4.145   7.037  18.063  0.00  0.00    +0.000 F 
ENDBRANCH   9  10
ENDBRANCH   8   9
ENDBRANCH   1   8
BRANCH   4  18
ATOM     18  C   UNL     1       8.956  10.113  18.259  0.00  0.00    +0.000 C 
BRANCH  18  19
ATOM     19  C   UNL     1       9.629  10.901  19.325  0.00  0.00    +0.000 A 
ATOM     20  N   UNL     1       9.248  11.042  20.582  0.00  0.00    +0.000 NA
ATOM     21  C   UNL     1      10.175  11.901  21.097  0.00  0.00    +0.000 A 
ATOM     22  N   UNL     1      11.112  12.307  20.239  0.00  0.00    +0.000 NA
ATOM     23  N   UNL     1      10.754  11.656  19.119  0.00  0.00    +0.000 N 
ATOM     24  C   UNL     1      11.512  11.824  17.906  0.00  0.00    +0.000 C 
ENDBRANCH  18  19
ENDBRANCH   4  18
TORSDOF 5
ENDMDL
MODEL 5
REMARK VINA RESULT:      -7.1      0.931      2.334
REMARK  Name = 
REMARK  7 active torsions:
REMARK  status: ('A' for Active; 'I' for Inactive)
REMARK    1  A    between atoms: C_1  and  C_2
REMARK    2  A    between atoms: C_2  and  C_3
REMARK    3  A    between atoms: C_2  and  N_12
REMARK    4  A    between atoms: C_3  and  C_4
REMARK    5  A    between atoms: N_15  and  C_16
REMARK    6  A    between atoms: C_16  and  C_17
REMARK    7  A    between atoms: N_21  and  C_22
REMARK                            x       y       z     vdW  Elec       q    Type
REMARK                         _______ _______ _______ _____ _____    ______ ____
ROOT
ATOM      1  N   UNL     1       3.940   7.144  17.665  0.00  0.00    +0.000 N 
ATOM      2  C   UNL     1       4.981   6.258  17.723  0.00  0.00    +0.000 C 
ATOM      3  O   UNL     1       5.039   5.302  18.480  0.00  0.00    +0.000 OA
ATOM      4  N   UNL     1       5.966   6.570  16.824  0.00  0.00    +0.000 N 
ATOM      5  H   UNL     1       4.170   8.062  17.306  0.00  0.00    +0.000 HD
ATOM      6  H   UNL     1       5.666   7.029  15.972  0.00  0.00    +0.000 HD
ENDROOT
BRANCH   1   8
ATOM      7  C   UNL     1       2.100   8.395  18.682  0.00  0.00    +0.000 C 
ATOM      8  C   UNL     1       2.800   7.037  18.569  0.00  0.00    +0.000 C 
BRANCH   8   9
ATOM      9  C   UNL     1       1.788   5.968  18.109  0.00  0.00    +0.000 C 
BRANCH   9  10
ATOM     10  C   UNL     1       1.779   4.705  18.926  0.00  0.00    +0.000 A 
ATOM     11  C   UNL     1       1.553   4.723  20.304  0.00  0.00    +0.000 A 
ATOM     12  F   UNL     1       1.362   5.892  20.934  0.00  0.00    +0.000 F 
ATOM     13  C   UNL     1       1.492   3.545  21.051  0.00  0.00    +0.000 A 
ATOM     14  C   UNL     1       1.673   2.314  20.420  0.00  0.00    +0.000 A 
ATOM     15  C   UNL     1       1.923   2.275  19.049  0.00  0.00    +0.000 A 
ATOM     16  C   UNL     1       1.975   3.462  18.320  0.00  0.00    +0.000 A 
ATOM     17  F   UNL     1       2.203   3.396  17.000  0.00  0.00    +0.000 F 
ENDBRANCH   9  10
ENDBRANCH   8   9
ENDBRANCH   1   8
BRANCH   4  18
ATOM     18  C   UNL     1       7.079   5.663  16.680  0.00  0.00    +0.000 C 
BRANCH  18  19
ATOM     19  C   UNL     1       7.073   5.080  15.313  0.00  0.00    +0.000 A 
ATOM     20  N   UNL     1       7.744   5.504  14.256  0.00  0.00    +0.000 NA
ATOM     21  C   UNL     1       7.335   4.659  13.265  0.00  0.00    +0.000 A 
ATOM     22  N   UNL     1       6.450   3.733  13.636  0.00  0.00    +0.000 NA
ATOM     23  N   UNL     1       6.301   4.011  14.943  0.00  0.00    +0.000 N 
ATOM     24  C   UNL     1       5.395   3.236  15.753  0.00  0.00    +0.000 C 
ENDBRANCH  18  19
ENDBRANCH   4  18
TORSDOF 5
ENDMDL
MODEL 6
REMARK VINA RESULT:      -6.9      2.988      6.946
REMARK  Name = 
REMARK  7 active torsions:
REMARK  status: ('A' for Active; 'I' for Inactive)
REMARK    1  A    between atoms: C_1  and  C_2
REMARK    2  A    between atoms: C_2  and  C_3
REMARK    3  A    between atoms: C_2  and  N_12
REMARK    4  A    between atoms: C_3  and  C_4
REMARK    5  A    between atoms: N_15  and  C_16
REMARK    6  A    between atoms: C_16  and  C_17
REMARK    7  A    between atoms: N_21  and  C_22
REMARK                            x       y       z     vdW  Elec       q    Type
REMARK                         _______ _______ _______ _____ _____    ______ ____
ROOT
ATOM      1  N   UNL     1       5.831   5.934  18.263  0.00  0.00    +0.000 N 
ATOM      2  C   UNL     1       4.479   6.102  18.389  0.00  0.00    +0.000 C 
ATOM      3  O   UNL     1       3.746   6.529  17.509  0.00  0.00    +0.000 OA
ATOM      4  N   UNL     1       4.033   5.734  19.630  0.00  0.00    +0.000 N 
ATOM      5  H   UNL     1       6.354   5.954  19.129  0.00  0.00    +0.000 HD
ATOM      6  H   UNL     1       4.553   4.997  20.092  0.00  0.00    +0.000 HD
ENDROOT
BRANCH   1   8
ATOM      7  C   UNL     1       7.517   7.448  17.338  0.00  0.00    +0.000 C 
ATOM      8  C   UNL     1       6.533   6.311  17.040  0.00  0.00    +0.000 C 
BRANCH   8   9
ATOM      9  C   UNL     1       7.288   5.123  16.411  0.00  0.00    +0.000 C 
BRANCH   9  10
ATOM     10  C   UNL     1       6.771   4.677  15.070  0.00  0.00    +0.000 A 
ATOM     11  C   UNL     1       7.457   4.959  13.887  0.00  0.00    +0.000 A 
ATOM     12  F   UNL     1       8.596   5.667  13.929  0.00  0.00    +0.000 F 
ATOM     13  C   UNL     1       7.002   4.499  12.650  0.00  0.00    +0.000 A 
ATOM     14  C   UNL     1       5.828   3.749  12.578  0.00  0.00    +0.000 A 
ATOM     15  C   UNL     1       5.115   3.476  13.745  0.00  0.00    +0.000 A 
ATOM     16  C   UNL     1       5.589   3.940  14.971  0.00  0.00    +0.000 A 
ATOM     17  F   UNL     1       4.891   3.652  16.080  0.00  0.00    +0.000 F 
ENDBRANCH   9  10
ENDBRANCH   8   9
ENDBRANCH   1   8
BRANCH   4  18
ATOM     18  C   UNL     1       2.612   5.740  19.881  0.00  0.00    +0.000 C 
BRANCH  18  19
ATOM     19  C   UNL     1       2.177   4.387  20.316  0.00  0.00    +0.000 A 
ATOM     20  N   UNL     1       2.121   3.920  21.550  0.00  0.00    +0.000 NA
ATOM     21  C   UNL     1       1.717   2.626  21.377  0.00  0.00    +0.000 A 
ATOM     22  N   UNL     1       1.517   2.257  20.112  0.00  0.00    +0.000 NA
ATOM     23  N   UNL     1       1.807   3.391  19.451  0.00  0.00    +0.000 N 
ATOM     24  C   UNL     1       1.732   3.434  18.013  0.00  0.00    +0.000 C 
ENDBRANCH  18  19
ENDBRANCH   4  18
TORSDOF 5
ENDMDL
MODEL 7
REMARK VINA RESULT:      -6.9      4.944      6.535
REMARK  Name = 
REMARK  7 active torsions:
REMARK  status: ('A' for Active; 'I' for Inactive)
REMARK    1  A    between atoms: C_1  and  C_2
REMARK    2  A    between atoms: C_2  and  C_3
REMARK    3  A    between atoms: C_2  and  N_12
REMARK    4  A    between atoms: C_3  and  C_4
REMARK    5  A    between atoms: N_15  and  C_16
REMARK    6  A    between atoms: C_16  and  C_17
REMARK    7  A    between atoms: N_21  and  C_22
REMARK                            x       y       z     vdW  Elec       q    Type
REMARK                         _______ _______ _______ _____ _____    ______ ____
ROOT
ATOM      1  N   UNL     1       7.708   6.704  18.692  0.00  0.00    +0.000 N 
ATOM      2  C   UNL     1       7.843   7.891  18.025  0.00  0.00    +0.000 C 
ATOM      3  O   UNL     1       7.239   8.188  17.005  0.00  0.00    +0.000 OA
ATOM      4  N   UNL     1       8.744   8.720  18.638  0.00  0.00    +0.000 N 
ATOM      5  H   UNL     1       8.502   6.430  19.258  0.00  0.00    +0.000 HD
ATOM      6  H   UNL     1       8.825   8.628  19.643  0.00  0.00    +0.000 HD
ENDROOT
BRANCH   1   8
ATOM      7  C   UNL     1       7.684   4.535  17.560  0.00  0.00    +0.000 C 
ATOM      8  C   UNL     1       6.837   5.645  18.191  0.00  0.00    +0.000 C 
BRANCH   8   9
ATOM      9  C   UNL     1       5.944   5.050  19.299  0.00  0.00    +0.000 C 
BRANCH   9  10
ATOM     10  C   UNL     1       4.538   4.723  18.876  0.00  0.00    +0.000 A 
ATOM     11  C   UNL     1       3.713   5.672  18.269  0.00  0.00    +0.000 A 
ATOM     12  F   UNL     1       4.165   6.921  18.073  0.00  0.00    +0.000 F 
ATOM     13  C   UNL     1       2.428   5.351  17.830  0.00  0.00    +0.000 A 
ATOM     14  C   UNL     1       1.937   4.058  18.008  0.00  0.00    +0.000 A 
ATOM     15  C   UNL     1       2.735   3.100  18.634  0.00  0.00    +0.000 A 
ATOM     16  C   UNL     1       4.018   3.440  19.061  0.00  0.00    +0.000 A 
ATOM     17  F   UNL     1       4.771   2.497  19.647  0.00  0.00    +0.000 F 
ENDBRANCH   9  10
ENDBRANCH   8   9
ENDBRANCH   1   8
BRANCH   4  18
ATOM     18  C   UNL     1       8.911  10.057  18.122  0.00  0.00    +0.000 C 
BRANCH  18  19
ATOM     19  C   UNL     1       9.239  10.984  19.237  0.00  0.00    +0.000 A 
ATOM     20  N   UNL     1       9.484  10.669  20.497  0.00  0.00    +0.000 NA
ATOM     21  C   UNL     1       9.665  11.884  21.093  0.00  0.00    +0.000 A 
ATOM     22  N   UNL     1       9.550  12.938  20.285  0.00  0.00    +0.000 NA
ATOM     23  N   UNL     1       9.286  12.347  19.107  0.00  0.00    +0.000 N 
ATOM     24  C   UNL     1       9.069  13.143  17.926  0.00  0.00    +0.000 C 
ENDBRANCH  18  19
ENDBRANCH   4  18
TORSDOF 5
ENDMDL
MODEL 8
REMARK VINA RESULT:      -6.9      2.945      6.960
REMARK  Name = 
REMARK  7 active torsions:
REMARK  status: ('A' for Active; 'I' for Inactive)
REMARK    1  A    between atoms: C_1  and  C_2
REMARK    2  A    between atoms: C_2  and  C_3
REMARK    3  A    between atoms: C_2  and  N_12
REMARK    4  A    between atoms: C_3  and  C_4
REMARK    5  A    between atoms: N_15  and  C_16
REMARK    6  A    between atoms: C_16  and  C_17
REMARK    7  A    between atoms: N_21  and  C_22
REMARK                            x       y       z     vdW  Elec       q    Type
REMARK                         _______ _______ _______ _____ _____    ______ ____
ROOT
ATOM      1  N   UNL     1       5.853   5.763  18.094  0.00  0.00    +0.000 N 
ATOM      2  C   UNL     1       4.518   5.996  18.280  0.00  0.00    +0.000 C 
ATOM      3  O   UNL     1       3.794   6.571  17.482  0.00  0.00    +0.000 OA
ATOM      4  N   UNL     1       4.078   5.506  19.481  0.00  0.00    +0.000 N 
ATOM      5  H   UNL     1       6.396   5.644  18.939  0.00  0.00    +0.000 HD
ATOM      6  H   UNL     1       4.560   4.689  19.834  0.00  0.00    +0.000 HD
ENDROOT
BRANCH   1   8
ATOM      7  C   UNL     1       7.464   7.414  17.277  0.00  0.00    +0.000 C 
ATOM      8  C   UNL     1       6.549   6.242  16.904  0.00  0.00    +0.000 C 
BRANCH   8   9
ATOM      9  C   UNL     1       7.378   5.133  16.225  0.00  0.00    +0.000 C 
BRANCH   9  10
ATOM     10  C   UNL     1       6.874   4.697  14.876  0.00  0.00    +0.000 A 
ATOM     11  C   UNL     1       7.561   5.007  13.700  0.00  0.00    +0.000 A 
ATOM     12  F   UNL     1       8.687   5.734  13.757  0.00  0.00    +0.000 F 
ATOM     13  C   UNL     1       7.120   4.555  12.455  0.00  0.00    +0.000 A 
ATOM     14  C   UNL     1       5.960   3.786  12.367  0.00  0.00    +0.000 A 
ATOM     15  C   UNL     1       5.246   3.485  13.527  0.00  0.00    +0.000 A 
ATOM     16  C   UNL     1       5.706   3.941  14.761  0.00  0.00    +0.000 A 
ATOM     17  F   UNL     1       5.008   3.625  15.863  0.00  0.00    +0.000 F 
ENDBRANCH   9  10
ENDBRANCH   8   9
ENDBRANCH   1   8
BRANCH   4  18
ATOM     18  C   UNL     1       2.667   5.569  19.775  0.00  0.00    +0.000 C 
BRANCH  18  19
ATOM     19  C   UNL     1       2.031   4.267  19.443  0.00  0.00    +0.000 A 
ATOM     20  N   UNL     1       1.503   3.903  18.288  0.00  0.00    +0.000 NA
ATOM     21  C   UNL     1       1.016   2.654  18.546  0.00  0.00    +0.000 A 
ATOM     22  N   UNL     1       1.206   2.215  19.791  0.00  0.00    +0.000 NA
ATOM     23  N   UNL     1       1.859   3.251  20.345  0.00  0.00    +0.000 N 
ATOM     24  C   UNL     1       2.258   3.202  21.728  0.00  0.00    +0.000 C 
ENDBRANCH  18  19
ENDBRANCH   4  18
TORSDOF 5
ENDMDL
MODEL 9
REMARK VINA RESULT:      -6.8      1.993      2.711
REMARK  Name = 
REMARK  7 active torsions:
REMARK  status: ('A' for Active; 'I' for Inactive)
REMARK    1  A    between atoms: C_1  and  C_2
REMARK    2  A    between atoms: C_2  and  C_3
REMARK    3  A    between atoms: C_2  and  N_12
REMARK    4  A    between atoms: C_3  and  C_4
REMARK    5  A    between atoms: N_15  and  C_16
REMARK    6  A    between atoms: C_16  and  C_17
REMARK    7  A    between atoms: N_21  and  C_22
REMARK                            x       y       z     vdW  Elec       q    Type
REMARK                         _______ _______ _______ _____ _____    ______ ____
ROOT
ATOM      1  N   UNL     1       2.713   6.550  19.009  0.00  0.00    +0.000 N 
ATOM      2  C   UNL     1       4.051   6.465  18.739  0.00  0.00    +0.000 C 
ATOM      3  O   UNL     1       4.879   5.953  19.478  0.00  0.00    +0.000 OA
ATOM      4  N   UNL     1       4.364   7.029  17.532  0.00  0.00    +0.000 N 
ATOM      5  H   UNL     1       2.221   7.301  18.541  0.00  0.00    +0.000 HD
ATOM      6  H   UNL     1       3.644   6.991  16.820  0.00  0.00    +0.000 HD
ENDROOT
BRANCH   1   8
ATOM      7  C   UNL     1       1.267   7.135  20.895  0.00  0.00    +0.000 C 
ATOM      8  C   UNL     1       2.158   6.058  20.267  0.00  0.00    +0.000 C 
BRANCH   8   9
ATOM      9  C   UNL     1       1.349   4.759  20.080  0.00  0.00    +0.000 C 
BRANCH   9  10
ATOM     10  C   UNL     1       2.070   3.658  19.351  0.00  0.00    +0.000 A 
ATOM     11  C   UNL     1       1.942   3.484  17.971  0.00  0.00    +0.000 A 
ATOM     12  F   UNL     1       1.138   4.296  17.268  0.00  0.00    +0.000 F 
ATOM     13  C   UNL     1       2.654   2.495  17.290  0.00  0.00    +0.000 A 
ATOM     14  C   UNL     1       3.507   1.645  17.993  0.00  0.00    +0.000 A 
ATOM     15  C   UNL     1       3.632   1.787  19.374  0.00  0.00    +0.000 A 
ATOM     16  C   UNL     1       2.916   2.783  20.036  0.00  0.00    +0.000 A 
ATOM     17  F   UNL     1       3.065   2.907  21.364  0.00  0.00    +0.000 F 
ENDBRANCH   9  10
ENDBRANCH   8   9
ENDBRANCH   1   8
BRANCH   4  18
ATOM     18  C   UNL     1       5.719   6.916  17.049  0.00  0.00    +0.000 C 
BRANCH  18  19
ATOM     19  C   UNL     1       5.832   5.734  16.155  0.00  0.00    +0.000 A 
ATOM     20  N   UNL     1       5.159   5.501  15.042  0.00  0.00    +0.000 NA
ATOM     21  C   UNL     1       5.601   4.267  14.660  0.00  0.00    +0.000 A 
ATOM     22  N   UNL     1       6.509   3.714  15.465  0.00  0.00    +0.000 NA
ATOM     23  N   UNL     1       6.650   4.663  16.407  0.00  0.00    +0.000 N 
ATOM     24  C   UNL     1       7.552   4.464  17.511  0.00  0.00    +0.000 C 
ENDBRANCH  18  19
ENDBRANCH   4  18
TORSDOF 5
ENDMDL
