MODEL 1
REMARK VINA RESULT:      -8.2      0.000      0.000
REMARK  Name = 
REMARK  9 active torsions:
REMARK  status: ('A' for Active; 'I' for Inactive)
REMARK    1  A    between atoms: C_1  and  N_2
REMARK    2  A    between atoms: N_2  and  C_3
REMARK    3  A    between atoms: N_2  and  C_4
REMARK    4  A    between atoms: C_4  and  C_5
REMARK    5  A    between atoms: C_5  and  C_6
REMARK    6  A    between atoms: C_6  and  O_7
REMARK    7  A    between atoms: O_7  and  C_8
REMARK    8  A    between atoms: C_10  and  C_11
REMARK    9  A    between atoms: C_19  and  C_20
REMARK                            x       y       z     vdW  Elec       q    Type
REMARK                         _______ _______ _______ _____ _____    ______ ____
ROOT
ATOM      1  C   UNL     1       6.862   5.893  16.293  0.00  0.00    +0.000 A 
ATOM      2  N   UNL     1       5.996   5.660  17.295  0.00  0.00    +0.000 NA
ATOM      3  C   UNL     1       5.102   4.701  17.053  0.00  0.00    +0.000 A 
ATOM      4  N   UNL     1       4.958   4.007  15.919  0.00  0.00    +0.000 NA
ATOM      5  C   UNL     1       5.802   4.298  14.926  0.00  0.00    +0.000 A 
ATOM      6  C   UNL     1       5.668   3.625  13.718  0.00  0.00    +0.000 A 
ATOM      7  C   UNL     1       6.531   3.861  12.644  0.00  0.00    +0.000 A 
ATOM      8  C   UNL     1       7.562   4.782  12.776  0.00  0.00    +0.000 A 
ATOM      9  C   UNL     1       7.712   5.476  13.975  0.00  0.00    +0.000 A 
ATOM     10  C   UNL     1       6.822   5.248  15.053  0.00  0.00    +0.000 A 
ENDROOT
BRANCH   3  11
ATOM     11  C   UNL     1       4.223   4.348  18.150  0.00  0.00    +0.000 A 
ATOM     12  N   UNL     1       4.436   3.209  18.895  0.00  0.00    +0.000 N 
ATOM     13  C   UNL     1       3.485   3.078  19.877  0.00  0.00    +0.000 A 
ATOM     14  C   UNL     1       3.332   2.093  20.860  0.00  0.00    +0.000 A 
ATOM     15  C   UNL     1       2.233   2.199  21.719  0.00  0.00    +0.000 A 
ATOM     16  C   UNL     1       1.327   3.249  21.596  0.00  0.00    +0.000 A 
ATOM     17  C   UNL     1       1.503   4.229  20.614  0.00  0.00    +0.000 A 
ATOM     18  C   UNL     1       2.606   4.150  19.737  0.00  0.00    +0.000 A 
ATOM     19  C   UNL     1       3.077   4.956  18.650  0.00  0.00    +0.000 A 
ATOM     20  H   UNL     1       5.196   2.563  18.733  0.00  0.00    +0.000 HD
BRANCH  19  21
ATOM     21  C   UNL     1       2.472   6.170  18.125  0.00  0.00    +0.000 C 
ATOM     22  O   UNL     1       2.250   7.175  18.801  0.00  0.00    +0.000 OA
ENDBRANCH  19  21
ENDBRANCH   3  11
BRANCH   1  23
ATOM     23  O   UNL     1       7.819   6.876  16.484  0.00  0.00    +0.000 OA
BRANCH  23  24
ATOM     24  C   UNL     1       7.794   7.412  17.815  0.00  0.00    +0.000 C 
BRANCH  24  25
ATOM     25  C   UNL     1       8.060   8.913  17.729  0.00  0.00    +0.000 C 
BRANCH  25  26
ATOM     26  C   UNL     1       8.952   9.429  18.865  0.00  0.00    +0.000 C 
BRANCH  26  28
ATOM     27  C   UNL     1       9.506  11.384  20.214  0.00  0.00    +0.000 C 
ATOM     28  N   UNL     1       9.124  10.892  18.888  0.00  0.00    +0.000 NA
ATOM     29  C   UNL     1      10.133  11.298  17.904  0.00  0.00    +0.000 C 
ENDBRANCH  26  28
ENDBRANCH  25  26
ENDBRANCH  24  25
ENDBRANCH  23  24
ENDBRANCH   1  23
TORSDOF 7
ENDMDL
MODEL 2
REMARK VINA RESULT:      -8.1      2.504      7.140
REMARK  Name = 
REMARK  9 active torsions:
REMARK  status: ('A' for Active; 'I' for Inactive)
REMARK    1  A    between atoms: C_1  and  N_2
REMARK    2  A    between atoms: N_2  and  C_3
REMARK    3  A    between atoms: N_2  and  C_4
REMARK    4  A    between atoms: C_4  and  C_5
REMARK    5  A    between atoms: C_5  and  C_6
REMARK    6  A    between atoms: C_6  and  O_7
REMARK    7  A    between atoms: O_7  and  C_8
REMARK    8  A    between atoms: C_10  and  C_11
REMARK    9  A    between atoms: C_19  and  C_20
REMARK                            x       y       z     vdW  Elec       q    Type
REMARK                         _______ _______ _______ _____ _____    ______ ____
ROOT
ATOM      1  C   UNL     1       3.072   6.081  18.906  0.00  0.00    +0.000 A 
ATOM      2  N   UNL     1       3.864   6.086  17.819  0.00  0.00    +0.000 NA
ATOM      3  C   UNL     1       4.429   4.914  17.530  0.00  0.00    +0.000 A 
ATOM      4  N   UNL     1       4.326   3.780  18.233  0.00  0.00    +0.000 NA
ATOM      5  C   UNL     1       3.573   3.822  19.335  0.00  0.00    +0.000 A 
ATOM      6  C   UNL     1       3.463   2.677  20.113  0.00  0.00    +0.000 A 
ATOM      7  C   UNL     1       2.673   2.641  21.265  0.00  0.00    +0.000 A 
ATOM      8  C   UNL     1       1.962   3.771  21.649  0.00  0.00    +0.000 A 
ATOM      9  C   UNL     1       2.062   4.935  20.890  0.00  0.00    +0.000 A 
ATOM     10  C   UNL     1       2.881   4.971  19.735  0.00  0.00    +0.000 A 
ENDROOT
BRANCH   3  11
ATOM     11  C   UNL     1       5.201   4.855  16.305  0.00  0.00    +0.000 A 
ATOM     12  N   UNL     1       4.784   4.091  15.238  0.00  0.00    +0.000 N 
ATOM     13  C   UNL     1       5.667   4.187  14.190  0.00  0.00    +0.000 A 
ATOM     14  C   UNL     1       5.627   3.601  12.919  0.00  0.00    +0.000 A 
ATOM     15  C   UNL     1       6.697   3.854  12.055  0.00  0.00    +0.000 A 
ATOM     16  C   UNL     1       7.761   4.661  12.449  0.00  0.00    +0.000 A 
ATOM     17  C   UNL     1       7.777   5.247  13.719  0.00  0.00    +0.000 A 
ATOM     18  C   UNL     1       6.707   5.013  14.609  0.00  0.00    +0.000 A 
ATOM     19  C   UNL     1       6.409   5.440  15.945  0.00  0.00    +0.000 A 
ATOM     20  H   UNL     1       3.938   3.538  15.236  0.00  0.00    +0.000 HD
BRANCH  19  21
ATOM     21  C   UNL     1       7.216   6.298  16.798  0.00  0.00    +0.000 C 
ATOM     22  O   UNL     1       7.133   7.527  16.813  0.00  0.00    +0.000 OA
ENDBRANCH  19  21
ENDBRANCH   3  11
BRANCH   1  23
ATOM     23  O   UNL     1       2.452   7.269  19.257  0.00  0.00    +0.000 OA
BRANCH  23  24
ATOM     24  C   UNL     1       2.594   8.280  18.248  0.00  0.00    +0.000 C 
BRANCH  24  25
ATOM     25  C   UNL     1       1.245   8.974  18.076  0.00  0.00    +0.000 C 
BRANCH  25  26
ATOM     26  C   UNL     1       1.240  10.411  18.614  0.00  0.00    +0.000 C 
BRANCH  26  28
ATOM     27  C   UNL     1       1.033  11.904  20.531  0.00  0.00    +0.000 C 
ATOM     28  N   UNL     1       0.954  10.521  20.055  0.00  0.00    +0.000 NA
ATOM     29  C   UNL     1      -0.374   9.974  20.350  0.00  0.00    +0.000 C 
ENDBRANCH  26  28
ENDBRANCH  25  26
ENDBRANCH  24  25
ENDBRANCH  23  24
ENDBRANCH   1  23
TORSDOF 7
ENDMDL
MODEL 3
REMARK VINA RESULT:      -7.9      3.427      5.822
REMARK  Name = 
REMARK  9 active torsions:
REMARK  status: ('A' for Active; 'I' for Inactive)
REMARK    1  A    between atoms: C_1  and  N_2
REMARK    2  A    between atoms: N_2  and  C_3
REMARK    3  A    between atoms: N_2  and  C_4
REMARK    4  A    between atoms: C_4  and  C_5
REMARK    5  A    between atoms: C_5  and  C_6
REMARK    6  A    between atoms: C_6  and  O_7
REMARK    7  A    between atoms: O_7  and  C_8
REMARK    8  A    between atoms: C_10  and  C_11
REMARK    9  A    between atoms: C_19  and  C_20
REMARK                            x       y       z     vdW  Elec       q    Type
REMARK                         _______ _______ _______ _____ _____    ______ ____
ROOT
ATOM      1  C   UNL     1       4.515   4.862  19.547  0.00  0.00    +0.000 A 
ATOM      2  N   UNL     1       3.960   6.054  19.830  0.00  0.00    +0.000 NA
ATOM      3  C   UNL     1       2.654   6.140  19.579  0.00  0.00    +0.000 A 
ATOM      4  N   UNL     1       1.878   5.195  19.037  0.00  0.00    +0.000 NA
ATOM      5  C   UNL     1       2.470   4.040  18.722  0.00  0.00    +0.000 A 
ATOM      6  C   UNL     1       1.710   3.041  18.128  0.00  0.00    +0.000 A 
ATOM      7  C   UNL     1       2.256   1.799  17.793  0.00  0.00    +0.000 A 
ATOM      8  C   UNL     1       3.593   1.538  18.066  0.00  0.00    +0.000 A 
ATOM      9  C   UNL     1       4.379   2.526  18.654  0.00  0.00    +0.000 A 
ATOM     10  C   UNL     1       3.824   3.790  18.972  0.00  0.00    +0.000 A 
ENDROOT
BRANCH   3  11
ATOM     11  C   UNL     1       2.002   7.373  19.973  0.00  0.00    +0.000 A 
ATOM     12  N   UNL     1       1.444   7.515  21.224  0.00  0.00    +0.000 N 
ATOM     13  C   UNL     1       0.886   8.760  21.375  0.00  0.00    +0.000 A 
ATOM     14  C   UNL     1       0.237   9.332  22.477  0.00  0.00    +0.000 A 
ATOM     15  C   UNL     1      -0.268  10.628  22.331  0.00  0.00    +0.000 A 
ATOM     16  C   UNL     1      -0.128  11.321  21.132  0.00  0.00    +0.000 A 
ATOM     17  C   UNL     1       0.533  10.737  20.046  0.00  0.00    +0.000 A 
ATOM     18  C   UNL     1       1.058   9.433  20.167  0.00  0.00    +0.000 A 
ATOM     19  C   UNL     1       1.769   8.557  19.283  0.00  0.00    +0.000 A 
ATOM     20  H   UNL     1       1.452   6.792  21.930  0.00  0.00    +0.000 HD
BRANCH  19  21
ATOM     21  C   UNL     1       2.159   8.820  17.906  0.00  0.00    +0.000 C 
ATOM     22  O   UNL     1       2.065   9.921  17.364  0.00  0.00    +0.000 OA
ENDBRANCH  19  21
ENDBRANCH   3  11
BRANCH   1  23
ATOM     23  O   UNL     1       5.870   4.707  19.790  0.00  0.00    +0.000 OA
BRANCH  23  24
ATOM     24  C   UNL     1       6.667   5.656  19.066  0.00  0.00    +0.000 C 
BRANCH  24  25
ATOM     25  C   UNL     1       7.136   4.996  17.772  0.00  0.00    +0.000 C 
BRANCH  25  26
ATOM     26  C   UNL     1       7.109   5.950  16.571  0.00  0.00    +0.000 C 
BRANCH  26  28
ATOM     27  C   UNL     1       5.439   4.444  15.628  0.00  0.00    +0.000 C 
ATOM     28  N   UNL     1       5.912   5.827  15.722  0.00  0.00    +0.000 NA
ATOM     29  C   UNL     1       4.836   6.680  16.239  0.00  0.00    +0.000 C 
ENDBRANCH  26  28
ENDBRANCH  25  26
ENDBRANCH  24  25
ENDBRANCH  23  24
ENDBRANCH   1  23
TORSDOF 7
ENDMDL
MODEL 4
REMARK VINA RESULT:      -7.8      3.508      6.237
REMARK  Name = 
REMARK  9 active torsions:
REMARK  status: ('A' for Active; 'I' for Inactive)
REMARK    1  A    between atoms: C_1  and  N_2
REMARK    2  A    between atoms: N_2  and  C_3
REMARK    3  A    between atoms: N_2  and  C_4
REMARK    4  A    between atoms: C_4  and  C_5
REMARK    5  A    between atoms: C_5  and  C_6
REMARK    6  A    between atoms: C_6  and  O_7
REMARK    7  A    between atoms: O_7  and  C_8
REMARK    8  A    between atoms: C_10  and  C_11
REMARK    9  A    between atoms: C_19  and  C_20
REMARK                            x       y       z     vdW  Elec       q    Type
REMARK                         _______ _______ _______ _____ _____    ______ ____
ROOT
ATOM      1  C   UNL     1       4.642   4.654  18.906  0.00  0.00    +0.000 A 
ATOM      2  N   UNL     1       3.843   5.519  19.554  0.00  0.00    +0.000 NA
ATOM      3  C   UNL     1       3.450   6.569  18.834  0.00  0.00    +0.000 A 
ATOM      4  N   UNL     1       3.811   6.861  17.579  0.00  0.00    +0.000 NA
ATOM      5  C   UNL     1       4.645   6.007  16.981  0.00  0.00    +0.000 A 
ATOM      6  C   UNL     1       5.072   6.287  15.689  0.00  0.00    +0.000 A 
ATOM      7  C   UNL     1       5.926   5.426  14.992  0.00  0.00    +0.000 A 
ATOM      8  C   UNL     1       6.358   4.250  15.591  0.00  0.00    +0.000 A 
ATOM      9  C   UNL     1       5.951   3.951  16.890  0.00  0.00    +0.000 A 
ATOM     10  C   UNL     1       5.103   4.837  17.598  0.00  0.00    +0.000 A 
ENDROOT
BRANCH   3  11
ATOM     11  C   UNL     1       2.501   7.465  19.465  0.00  0.00    +0.000 A 
ATOM     12  N   UNL     1       2.062   7.245  20.751  0.00  0.00    +0.000 N 
ATOM     13  C   UNL     1       1.172   8.217  21.140  0.00  0.00    +0.000 A 
ATOM     14  C   UNL     1       0.502   8.393  22.358  0.00  0.00    +0.000 A 
ATOM     15  C   UNL     1      -0.384   9.470  22.459  0.00  0.00    +0.000 A 
ATOM     16  C   UNL     1      -0.588  10.333  21.387  0.00  0.00    +0.000 A 
ATOM     17  C   UNL     1       0.099  10.147  20.183  0.00  0.00    +0.000 A 
ATOM     18  C   UNL     1       1.003   9.072  20.054  0.00  0.00    +0.000 A 
ATOM     19  C   UNL     1       1.849   8.600  18.997  0.00  0.00    +0.000 A 
ATOM     20  H   UNL     1       2.363   6.470  21.326  0.00  0.00    +0.000 HD
BRANCH  19  21
ATOM     21  C   UNL     1       1.992   9.163  17.663  0.00  0.00    +0.000 C 
ATOM     22  O   UNL     1       2.251  10.347  17.442  0.00  0.00    +0.000 OA
ENDBRANCH  19  21
ENDBRANCH   3  11
BRANCH   1  23
ATOM     23  O   UNL     1       5.082   3.538  19.599  0.00  0.00    +0.000 OA
BRANCH  23  24
ATOM     24  C   UNL     1       3.998   2.748  20.108  0.00  0.00    +0.000 C 
BRANCH  24  25
ATOM     25  C   UNL     1       3.267   2.121  18.923  0.00  0.00    +0.000 C 
BRANCH  25  26
ATOM     26  C   UNL     1       1.787   1.842  19.212  0.00  0.00    +0.000 C 
BRANCH  26  28
ATOM     27  C   UNL     1       0.801   3.863  20.156  0.00  0.00    +0.000 C 
ATOM     28  N   UNL     1       0.895   2.991  18.982  0.00  0.00    +0.000 NA
ATOM     29  C   UNL     1       1.358   3.768  17.829  0.00  0.00    +0.000 C 
ENDBRANCH  26  28
ENDBRANCH  25  26
ENDBRANCH  24  25
ENDBRANCH  23  24
ENDBRANCH   1  23
TORSDOF 7
ENDMDL
MODEL 5
REMARK VINA RESULT:      -7.8      1.306      1.530
REMARK  Name = 
REMARK  9 active torsions:
REMARK  status: ('A' for Active; 'I' for Inactive)
REMARK    1  A    between atoms: C_1  and  N_2
REMARK    2  A    between atoms: N_2  and  C_3
REMARK    3  A    between atoms: N_2  and  C_4
REMARK    4  A    between atoms: C_4  and  C_5
REMARK    5  A    between atoms: C_5  and  C_6
REMARK    6  A    between atoms: C_6  and  O_7
REMARK    7  A    between atoms: O_7  and  C_8
REMARK    8  A    between atoms: C_10  and  C_11
REMARK    9  A    between atoms: C_19  and  C_20
REMARK                            x       y       z     vdW  Elec       q    Type
REMARK                         _______ _______ _______ _____ _____    ______ ____
ROOT
ATOM      1  C   UNL     1       6.822   5.754  15.910  0.00  0.00    +0.000 A 
ATOM      2  N   UNL     1       5.901   5.490  16.854  0.00  0.00    +0.000 NA
ATOM      3  C   UNL     1       5.018   4.546  16.529  0.00  0.00    +0.000 A 
ATOM      4  N   UNL     1       4.935   3.893  15.364  0.00  0.00    +0.000 NA
ATOM      5  C   UNL     1       5.834   4.214  14.431  0.00  0.00    +0.000 A 
ATOM      6  C   UNL     1       5.765   3.585  13.194  0.00  0.00    +0.000 A 
ATOM      7  C   UNL     1       6.687   3.852  12.179  0.00  0.00    +0.000 A 
ATOM      8  C   UNL     1       7.713   4.762  12.401  0.00  0.00    +0.000 A 
ATOM      9  C   UNL     1       7.799   5.413  13.630  0.00  0.00    +0.000 A 
ATOM     10  C   UNL     1       6.849   5.153  14.648  0.00  0.00    +0.000 A 
ENDROOT
BRANCH   3  11
ATOM     11  C   UNL     1       4.078   4.160  17.563  0.00  0.00    +0.000 A 
ATOM     12  N   UNL     1       2.946   3.437  17.260  0.00  0.00    +0.000 N 
ATOM     13  C   UNL     1       2.207   3.184  18.390  0.00  0.00    +0.000 A 
ATOM     14  C   UNL     1       1.009   2.476  18.547  0.00  0.00    +0.000 A 
ATOM     15  C   UNL     1       0.460   2.408  19.831  0.00  0.00    +0.000 A 
ATOM     16  C   UNL     1       1.085   3.024  20.911  0.00  0.00    +0.000 A 
ATOM     17  C   UNL     1       2.287   3.718  20.737  0.00  0.00    +0.000 A 
ATOM     18  C   UNL     1       2.867   3.798  19.453  0.00  0.00    +0.000 A 
ATOM     19  C   UNL     1       4.054   4.409  18.930  0.00  0.00    +0.000 A 
ATOM     20  H   UNL     1       2.702   3.135  16.328  0.00  0.00    +0.000 HD
BRANCH  19  21
ATOM     21  C   UNL     1       5.046   5.179  19.664  0.00  0.00    +0.000 C 
ATOM     22  O   UNL     1       6.197   4.794  19.872  0.00  0.00    +0.000 OA
ENDBRANCH  19  21
ENDBRANCH   3  11
BRANCH   1  23
ATOM     23  O   UNL     1       7.771   6.724  16.188  0.00  0.00    +0.000 OA
BRANCH  23  24
ATOM     24  C   UNL     1       7.682   7.205  17.538  0.00  0.00    +0.000 C 
BRANCH  24  25
ATOM     25  C   UNL     1       8.021   8.694  17.535  0.00  0.00    +0.000 C 
BRANCH  25  26
ATOM     26  C   UNL     1       8.857   9.119  18.749  0.00  0.00    +0.000 C 
BRANCH  26  28
ATOM     27  C   UNL     1       9.405  10.918  20.302  0.00  0.00    +0.000 C 
ATOM     28  N   UNL     1       8.928  10.575  18.960  0.00  0.00    +0.000 NA
ATOM     29  C   UNL     1       9.803  11.189  17.956  0.00  0.00    +0.000 C 
ENDBRANCH  26  28
ENDBRANCH  25  26
ENDBRANCH  24  25
ENDBRANCH  23  24
ENDBRANCH   1  23
TORSDOF 7
ENDMDL
MODEL 6
REMARK VINA RESULT:      -7.8      4.072      6.769
REMARK  Name = 
REMARK  9 active torsions:
REMARK  status: ('A' for Active; 'I' for Inactive)
REMARK    1  A    between atoms: C_1  and  N_2
REMARK    2  A    between atoms: N_2  and  C_3
REMARK    3  A    between atoms: N_2  and  C_4
REMARK    4  A    between atoms: C_4  and  C_5
REMARK    5  A    between atoms: C_5  and  C_6
REMARK    6  A    between atoms: C_6  and  O_7
REMARK    7  A    between atoms: O_7  and  C_8
REMARK    8  A    between atoms: C_10  and  C_11
REMARK    9  A    between atoms: C_19  and  C_20
REMARK                            x       y       z     vdW  Elec       q    Type
REMARK                         _______ _______ _______ _____ _____    ______ ____
ROOT
ATOM      1  C   UNL     1       3.476   6.056  19.250  0.00  0.00    +0.000 A 
ATOM      2  N   UNL     1       2.796   7.194  19.475  0.00  0.00    +0.000 NA
ATOM      3  C   UNL     1       1.808   7.092  20.364  0.00  0.00    +0.000 A 
ATOM      4  N   UNL     1       1.409   5.981  20.995  0.00  0.00    +0.000 NA
ATOM      5  C   UNL     1       2.073   4.858  20.712  0.00  0.00    +0.000 A 
ATOM      6  C   UNL     1       1.673   3.675  21.319  0.00  0.00    +0.000 A 
ATOM      7  C   UNL     1       2.337   2.467  21.089  0.00  0.00    +0.000 A 
ATOM      8  C   UNL     1       3.437   2.435  20.241  0.00  0.00    +0.000 A 
ATOM      9  C   UNL     1       3.853   3.607  19.612  0.00  0.00    +0.000 A 
ATOM     10  C   UNL     1       3.163   4.824  19.834  0.00  0.00    +0.000 A 
ENDROOT
BRANCH   3  11
ATOM     11  C   UNL     1       1.124   8.321  20.712  0.00  0.00    +0.000 A 
ATOM     12  N   UNL     1       0.510   8.472  21.935  0.00  0.00    +0.000 N 
ATOM     13  C   UNL     1      -0.070   9.712  22.044  0.00  0.00    +0.000 A 
ATOM     14  C   UNL     1      -0.774  10.290  23.109  0.00  0.00    +0.000 A 
ATOM     15  C   UNL     1      -1.288  11.577  22.923  0.00  0.00    +0.000 A 
ATOM     16  C   UNL     1      -1.104  12.256  21.722  0.00  0.00    +0.000 A 
ATOM     17  C   UNL     1      -0.388  11.667  20.674  0.00  0.00    +0.000 A 
ATOM     18  C   UNL     1       0.147  10.371  20.836  0.00  0.00    +0.000 A 
ATOM     19  C   UNL     1       0.908   9.493  19.996  0.00  0.00    +0.000 A 
ATOM     20  H   UNL     1       0.495   7.759  22.651  0.00  0.00    +0.000 HD
BRANCH  19  21
ATOM     21  C   UNL     1       1.355   9.743  18.635  0.00  0.00    +0.000 C 
ATOM     22  O   UNL     1       0.780   9.315  17.633  0.00  0.00    +0.000 OA
ENDBRANCH  19  21
ENDBRANCH   3  11
BRANCH   1  23
ATOM     23  O   UNL     1       4.518   6.097  18.339  0.00  0.00    +0.000 OA
BRANCH  23  24
ATOM     24  C   UNL     1       4.173   6.815  17.145  0.00  0.00    +0.000 C 
BRANCH  24  25
ATOM     25  C   UNL     1       5.287   6.605  16.123  0.00  0.00    +0.000 C 
BRANCH  25  26
ATOM     26  C   UNL     1       6.683   6.581  16.757  0.00  0.00    +0.000 C 
BRANCH  26  28
ATOM     27  C   UNL     1       7.651   4.561  17.722  0.00  0.00    +0.000 C 
ATOM     28  N   UNL     1       7.447   5.348  16.503  0.00  0.00    +0.000 NA
ATOM     29  C   UNL     1       6.762   4.527  15.499  0.00  0.00    +0.000 C 
ENDBRANCH  26  28
ENDBRANCH  25  26
ENDBRANCH  24  25
ENDBRANCH  23  24
ENDBRANCH   1  23
TORSDOF 7
ENDMDL
MODEL 7
REMARK VINA RESULT:      -7.8      3.438      6.234
REMARK  Name = 
REMARK  9 active torsions:
REMARK  status: ('A' for Active; 'I' for Inactive)
REMARK    1  A    between atoms: C_1  and  N_2
REMARK    2  A    between atoms: N_2  and  C_3
REMARK    3  A    between atoms: N_2  and  C_4
REMARK    4  A    between atoms: C_4  and  C_5
REMARK    5  A    between atoms: C_5  and  C_6
REMARK    6  A    between atoms: C_6  and  O_7
REMARK    7  A    between atoms: O_7  and  C_8
REMARK    8  A    between atoms: C_10  and  C_11
REMARK    9  A    between atoms: C_19  and  C_20
REMARK                            x       y       z     vdW  Elec       q    Type
REMARK                         _______ _______ _______ _____ _____    ______ ____
ROOT
ATOM      1  C   UNL     1       4.391   5.161  19.199  0.00  0.00    +0.000 A 
ATOM      2  N   UNL     1       3.802   6.333  19.495  0.00  0.00    +0.000 NA
ATOM      3  C   UNL     1       2.478   6.275  19.642  0.00  0.00    +0.000 A 
ATOM      4  N   UNL     1       1.699   5.200  19.474  0.00  0.00    +0.000 NA
ATOM      5  C   UNL     1       2.310   4.063  19.132  0.00  0.00    +0.000 A 
ATOM      6  C   UNL     1       1.538   2.929  18.916  0.00  0.00    +0.000 A 
ATOM      7  C   UNL     1       2.111   1.700  18.579  0.00  0.00    +0.000 A 
ATOM      8  C   UNL     1       3.492   1.591  18.465  0.00  0.00    +0.000 A 
ATOM      9  C   UNL     1       4.288   2.716  18.668  0.00  0.00    +0.000 A 
ATOM     10  C   UNL     1       3.699   3.964  18.989  0.00  0.00    +0.000 A 
ENDROOT
BRANCH   3  11
ATOM     11  C   UNL     1       1.823   7.496  20.067  0.00  0.00    +0.000 A 
ATOM     12  N   UNL     1       1.413   7.666  21.370  0.00  0.00    +0.000 N 
ATOM     13  C   UNL     1       0.820   8.893  21.543  0.00  0.00    +0.000 A 
ATOM     14  C   UNL     1       0.282   9.483  22.694  0.00  0.00    +0.000 A 
ATOM     15  C   UNL     1      -0.294  10.750  22.564  0.00  0.00    +0.000 A 
ATOM     16  C   UNL     1      -0.330  11.398  21.333  0.00  0.00    +0.000 A 
ATOM     17  C   UNL     1       0.223  10.798  20.196  0.00  0.00    +0.000 A 
ATOM     18  C   UNL     1       0.816   9.522  20.300  0.00  0.00    +0.000 A 
ATOM     19  C   UNL     1       1.456   8.640  19.368  0.00  0.00    +0.000 A 
ATOM     20  H   UNL     1       1.537   6.974  22.096  0.00  0.00    +0.000 HD
BRANCH  19  21
ATOM     21  C   UNL     1       1.667   8.862  17.946  0.00  0.00    +0.000 C 
ATOM     22  O   UNL     1       2.332   9.790  17.486  0.00  0.00    +0.000 OA
ENDBRANCH  19  21
ENDBRANCH   3  11
BRANCH   1  23
ATOM     23  O   UNL     1       5.767   5.153  19.038  0.00  0.00    +0.000 OA
BRANCH  23  24
ATOM     24  C   UNL     1       6.184   5.880  17.872  0.00  0.00    +0.000 C 
BRANCH  24  25
ATOM     25  C   UNL     1       6.787   4.886  16.882  0.00  0.00    +0.000 C 
BRANCH  25  26
ATOM     26  C   UNL     1       5.808   4.479  15.773  0.00  0.00    +0.000 C 
BRANCH  26  28
ATOM     27  C   UNL     1       5.477   3.754  13.468  0.00  0.00    +0.000 C 
ATOM     28  N   UNL     1       6.452   4.041  14.523  0.00  0.00    +0.000 NA
ATOM     29  C   UNL     1       7.395   5.062  14.055  0.00  0.00    +0.000 C 
ENDBRANCH  26  28
ENDBRANCH  25  26
ENDBRANCH  24  25
ENDBRANCH  23  24
ENDBRANCH   1  23
TORSDOF 7
ENDMDL
MODEL 8
REMARK VINA RESULT:      -7.8      2.713      7.352
REMARK  Name = 
REMARK  9 active torsions:
REMARK  status: ('A' for Active; 'I' for Inactive)
REMARK    1  A    between atoms: C_1  and  N_2
REMARK    2  A    between atoms: N_2  and  C_3
REMARK    3  A    between atoms: N_2  and  C_4
REMARK    4  A    between atoms: C_4  and  C_5
REMARK    5  A    between atoms: C_5  and  C_6
REMARK    6  A    between atoms: C_6  and  O_7
REMARK    7  A    between atoms: O_7  and  C_8
REMARK    8  A    between atoms: C_10  and  C_11
REMARK    9  A    between atoms: C_19  and  C_20
REMARK                            x       y       z     vdW  Elec       q    Type
REMARK                         _______ _______ _______ _____ _____    ______ ____
ROOT
ATOM      1  C   UNL     1       2.602   5.615  18.750  0.00  0.00    +0.000 A 
ATOM      2  N   UNL     1       3.418   5.722  17.687  0.00  0.00    +0.000 NA
ATOM      3  C   UNL     1       4.261   4.702  17.520  0.00  0.00    +0.000 A 
ATOM      4  N   UNL     1       4.401   3.640  18.321  0.00  0.00    +0.000 NA
ATOM      5  C   UNL     1       3.610   3.588  19.395  0.00  0.00    +0.000 A 
ATOM      6  C   UNL     1       3.743   2.519  20.272  0.00  0.00    +0.000 A 
ATOM      7  C   UNL     1       2.932   2.387  21.402  0.00  0.00    +0.000 A 
ATOM      8  C   UNL     1       1.954   3.339  21.664  0.00  0.00    +0.000 A 
ATOM      9  C   UNL     1       1.806   4.426  20.805  0.00  0.00    +0.000 A 
ATOM     10  C   UNL     1       2.645   4.564  19.672  0.00  0.00    +0.000 A 
ENDROOT
BRANCH   3  11
ATOM     11  C   UNL     1       5.080   4.732  16.325  0.00  0.00    +0.000 A 
ATOM     12  N   UNL     1       4.756   3.974  15.222  0.00  0.00    +0.000 N 
ATOM     13  C   UNL     1       5.668   4.160  14.212  0.00  0.00    +0.000 A 
ATOM     14  C   UNL     1       5.716   3.610  12.925  0.00  0.00    +0.000 A 
ATOM     15  C   UNL     1       6.798   3.960  12.110  0.00  0.00    +0.000 A 
ATOM     16  C   UNL     1       7.788   4.825  12.567  0.00  0.00    +0.000 A 
ATOM     17  C   UNL     1       7.717   5.373  13.853  0.00  0.00    +0.000 A 
ATOM     18  C   UNL     1       6.634   5.041  14.694  0.00  0.00    +0.000 A 
ATOM     19  C   UNL     1       6.258   5.408  16.028  0.00  0.00    +0.000 A 
ATOM     20  H   UNL     1       3.951   3.365  15.172  0.00  0.00    +0.000 HD
BRANCH  19  21
ATOM     21  C   UNL     1       6.972   6.292  16.935  0.00  0.00    +0.000 C 
ATOM     22  O   UNL     1       6.876   7.520  16.915  0.00  0.00    +0.000 OA
ENDBRANCH  19  21
ENDBRANCH   3  11
BRANCH   1  23
ATOM     23  O   UNL     1       1.699   6.641  18.976  0.00  0.00    +0.000 OA
BRANCH  23  24
ATOM     24  C   UNL     1       2.217   7.637  19.870  0.00  0.00    +0.000 C 
BRANCH  24  25
ATOM     25  C   UNL     1       1.067   8.139  20.741  0.00  0.00    +0.000 C 
BRANCH  25  26
ATOM     26  C   UNL     1       1.544   8.952  21.951  0.00  0.00    +0.000 C 
BRANCH  26  28
ATOM     27  C   UNL     1       0.203  10.793  21.080  0.00  0.00    +0.000 C 
ATOM     28  N   UNL     1       0.696  10.110  22.279  0.00  0.00    +0.000 NA
ATOM     29  C   UNL     1      -0.440   9.688  23.105  0.00  0.00    +0.000 C 
ENDBRANCH  26  28
ENDBRANCH  25  26
ENDBRANCH  24  25
ENDBRANCH  23  24
ENDBRANCH   1  23
TORSDOF 7
ENDMDL
MODEL 9
REMARK VINA RESULT:      -7.7      3.324      6.550
REMARK  Name = 
REMARK  9 active torsions:
REMARK  status: ('A' for Active; 'I' for Inactive)
REMARK    1  A    between atoms: C_1  and  N_2
REMARK    2  A    between atoms: N_2  and  C_3
REMARK    3  A    between atoms: N_2  and  C_4
REMARK    4  A    between atoms: C_4  and  C_5
REMARK    5  A    between atoms: C_5  and  C_6
REMARK    6  A    between atoms: C_6  and  O_7
REMARK    7  A    between atoms: O_7  and  C_8
REMARK    8  A    between atoms: C_10  and  C_11
REMARK    9  A    between atoms: C_19  and  C_20
REMARK                            x       y       z     vdW  Elec       q    Type
REMARK                         _______ _______ _______ _____ _____    ______ ____
ROOT
ATOM      1  C   UNL     1       2.797   4.760  17.488  0.00  0.00    +0.000 A 
ATOM      2  N   UNL     1       2.123   5.616  18.277  0.00  0.00    +0.000 NA
ATOM      3  C   UNL     1       2.802   6.707  18.630  0.00  0.00    +0.000 A 
ATOM      4  N   UNL     1       4.072   6.996  18.324  0.00  0.00    +0.000 NA
ATOM      5  C   UNL     1       4.728   6.101  17.580  0.00  0.00    +0.000 A 
ATOM      6  C   UNL     1       6.059   6.344  17.265  0.00  0.00    +0.000 A 
ATOM      7  C   UNL     1       6.800   5.464  16.471  0.00  0.00    +0.000 A 
ATOM      8  C   UNL     1       6.200   4.317  15.967  0.00  0.00    +0.000 A 
ATOM      9  C   UNL     1       4.869   4.047  16.276  0.00  0.00    +0.000 A 
ATOM     10  C   UNL     1       4.129   4.932  17.098  0.00  0.00    +0.000 A 
ENDROOT
BRANCH   3  11
ATOM     11  C   UNL     1       2.071   7.703  19.389  0.00  0.00    +0.000 A 
ATOM     12  N   UNL     1       1.733   7.486  20.706  0.00  0.00    +0.000 N 
ATOM     13  C   UNL     1       1.049   8.559  21.221  0.00  0.00    +0.000 A 
ATOM     14  C   UNL     1       0.538   8.771  22.508  0.00  0.00    +0.000 A 
ATOM     15  C   UNL     1      -0.154   9.964  22.742  0.00  0.00    +0.000 A 
ATOM     16  C   UNL     1      -0.326  10.903  21.729  0.00  0.00    +0.000 A 
ATOM     17  C   UNL     1       0.202  10.678  20.453  0.00  0.00    +0.000 A 
ATOM     18  C   UNL     1       0.909   9.486  20.191  0.00  0.00    +0.000 A 
ATOM     19  C   UNL     1       1.562   8.946  19.034  0.00  0.00    +0.000 A 
ATOM     20  H   UNL     1       1.964   6.645  21.217  0.00  0.00    +0.000 HD
BRANCH  19  21
ATOM     21  C   UNL     1       1.659   9.550  17.714  0.00  0.00    +0.000 C 
ATOM     22  O   UNL     1       2.346  10.541  17.461  0.00  0.00    +0.000 OA
ENDBRANCH  19  21
ENDBRANCH   3  11
BRANCH   1  23
ATOM     23  O   UNL     1       2.145   3.606  17.084  0.00  0.00    +0.000 OA
BRANCH  23  24
ATOM     24  C   UNL     1       2.281   2.539  18.034  0.00  0.00    +0.000 C 
BRANCH  24  25
ATOM     25  C   UNL     1       0.950   2.378  18.764  0.00  0.00    +0.000 C 
BRANCH  25  26
ATOM     26  C   UNL     1       1.068   2.590  20.278  0.00  0.00    +0.000 C 
BRANCH  26  28
ATOM     27  C   UNL     1       2.272   4.333  21.486  0.00  0.00    +0.000 C 
ATOM     28  N   UNL     1       2.381   3.088  20.723  0.00  0.00    +0.000 NA
ATOM     29  C   UNL     1       3.059   2.072  21.534  0.00  0.00    +0.000 C 
ENDBRANCH  26  28
ENDBRANCH  25  26
ENDBRANCH  24  25
ENDBRANCH  23  24
ENDBRANCH   1  23
TORSDOF 7
ENDMDL
