MODEL 1
REMARK VINA RESULT:      -7.3      0.000      0.000
REMARK  Name = 
REMARK  3 active torsions:
REMARK  status: ('A' for Active; 'I' for Inactive)
REMARK    1  A    between atoms: O_1  and  C_2
REMARK    2  A    between atoms: C_6  and  C_7
REMARK    3  A    between atoms: C_8  and  C_9
REMARK                            x       y       z     vdW  Elec       q    Type
REMARK                         _______ _______ _______ _____ _____    ______ ____
ROOT
ATOM      1  C   UNL     1      10.369  13.422  19.306  0.00  0.00    +0.000 A 
ATOM      2  C   UNL     1      10.594  12.707  18.129  0.00  0.00    +0.000 A 
ATOM      3 BR   UNL     1      11.473  13.516  16.656  0.00  0.00    +0.000 Br
ATOM      4  C   UNL     1      10.166  11.381  18.009  0.00  0.00    +0.000 A 
ATOM      5  C   UNL     1       9.516  10.747  19.077  0.00  0.00    +0.000 A 
ATOM      6  C   UNL     1       9.289  11.474  20.255  0.00  0.00    +0.000 A 
ATOM      7  C   UNL     1       9.717  12.800  20.371  0.00  0.00    +0.000 A 
ATOM      8 BR   UNL     1       9.378  13.715  21.999  0.00  0.00    +0.000 Br
ENDROOT
BRANCH   1   9
ATOM      9  O   UNL     1      10.771  14.726  19.427  0.00  0.00    +0.000 OA
ATOM     10  H   UNL     1      11.227  14.977  18.604  0.00  0.00    +0.000 HD
ENDBRANCH   1   9
BRANCH   5  11
ATOM     11  C   UNL     1       8.993   9.373  18.986  0.00  0.00    +0.000 C 
ATOM     12  C   UNL     1       8.290   8.886  17.950  0.00  0.00    +0.000 C 
BRANCH  12  13
ATOM     13  C   UNL     1       7.760   7.513  17.878  0.00  0.00    +0.000 A 
ATOM     14  C   UNL     1       8.071   6.536  18.836  0.00  0.00    +0.000 A 
ATOM     15  C   UNL     1       7.519   5.253  18.755  0.00  0.00    +0.000 A 
ATOM     16  C   UNL     1       6.638   4.938  17.724  0.00  0.00    +0.000 A 
ATOM     17  C   UNL     1       6.311   5.906  16.779  0.00  0.00    +0.000 A 
ATOM     18 CL   UNL     1       5.212   5.522  15.511  0.00  0.00    +0.000 Cl
ATOM     19  C   UNL     1       6.862   7.187  16.854  0.00  0.00    +0.000 A 
ENDBRANCH  12  13
ENDBRANCH   5  11
TORSDOF 3
ENDMDL
MODEL 2
REMARK VINA RESULT:      -7.2      0.240      2.234
REMARK  Name = 
REMARK  3 active torsions:
REMARK  status: ('A' for Active; 'I' for Inactive)
REMARK    1  A    between atoms: O_1  and  C_2
REMARK    2  A    between atoms: C_6  and  C_7
REMARK    3  A    between atoms: C_8  and  C_9
REMARK                            x       y       z     vdW  Elec       q    Type
REMARK                         _______ _______ _______ _____ _____    ______ ____
ROOT
ATOM      1  C   UNL     1      10.542  13.558  19.246  0.00  0.00    +0.000 A 
ATOM      2  C   UNL     1       9.795  13.063  20.316  0.00  0.00    +0.000 A 
ATOM      3 BR   UNL     1       9.512  14.115  21.869  0.00  0.00    +0.000 Br
ATOM      4  C   UNL     1       9.246  11.778  20.267  0.00  0.00    +0.000 A 
ATOM      5  C   UNL     1       9.430  10.971  19.136  0.00  0.00    +0.000 A 
ATOM      6  C   UNL     1      10.188  11.473  18.067  0.00  0.00    +0.000 A 
ATOM      7  C   UNL     1      10.735  12.758  18.119  0.00  0.00    +0.000 A 
ATOM      8 BR   UNL     1      11.743  13.368  16.630  0.00  0.00    +0.000 Br
ENDROOT
BRANCH   1   9
ATOM      9  O   UNL     1      11.096  14.810  19.291  0.00  0.00    +0.000 OA
ATOM     10  H   UNL     1      10.375  15.452  19.420  0.00  0.00    +0.000 HD
ENDBRANCH   1   9
BRANCH   5  11
ATOM     11  C   UNL     1       8.926   9.590  19.054  0.00  0.00    +0.000 C 
ATOM     12  C   UNL     1       8.348   9.047  17.970  0.00  0.00    +0.000 C 
BRANCH  12  13
ATOM     13  C   UNL     1       7.834   7.667  17.908  0.00  0.00    +0.000 A 
ATOM     14  C   UNL     1       8.172   6.693  18.859  0.00  0.00    +0.000 A 
ATOM     15  C   UNL     1       7.636   5.404  18.788  0.00  0.00    +0.000 A 
ATOM     16  C   UNL     1       6.741   5.078  17.772  0.00  0.00    +0.000 A 
ATOM     17  C   UNL     1       6.385   6.043  16.833  0.00  0.00    +0.000 A 
ATOM     18 CL   UNL     1       5.269   5.645  15.585  0.00  0.00    +0.000 Cl
ATOM     19  C   UNL     1       6.921   7.330  16.899  0.00  0.00    +0.000 A 
ENDBRANCH  12  13
ENDBRANCH   5  11
TORSDOF 3
ENDMDL
MODEL 3
REMARK VINA RESULT:      -7.1      5.325      7.769
REMARK  Name = 
REMARK  3 active torsions:
REMARK  status: ('A' for Active; 'I' for Inactive)
REMARK    1  A    between atoms: O_1  and  C_2
REMARK    2  A    between atoms: C_6  and  C_7
REMARK    3  A    between atoms: C_8  and  C_9
REMARK                            x       y       z     vdW  Elec       q    Type
REMARK                         _______ _______ _______ _____ _____    ______ ____
ROOT
ATOM      1  C   UNL     1       5.876   4.411  16.949  0.00  0.00    +0.000 A 
ATOM      2  C   UNL     1       6.677   5.153  16.079  0.00  0.00    +0.000 A 
ATOM      3 BR   UNL     1       6.787   4.701  14.241  0.00  0.00    +0.000 Br
ATOM      4  C   UNL     1       7.422   6.239  16.550  0.00  0.00    +0.000 A 
ATOM      5  C   UNL     1       7.364   6.606  17.901  0.00  0.00    +0.000 A 
ATOM      6  C   UNL     1       6.561   5.852  18.770  0.00  0.00    +0.000 A 
ATOM      7  C   UNL     1       5.818   4.767  18.297  0.00  0.00    +0.000 A 
ATOM      8 BR   UNL     1       4.750   3.800  19.533  0.00  0.00    +0.000 Br
ENDROOT
BRANCH   1   9
ATOM      9  O   UNL     1       5.154   3.337  16.501  0.00  0.00    +0.000 OA
ATOM     10  H   UNL     1       5.628   2.952  15.741  0.00  0.00    +0.000 HD
ENDBRANCH   1   9
BRANCH   5  11
ATOM     11  C   UNL     1       8.171   7.703  18.461  0.00  0.00    +0.000 C 
ATOM     12  C   UNL     1       8.179   8.964  17.999  0.00  0.00    +0.000 C 
BRANCH  12  13
ATOM     13  C   UNL     1       9.003  10.049  18.560  0.00  0.00    +0.000 A 
ATOM     14  C   UNL     1       9.169  10.231  19.941  0.00  0.00    +0.000 A 
ATOM     15  C   UNL     1       9.989  11.250  20.437  0.00  0.00    +0.000 A 
ATOM     16  C   UNL     1      10.666  12.088  19.555  0.00  0.00    +0.000 A 
ATOM     17  C   UNL     1      10.521  11.904  18.183  0.00  0.00    +0.000 A 
ATOM     18 CL   UNL     1      11.368  12.932  17.092  0.00  0.00    +0.000 Cl
ATOM     19  C   UNL     1       9.701  10.891  17.684  0.00  0.00    +0.000 A 
ENDBRANCH  12  13
ENDBRANCH   5  11
TORSDOF 3
ENDMDL
MODEL 4
REMARK VINA RESULT:      -7.1      5.307      8.059
REMARK  Name = 
REMARK  3 active torsions:
REMARK  status: ('A' for Active; 'I' for Inactive)
REMARK    1  A    between atoms: O_1  and  C_2
REMARK    2  A    between atoms: C_6  and  C_7
REMARK    3  A    between atoms: C_8  and  C_9
REMARK                            x       y       z     vdW  Elec       q    Type
REMARK                         _______ _______ _______ _____ _____    ______ ____
ROOT
ATOM      1  C   UNL     1       5.871   4.398  16.988  0.00  0.00    +0.000 A 
ATOM      2  C   UNL     1       5.802   4.693  18.351  0.00  0.00    +0.000 A 
ATOM      3 BR   UNL     1       4.666   3.700  19.500  0.00  0.00    +0.000 Br
ATOM      4  C   UNL     1       6.562   5.733  18.893  0.00  0.00    +0.000 A 
ATOM      5  C   UNL     1       7.416   6.487  18.077  0.00  0.00    +0.000 A 
ATOM      6  C   UNL     1       7.476   6.189  16.707  0.00  0.00    +0.000 A 
ATOM      7  C   UNL     1       6.714   5.149  16.168  0.00  0.00    +0.000 A 
ATOM      8 BR   UNL     1       6.855   4.802  14.307  0.00  0.00    +0.000 Br
ENDROOT
BRANCH   1   9
ATOM      9  O   UNL     1       5.119   3.391  16.445  0.00  0.00    +0.000 OA
ATOM     10  H   UNL     1       4.760   3.707  15.596  0.00  0.00    +0.000 HD
ENDBRANCH   1   9
BRANCH   5  11
ATOM     11  C   UNL     1       8.194   7.630  18.583  0.00  0.00    +0.000 C 
ATOM     12  C   UNL     1       8.180   8.865  18.054  0.00  0.00    +0.000 C 
BRANCH  12  13
ATOM     13  C   UNL     1       8.976   9.996  18.562  0.00  0.00    +0.000 A 
ATOM     14  C   UNL     1       9.187  10.212  19.932  0.00  0.00    +0.000 A 
ATOM     15  C   UNL     1       9.980  11.275  20.377  0.00  0.00    +0.000 A 
ATOM     16  C   UNL     1      10.582  12.126  19.454  0.00  0.00    +0.000 A 
ATOM     17  C   UNL     1      10.392  11.910  18.092  0.00  0.00    +0.000 A 
ATOM     18 CL   UNL     1      11.148  12.952  16.950  0.00  0.00    +0.000 Cl
ATOM     19  C   UNL     1       9.599  10.851  17.644  0.00  0.00    +0.000 A 
ENDBRANCH  12  13
ENDBRANCH   5  11
TORSDOF 3
ENDMDL
MODEL 5
REMARK VINA RESULT:      -6.9      7.591      8.690
REMARK  Name = 
REMARK  3 active torsions:
REMARK  status: ('A' for Active; 'I' for Inactive)
REMARK    1  A    between atoms: O_1  and  C_2
REMARK    2  A    between atoms: C_6  and  C_7
REMARK    3  A    between atoms: C_8  and  C_9
REMARK                            x       y       z     vdW  Elec       q    Type
REMARK                         _______ _______ _______ _____ _____    ______ ____
ROOT
ATOM      1  C   UNL     1       2.505   5.317  20.008  0.00  0.00    +0.000 A 
ATOM      2  C   UNL     1       2.964   4.006  19.873  0.00  0.00    +0.000 A 
ATOM      3 BR   UNL     1       2.660   2.727  21.241  0.00  0.00    +0.000 Br
ATOM      4  C   UNL     1       3.665   3.611  18.730  0.00  0.00    +0.000 A 
ATOM      5  C   UNL     1       3.906   4.526  17.696  0.00  0.00    +0.000 A 
ATOM      6  C   UNL     1       3.447   5.844  17.841  0.00  0.00    +0.000 A 
ATOM      7  C   UNL     1       2.746   6.235  18.986  0.00  0.00    +0.000 A 
ATOM      8 BR   UNL     1       2.152   8.033  19.105  0.00  0.00    +0.000 Br
ENDROOT
BRANCH   1   9
ATOM      9  O   UNL     1       1.830   5.716  21.131  0.00  0.00    +0.000 OA
ATOM     10  H   UNL     1       1.129   5.064  21.309  0.00  0.00    +0.000 HD
ENDBRANCH   1   9
BRANCH   5  11
ATOM     11  C   UNL     1       4.689   4.181  16.497  0.00  0.00    +0.000 C 
ATOM     12  C   UNL     1       5.055   5.052  15.542  0.00  0.00    +0.000 C 
BRANCH  12  13
ATOM     13  C   UNL     1       5.826   4.690  14.340  0.00  0.00    +0.000 A 
ATOM     14  C   UNL     1       7.077   5.255  14.048  0.00  0.00    +0.000 A 
ATOM     15  C   UNL     1       7.796   4.859  12.916  0.00  0.00    +0.000 A 
ATOM     16  C   UNL     1       7.279   3.881  12.070  0.00  0.00    +0.000 A 
ATOM     17  C   UNL     1       6.047   3.302  12.361  0.00  0.00    +0.000 A 
ATOM     18 CL   UNL     1       5.414   2.083  11.324  0.00  0.00    +0.000 Cl
ATOM     19  C   UNL     1       5.324   3.696  13.488  0.00  0.00    +0.000 A 
ENDBRANCH  12  13
ENDBRANCH   5  11
TORSDOF 3
ENDMDL
MODEL 6
REMARK VINA RESULT:      -6.9      8.416     10.026
REMARK  Name = 
REMARK  3 active torsions:
REMARK  status: ('A' for Active; 'I' for Inactive)
REMARK    1  A    between atoms: O_1  and  C_2
REMARK    2  A    between atoms: C_6  and  C_7
REMARK    3  A    between atoms: C_8  and  C_9
REMARK                            x       y       z     vdW  Elec       q    Type
REMARK                         _______ _______ _______ _____ _____    ______ ____
ROOT
ATOM      1  C   UNL     1       3.786   4.209  19.031  0.00  0.00    +0.000 A 
ATOM      2  C   UNL     1       4.001   5.360  18.272  0.00  0.00    +0.000 A 
ATOM      3 BR   UNL     1       5.206   5.342  16.806  0.00  0.00    +0.000 Br
ATOM      4  C   UNL     1       3.339   6.552  18.582  0.00  0.00    +0.000 A 
ATOM      5  C   UNL     1       2.439   6.603  19.655  0.00  0.00    +0.000 A 
ATOM      6  C   UNL     1       2.232   5.444  20.418  0.00  0.00    +0.000 A 
ATOM      7  C   UNL     1       2.896   4.254  20.105  0.00  0.00    +0.000 A 
ATOM      8 BR   UNL     1       2.559   2.727  21.180  0.00  0.00    +0.000 Br
ENDROOT
BRANCH   1   9
ATOM      9  O   UNL     1       4.441   3.041  18.744  0.00  0.00    +0.000 OA
ATOM     10  H   UNL     1       5.094   2.881  19.449  0.00  0.00    +0.000 HD
ENDBRANCH   1   9
BRANCH   5  11
ATOM     11  C   UNL     1       1.760   7.845  20.062  0.00  0.00    +0.000 C 
ATOM     12  C   UNL     1       1.024   7.988  21.177  0.00  0.00    +0.000 C 
BRANCH  12  13
ATOM     13  C   UNL     1       0.337   9.233  21.564  0.00  0.00    +0.000 A 
ATOM     14  C   UNL     1      -0.313   9.381  22.799  0.00  0.00    +0.000 A 
ATOM     15  C   UNL     1      -0.923  10.590  23.147  0.00  0.00    +0.000 A 
ATOM     16  C   UNL     1      -0.875  11.671  22.270  0.00  0.00    +0.000 A 
ATOM     17  C   UNL     1      -0.218  11.539  21.050  0.00  0.00    +0.000 A 
ATOM     18 CL   UNL     1      -0.147  12.878  19.971  0.00  0.00    +0.000 Cl
ATOM     19  C   UNL     1       0.389  10.332  20.697  0.00  0.00    +0.000 A 
ENDBRANCH  12  13
ENDBRANCH   5  11
TORSDOF 3
ENDMDL
MODEL 7
REMARK VINA RESULT:      -6.9      7.533      8.605
REMARK  Name = 
REMARK  3 active torsions:
REMARK  status: ('A' for Active; 'I' for Inactive)
REMARK    1  A    between atoms: O_1  and  C_2
REMARK    2  A    between atoms: C_6  and  C_7
REMARK    3  A    between atoms: C_8  and  C_9
REMARK                            x       y       z     vdW  Elec       q    Type
REMARK                         _______ _______ _______ _____ _____    ______ ____
ROOT
ATOM      1  C   UNL     1       2.748   5.134  20.029  0.00  0.00    +0.000 A 
ATOM      2  C   UNL     1       2.802   6.156  19.080  0.00  0.00    +0.000 A 
ATOM      3 BR   UNL     1       2.062   7.863  19.450  0.00  0.00    +0.000 Br
ATOM      4  C   UNL     1       3.396   5.939  17.832  0.00  0.00    +0.000 A 
ATOM      5  C   UNL     1       3.957   4.692  17.523  0.00  0.00    +0.000 A 
ATOM      6  C   UNL     1       3.894   3.668  18.479  0.00  0.00    +0.000 A 
ATOM      7  C   UNL     1       3.299   3.889  19.725  0.00  0.00    +0.000 A 
ATOM      8 BR   UNL     1       3.258   2.455  20.969  0.00  0.00    +0.000 Br
ENDROOT
BRANCH   1   9
ATOM      9  O   UNL     1       2.155   5.333  21.247  0.00  0.00    +0.000 OA
ATOM     10  H   UNL     1       2.373   4.572  21.815  0.00  0.00    +0.000 HD
ENDBRANCH   1   9
BRANCH   5  11
ATOM     11  C   UNL     1       4.542   4.390  16.205  0.00  0.00    +0.000 C 
ATOM     12  C   UNL     1       5.624   4.995  15.689  0.00  0.00    +0.000 C 
BRANCH  12  13
ATOM     13  C   UNL     1       6.191   4.693  14.362  0.00  0.00    +0.000 A 
ATOM     14  C   UNL     1       7.341   5.329  13.872  0.00  0.00    +0.000 A 
ATOM     15  C   UNL     1       7.870   4.990  12.623  0.00  0.00    +0.000 A 
ATOM     16  C   UNL     1       7.263   3.998  11.856  0.00  0.00    +0.000 A 
ATOM     17  C   UNL     1       6.131   3.350  12.342  0.00  0.00    +0.000 A 
ATOM     18 CL   UNL     1       5.389   2.114  11.401  0.00  0.00    +0.000 Cl
ATOM     19  C   UNL     1       5.598   3.688  13.587  0.00  0.00    +0.000 A 
ENDBRANCH  12  13
ENDBRANCH   5  11
TORSDOF 3
ENDMDL
MODEL 8
REMARK VINA RESULT:      -6.8      8.424     10.253
REMARK  Name = 
REMARK  3 active torsions:
REMARK  status: ('A' for Active; 'I' for Inactive)
REMARK    1  A    between atoms: O_1  and  C_2
REMARK    2  A    between atoms: C_6  and  C_7
REMARK    3  A    between atoms: C_8  and  C_9
REMARK                            x       y       z     vdW  Elec       q    Type
REMARK                         _______ _______ _______ _____ _____    ______ ____
ROOT
ATOM      1  C   UNL     1       3.790   4.150  18.911  0.00  0.00    +0.000 A 
ATOM      2  C   UNL     1       3.000   4.145  20.062  0.00  0.00    +0.000 A 
ATOM      3 BR   UNL     1       2.794   2.564  21.089  0.00  0.00    +0.000 Br
ATOM      4  C   UNL     1       2.336   5.305  20.474  0.00  0.00    +0.000 A 
ATOM      5  C   UNL     1       2.466   6.493  19.744  0.00  0.00    +0.000 A 
ATOM      6  C   UNL     1       3.257   6.490  18.585  0.00  0.00    +0.000 A 
ATOM      7  C   UNL     1       3.919   5.328  18.175  0.00  0.00    +0.000 A 
ATOM      8 BR   UNL     1       4.976   5.405  16.600  0.00  0.00    +0.000 Br
ENDROOT
BRANCH   1   9
ATOM      9  O   UNL     1       4.432   3.016  18.491  0.00  0.00    +0.000 OA
ATOM     10  H   UNL     1       5.194   3.285  17.948  0.00  0.00    +0.000 HD
ENDBRANCH   1   9
BRANCH   5  11
ATOM     11  C   UNL     1       1.744   7.727  20.099  0.00  0.00    +0.000 C 
ATOM     12  C   UNL     1       1.013   7.895  21.213  0.00  0.00    +0.000 C 
BRANCH  12  13
ATOM     13  C   UNL     1       0.283   9.130  21.549  0.00  0.00    +0.000 A 
ATOM     14  C   UNL     1      -0.223   9.380  22.833  0.00  0.00    +0.000 A 
ATOM     15  C   UNL     1      -0.879  10.581  23.125  0.00  0.00    +0.000 A 
ATOM     16  C   UNL     1      -1.021  11.553  22.138  0.00  0.00    +0.000 A 
ATOM     17  C   UNL     1      -0.506  11.321  20.865  0.00  0.00    +0.000 A 
ATOM     18 CL   UNL     1      -0.669  12.527  19.648  0.00  0.00    +0.000 Cl
ATOM     19  C   UNL     1       0.146  10.122  20.569  0.00  0.00    +0.000 A 
ENDBRANCH  12  13
ENDBRANCH   5  11
TORSDOF 3
ENDMDL
MODEL 9
REMARK VINA RESULT:      -6.8      7.246      8.040
REMARK  Name = 
REMARK  3 active torsions:
REMARK  status: ('A' for Active; 'I' for Inactive)
REMARK    1  A    between atoms: O_1  and  C_2
REMARK    2  A    between atoms: C_6  and  C_7
REMARK    3  A    between atoms: C_8  and  C_9
REMARK                            x       y       z     vdW  Elec       q    Type
REMARK                         _______ _______ _______ _____ _____    ______ ____
ROOT
ATOM      1  C   UNL     1      -0.188  11.250  20.612  0.00  0.00    +0.000 A 
ATOM      2  C   UNL     1       0.145  11.528  19.285  0.00  0.00    +0.000 A 
ATOM      3 BR   UNL     1      -0.386  13.158  18.474  0.00  0.00    +0.000 Br
ATOM      4  C   UNL     1       0.870  10.605  18.525  0.00  0.00    +0.000 A 
ATOM      5  C   UNL     1       1.283   9.391  19.090  0.00  0.00    +0.000 A 
ATOM      6  C   UNL     1       0.939   9.115  20.422  0.00  0.00    +0.000 A 
ATOM      7  C   UNL     1       0.215  10.040  21.179  0.00  0.00    +0.000 A 
ATOM      8 BR   UNL     1      -0.206   9.598  22.976  0.00  0.00    +0.000 Br
ENDROOT
BRANCH   1   9
ATOM      9  O   UNL     1      -0.910  12.141  21.360  0.00  0.00    +0.000 OA
ATOM     10  H   UNL     1      -0.777  13.029  20.981  0.00  0.00    +0.000 HD
ENDBRANCH   1   9
BRANCH   5  11
ATOM     11  C   UNL     1       1.996   8.358  18.319  0.00  0.00    +0.000 C 
ATOM     12  C   UNL     1       2.453   7.201  18.824  0.00  0.00    +0.000 C 
BRANCH  12  13
ATOM     13  C   UNL     1       3.179   6.183  18.044  0.00  0.00    +0.000 A 
ATOM     14  C   UNL     1       4.271   6.501  17.223  0.00  0.00    +0.000 A 
ATOM     15  C   UNL     1       4.959   5.503  16.526  0.00  0.00    +0.000 A 
ATOM     16  C   UNL     1       4.571   4.171  16.655  0.00  0.00    +0.000 A 
ATOM     17  C   UNL     1       3.499   3.844  17.480  0.00  0.00    +0.000 A 
ATOM     18 CL   UNL     1       3.027   2.198  17.650  0.00  0.00    +0.000 Cl
ATOM     19  C   UNL     1       2.808   4.838  18.175  0.00  0.00    +0.000 A 
ENDBRANCH  12  13
ENDBRANCH   5  11
TORSDOF 3
ENDMDL
