MODEL 1
REMARK VINA RESULT:      -7.1      0.000      0.000
REMARK  Name = 
REMARK  8 active torsions:
REMARK  status: ('A' for Active; 'I' for Inactive)
REMARK    1  A    between atoms: C_1  and  O_2
REMARK    2  A    between atoms: O_2  and  C_3
REMARK    3  A    between atoms: C_5  and  N_6
REMARK    4  A    between atoms: C_7  and  C_9
REMARK    5  A    between atoms: C_9  and  C_10
REMARK    6  A    between atoms: C_10  and  C_11
REMARK    7  A    between atoms: C_20  and  N_21
REMARK    8  A    between atoms: C_28  and  C_29
REMARK                            x       y       z     vdW  Elec       q    Type
REMARK                         _______ _______ _______ _____ _____    ______ ____
ROOT
ATOM      1  C   UNL     1       0.438   8.733  21.019  0.00  0.00    +0.000 A 
ATOM      2  C   UNL     1       1.145   7.520  21.034  0.00  0.00    +0.000 A 
ATOM      3  C   UNL     1       2.084   7.179  20.059  0.00  0.00    +0.000 A 
ATOM      4  C   UNL     1       2.221   8.035  18.965  0.00  0.00    +0.000 A 
ATOM      5 CL   UNL     1       3.335   7.685  17.690  0.00  0.00    +0.000 Cl
ATOM      6  C   UNL     1       1.477   9.226  18.895  0.00  0.00    +0.000 A 
ATOM      7  C   UNL     1       0.572   9.586  19.910  0.00  0.00    +0.000 A 
ENDROOT
BRANCH   7   8
ATOM      8  N   UNL     1      -0.170  10.804  19.848  0.00  0.00    +0.000 N 
ATOM      9  C   UNL     1       0.177  11.961  20.529  0.00  0.00    +0.000 C 
ATOM     10  O   UNL     1       1.251  12.131  21.100  0.00  0.00    +0.000 OA
ATOM     11  N   UNL     1      -0.821  12.918  20.532  0.00  0.00    +0.000 N 
ATOM     12  C   UNL     1      -0.635  14.145  21.201  0.00  0.00    +0.000 A 
ATOM     13  C   UNL     1       0.553  14.881  21.122  0.00  0.00    +0.000 A 
ATOM     14  N   UNL     1       0.761  16.049  21.789  0.00  0.00    +0.000 NA
ATOM     15  C   UNL     1      -0.262  16.455  22.577  0.00  0.00    +0.000 A 
ATOM     16  C   UNL     1      -1.448  15.735  22.654  0.00  0.00    +0.000 A 
ATOM     17  N   UNL     1      -1.672  14.591  21.946  0.00  0.00    +0.000 NA
ATOM     18  H   UNL     1      -0.776  10.902  19.040  0.00  0.00    +0.000 HD
ATOM     19  H   UNL     1      -1.766  12.567  20.608  0.00  0.00    +0.000 HD
BRANCH  15  20
ATOM     20  C   UNL     1      -0.075  17.672  23.332  0.00  0.00    +0.000 C 
ATOM     21  N   UNL     1       0.042  18.631  23.976  0.00  0.00    +0.000 NA
ENDBRANCH  15  20
ENDBRANCH   7   8
BRANCH   3  22
ATOM     22  N   UNL     1       2.858   5.989  20.178  0.00  0.00    +0.000 N 
ATOM     23  C   UNL     1       2.488   4.771  19.626  0.00  0.00    +0.000 C 
ATOM     24  O   UNL     1       1.390   4.538  19.124  0.00  0.00    +0.000 OA
ATOM     25  H   UNL     1       3.615   6.007  20.855  0.00  0.00    +0.000 HD
BRANCH  23  26
ATOM     26  C   UNL     1       3.530   3.674  19.713  0.00  0.00    +0.000 C 
BRANCH  26  27
ATOM     27  C   UNL     1       4.007   3.357  18.289  0.00  0.00    +0.000 C 
BRANCH  27  28
ATOM     28  C   UNL     1       5.020   4.326  17.744  0.00  0.00    +0.000 A 
ATOM     29  C   UNL     1       6.023   4.839  18.578  0.00  0.00    +0.000 A 
ATOM     30  C   UNL     1       6.993   5.701  18.069  0.00  0.00    +0.000 A 
ATOM     31  C   UNL     1       6.968   6.061  16.723  0.00  0.00    +0.000 A 
ATOM     32  C   UNL     1       5.974   5.557  15.886  0.00  0.00    +0.000 A 
ATOM     33  C   UNL     1       5.001   4.694  16.393  0.00  0.00    +0.000 A 
ENDBRANCH  27  28
ENDBRANCH  26  27
ENDBRANCH  23  26
ENDBRANCH   3  22
BRANCH   1  35
ATOM     34  C   UNL     1       0.266   9.449  23.275  0.00  0.00    +0.000 C 
ATOM     35  O   UNL     1      -0.400   9.103  22.049  0.00  0.00    +0.000 OA
ENDBRANCH   1  35
TORSDOF 7
ENDMDL
MODEL 2
REMARK VINA RESULT:      -6.9      1.819      2.629
REMARK  Name = 
REMARK  8 active torsions:
REMARK  status: ('A' for Active; 'I' for Inactive)
REMARK    1  A    between atoms: C_1  and  O_2
REMARK    2  A    between atoms: O_2  and  C_3
REMARK    3  A    between atoms: C_5  and  N_6
REMARK    4  A    between atoms: C_7  and  C_9
REMARK    5  A    between atoms: C_9  and  C_10
REMARK    6  A    between atoms: C_10  and  C_11
REMARK    7  A    between atoms: C_20  and  N_21
REMARK    8  A    between atoms: C_28  and  C_29
REMARK                            x       y       z     vdW  Elec       q    Type
REMARK                         _______ _______ _______ _____ _____    ______ ____
ROOT
ATOM      1  C   UNL     1       1.651   9.371  18.399  0.00  0.00    +0.000 A 
ATOM      2  C   UNL     1       2.589   8.348  18.193  0.00  0.00    +0.000 A 
ATOM      3  C   UNL     1       2.614   7.180  18.956  0.00  0.00    +0.000 A 
ATOM      4  C   UNL     1       1.745   7.099  20.045  0.00  0.00    +0.000 A 
ATOM      5 CL   UNL     1       1.723   5.707  21.069  0.00  0.00    +0.000 Cl
ATOM      6  C   UNL     1       0.839   8.140  20.311  0.00  0.00    +0.000 A 
ATOM      7  C   UNL     1       0.785   9.290  19.503  0.00  0.00    +0.000 A 
ENDROOT
BRANCH   7   8
ATOM      8  N   UNL     1      -0.148  10.339  19.763  0.00  0.00    +0.000 N 
ATOM      9  C   UNL     1      -0.010  11.265  20.787  0.00  0.00    +0.000 C 
ATOM     10  O   UNL     1       1.011  11.409  21.456  0.00  0.00    +0.000 OA
ATOM     11  N   UNL     1      -1.153  12.010  21.012  0.00  0.00    +0.000 N 
ATOM     12  C   UNL     1      -1.185  12.980  22.035  0.00  0.00    +0.000 A 
ATOM     13  C   UNL     1      -0.134  13.875  22.266  0.00  0.00    +0.000 A 
ATOM     14  N   UNL     1      -0.135  14.794  23.271  0.00  0.00    +0.000 NA
ATOM     15  C   UNL     1      -1.226  14.774  24.072  0.00  0.00    +0.000 A 
ATOM     16  C   UNL     1      -2.277  13.894  23.843  0.00  0.00    +0.000 A 
ATOM     17  N   UNL     1      -2.295  13.008  22.807  0.00  0.00    +0.000 NA
ATOM     18  H   UNL     1      -0.746  10.591  18.984  0.00  0.00    +0.000 HD
ATOM     19  H   UNL     1      -2.027  11.513  20.912  0.00  0.00    +0.000 HD
BRANCH  15  20
ATOM     20  C   UNL     1      -1.257  15.708  25.173  0.00  0.00    +0.000 C 
ATOM     21  N   UNL     1      -1.285  16.417  26.092  0.00  0.00    +0.000 NA
ENDBRANCH  15  20
ENDBRANCH   7   8
BRANCH   3  22
ATOM     22  N   UNL     1       3.512   6.120  18.636  0.00  0.00    +0.000 N 
ATOM     23  C   UNL     1       3.149   4.997  17.908  0.00  0.00    +0.000 C 
ATOM     24  O   UNL     1       1.993   4.706  17.605  0.00  0.00    +0.000 OA
ATOM     25  H   UNL     1       4.401   6.117  19.126  0.00  0.00    +0.000 HD
BRANCH  23  26
ATOM     26  C   UNL     1       4.289   4.075  17.522  0.00  0.00    +0.000 C 
BRANCH  26  27
ATOM     27  C   UNL     1       5.219   4.841  16.572  0.00  0.00    +0.000 C 
BRANCH  27  28
ATOM     28  C   UNL     1       6.287   5.644  17.264  0.00  0.00    +0.000 A 
ATOM     29  C   UNL     1       6.557   6.957  16.853  0.00  0.00    +0.000 A 
ATOM     30  C   UNL     1       7.514   7.723  17.519  0.00  0.00    +0.000 A 
ATOM     31  C   UNL     1       8.209   7.184  18.599  0.00  0.00    +0.000 A 
ATOM     32  C   UNL     1       7.948   5.879  19.015  0.00  0.00    +0.000 A 
ATOM     33  C   UNL     1       6.991   5.110  18.349  0.00  0.00    +0.000 A 
ENDBRANCH  27  28
ENDBRANCH  26  27
ENDBRANCH  23  26
ENDBRANCH   3  22
BRANCH   1  35
ATOM     34  C   UNL     1       2.415  11.568  17.926  0.00  0.00    +0.000 C 
ATOM     35  O   UNL     1       1.567  10.465  17.564  0.00  0.00    +0.000 OA
ENDBRANCH   1  35
TORSDOF 7
ENDMDL
MODEL 3
REMARK VINA RESULT:      -6.9      0.633      1.060
REMARK  Name = 
REMARK  8 active torsions:
REMARK  status: ('A' for Active; 'I' for Inactive)
REMARK    1  A    between atoms: C_1  and  O_2
REMARK    2  A    between atoms: O_2  and  C_3
REMARK    3  A    between atoms: C_5  and  N_6
REMARK    4  A    between atoms: C_7  and  C_9
REMARK    5  A    between atoms: C_9  and  C_10
REMARK    6  A    between atoms: C_10  and  C_11
REMARK    7  A    between atoms: C_20  and  N_21
REMARK    8  A    between atoms: C_28  and  C_29
REMARK                            x       y       z     vdW  Elec       q    Type
REMARK                         _______ _______ _______ _____ _____    ______ ____
ROOT
ATOM      1  C   UNL     1       0.262   8.827  21.219  0.00  0.00    +0.000 A 
ATOM      2  C   UNL     1       1.057   7.673  21.130  0.00  0.00    +0.000 A 
ATOM      3  C   UNL     1       1.957   7.454  20.086  0.00  0.00    +0.000 A 
ATOM      4  C   UNL     1       1.963   8.369  19.033  0.00  0.00    +0.000 A 
ATOM      5 CL   UNL     1       3.020   8.168  17.680  0.00  0.00    +0.000 Cl
ATOM      6  C   UNL     1       1.129   9.501  19.069  0.00  0.00    +0.000 A 
ATOM      7  C   UNL     1       0.264   9.740  20.152  0.00  0.00    +0.000 A 
ENDROOT
BRANCH   7   8
ATOM      8  N   UNL     1      -0.570  10.899  20.196  0.00  0.00    +0.000 N 
ATOM      9  C   UNL     1      -0.256  12.056  20.893  0.00  0.00    +0.000 C 
ATOM     10  O   UNL     1       0.846  12.289  21.385  0.00  0.00    +0.000 OA
ATOM     11  N   UNL     1      -1.319  12.932  21.012  0.00  0.00    +0.000 N 
ATOM     12  C   UNL     1      -1.172  14.146  21.713  0.00  0.00    +0.000 A 
ATOM     13  C   UNL     1      -0.051  14.974  21.570  0.00  0.00    +0.000 A 
ATOM     14  N   UNL     1       0.122  16.132  22.265  0.00  0.00    +0.000 NA
ATOM     15  C   UNL     1      -0.862  16.430  23.147  0.00  0.00    +0.000 A 
ATOM     16  C   UNL     1      -1.980  15.618  23.287  0.00  0.00    +0.000 A 
ATOM     17  N   UNL     1      -2.175  14.485  22.554  0.00  0.00    +0.000 NA
ATOM     18  H   UNL     1      -1.244  10.976  19.443  0.00  0.00    +0.000 HD
ATOM     19  H   UNL     1      -2.226  12.506  21.148  0.00  0.00    +0.000 HD
BRANCH  15  20
ATOM     20  C   UNL     1      -0.705  17.632  23.932  0.00  0.00    +0.000 C 
ATOM     21  N   UNL     1      -0.605  18.625  24.524  0.00  0.00    +0.000 NA
ENDBRANCH  15  20
ENDBRANCH   7   8
BRANCH   3  22
ATOM     22  N   UNL     1       2.824   6.323  20.099  0.00  0.00    +0.000 N 
ATOM     23  C   UNL     1       2.381   5.012  19.995  0.00  0.00    +0.000 C 
ATOM     24  O   UNL     1       1.202   4.669  20.049  0.00  0.00    +0.000 OA
ATOM     25  H   UNL     1       3.784   6.491  20.382  0.00  0.00    +0.000 HD
BRANCH  23  26
ATOM     26  C   UNL     1       3.470   3.968  19.848  0.00  0.00    +0.000 C 
BRANCH  26  27
ATOM     27  C   UNL     1       3.902   3.934  18.376  0.00  0.00    +0.000 C 
BRANCH  27  28
ATOM     28  C   UNL     1       5.106   4.781  18.065  0.00  0.00    +0.000 A 
ATOM     29  C   UNL     1       5.234   5.386  16.807  0.00  0.00    +0.000 A 
ATOM     30  C   UNL     1       6.325   6.210  16.527  0.00  0.00    +0.000 A 
ATOM     31  C   UNL     1       7.297   6.433  17.499  0.00  0.00    +0.000 A 
ATOM     32  C   UNL     1       7.178   5.834  18.753  0.00  0.00    +0.000 A 
ATOM     33  C   UNL     1       6.089   5.009  19.036  0.00  0.00    +0.000 A 
ENDBRANCH  27  28
ENDBRANCH  26  27
ENDBRANCH  23  26
ENDBRANCH   3  22
BRANCH   1  35
ATOM     34  C   UNL     1       0.172   9.475  23.501  0.00  0.00    +0.000 C 
ATOM     35  O   UNL     1      -0.537   9.081  22.314  0.00  0.00    +0.000 OA
ENDBRANCH   1  35
TORSDOF 7
ENDMDL
MODEL 4
REMARK VINA RESULT:      -6.9      2.611      4.261
REMARK  Name = 
REMARK  8 active torsions:
REMARK  status: ('A' for Active; 'I' for Inactive)
REMARK    1  A    between atoms: C_1  and  O_2
REMARK    2  A    between atoms: O_2  and  C_3
REMARK    3  A    between atoms: C_5  and  N_6
REMARK    4  A    between atoms: C_7  and  C_9
REMARK    5  A    between atoms: C_9  and  C_10
REMARK    6  A    between atoms: C_10  and  C_11
REMARK    7  A    between atoms: C_20  and  N_21
REMARK    8  A    between atoms: C_28  and  C_29
REMARK                            x       y       z     vdW  Elec       q    Type
REMARK                         _______ _______ _______ _____ _____    ______ ____
ROOT
ATOM      1  C   UNL     1       1.593  10.143  18.680  0.00  0.00    +0.000 A 
ATOM      2  C   UNL     1       2.069   9.019  17.987  0.00  0.00    +0.000 A 
ATOM      3  C   UNL     1       2.119   7.745  18.556  0.00  0.00    +0.000 A 
ATOM      4  C   UNL     1       1.796   7.627  19.909  0.00  0.00    +0.000 A 
ATOM      5 CL   UNL     1       1.856   6.097  20.711  0.00  0.00    +0.000 Cl
ATOM      6  C   UNL     1       1.377   8.751  20.641  0.00  0.00    +0.000 A 
ATOM      7  C   UNL     1       1.279  10.021  20.045  0.00  0.00    +0.000 A 
ENDROOT
BRANCH   7   8
ATOM      8  N   UNL     1       0.837  11.159  20.785  0.00  0.00    +0.000 N 
ATOM      9  C   UNL     1      -0.442  11.301  21.301  0.00  0.00    +0.000 C 
ATOM     10  O   UNL     1      -1.272  10.395  21.350  0.00  0.00    +0.000 OA
ATOM     11  N   UNL     1      -0.719  12.582  21.741  0.00  0.00    +0.000 N 
ATOM     12  C   UNL     1      -1.986  12.898  22.274  0.00  0.00    +0.000 A 
ATOM     13  C   UNL     1      -2.660  12.066  23.176  0.00  0.00    +0.000 A 
ATOM     14  N   UNL     1      -3.897  12.341  23.672  0.00  0.00    +0.000 NA
ATOM     15  C   UNL     1      -4.467  13.479  23.210  0.00  0.00    +0.000 A 
ATOM     16  C   UNL     1      -3.800  14.313  22.321  0.00  0.00    +0.000 A 
ATOM     17  N   UNL     1      -2.541  14.061  21.864  0.00  0.00    +0.000 NA
ATOM     18  H   UNL     1       1.573  11.717  21.202  0.00  0.00    +0.000 HD
ATOM     19  H   UNL     1      -0.326  13.331  21.187  0.00  0.00    +0.000 HD
BRANCH  15  20
ATOM     20  C   UNL     1      -5.795  13.794  23.682  0.00  0.00    +0.000 C 
ATOM     21  N   UNL     1      -6.879  14.000  24.041  0.00  0.00    +0.000 NA
ENDBRANCH  15  20
ENDBRANCH   7   8
BRANCH   3  22
ATOM     22  N   UNL     1       2.503   6.615  17.777  0.00  0.00    +0.000 N 
ATOM     23  C   UNL     1       3.784   6.085  17.769  0.00  0.00    +0.000 C 
ATOM     24  O   UNL     1       4.762   6.618  18.290  0.00  0.00    +0.000 OA
ATOM     25  H   UNL     1       1.846   6.312  17.065  0.00  0.00    +0.000 HD
BRANCH  23  26
ATOM     26  C   UNL     1       3.943   4.779  17.015  0.00  0.00    +0.000 C 
BRANCH  26  27
ATOM     27  C   UNL     1       4.351   3.695  18.022  0.00  0.00    +0.000 C 
BRANCH  27  28
ATOM     28  C   UNL     1       3.270   3.317  18.997  0.00  0.00    +0.000 A 
ATOM     29  C   UNL     1       1.943   3.193  18.563  0.00  0.00    +0.000 A 
ATOM     30  C   UNL     1       0.943   2.797  19.451  0.00  0.00    +0.000 A 
ATOM     31  C   UNL     1       1.259   2.525  20.780  0.00  0.00    +0.000 A 
ATOM     32  C   UNL     1       2.577   2.645  21.221  0.00  0.00    +0.000 A 
ATOM     33  C   UNL     1       3.579   3.042  20.334  0.00  0.00    +0.000 A 
ENDBRANCH  27  28
ENDBRANCH  26  27
ENDBRANCH  23  26
ENDBRANCH   3  22
BRANCH   1  35
ATOM     34  C   UNL     1       2.603  12.219  18.128  0.00  0.00    +0.000 C 
ATOM     35  O   UNL     1       1.445  11.370  18.068  0.00  0.00    +0.000 OA
ENDBRANCH   1  35
TORSDOF 7
ENDMDL
MODEL 5
REMARK VINA RESULT:      -6.8      4.172     10.750
REMARK  Name = 
REMARK  8 active torsions:
REMARK  status: ('A' for Active; 'I' for Inactive)
REMARK    1  A    between atoms: C_1  and  O_2
REMARK    2  A    between atoms: O_2  and  C_3
REMARK    3  A    between atoms: C_5  and  N_6
REMARK    4  A    between atoms: C_7  and  C_9
REMARK    5  A    between atoms: C_9  and  C_10
REMARK    6  A    between atoms: C_10  and  C_11
REMARK    7  A    between atoms: C_20  and  N_21
REMARK    8  A    between atoms: C_28  and  C_29
REMARK                            x       y       z     vdW  Elec       q    Type
REMARK                         _______ _______ _______ _____ _____    ______ ____
ROOT
ATOM      1  C   UNL     1       0.103  10.467  21.093  0.00  0.00    +0.000 A 
ATOM      2  C   UNL     1      -0.833  11.508  20.983  0.00  0.00    +0.000 A 
ATOM      3  C   UNL     1      -1.613  11.704  19.843  0.00  0.00    +0.000 A 
ATOM      4  C   UNL     1      -1.351  10.902  18.731  0.00  0.00    +0.000 A 
ATOM      5 CL   UNL     1      -2.243  11.089  17.263  0.00  0.00    +0.000 Cl
ATOM      6  C   UNL     1      -0.374   9.894  18.797  0.00  0.00    +0.000 A 
ATOM      7  C   UNL     1       0.371   9.669  19.969  0.00  0.00    +0.000 A 
ENDROOT
BRANCH   7   8
ATOM      8  N   UNL     1       1.352   8.633  20.040  0.00  0.00    +0.000 N 
ATOM      9  C   UNL     1       2.067   8.164  18.948  0.00  0.00    +0.000 C 
ATOM     10  O   UNL     1       2.082   8.707  17.846  0.00  0.00    +0.000 OA
ATOM     11  N   UNL     1       2.755   6.992  19.204  0.00  0.00    +0.000 N 
ATOM     12  C   UNL     1       3.514   6.371  18.191  0.00  0.00    +0.000 A 
ATOM     13  C   UNL     1       4.350   7.085  17.323  0.00  0.00    +0.000 A 
ATOM     14  N   UNL     1       5.062   6.505  16.318  0.00  0.00    +0.000 NA
ATOM     15  C   UNL     1       4.889   5.168  16.183  0.00  0.00    +0.000 A 
ATOM     16  C   UNL     1       4.069   4.453  17.046  0.00  0.00    +0.000 A 
ATOM     17  N   UNL     1       3.395   5.028  18.083  0.00  0.00    +0.000 NA
ATOM     18  H   UNL     1       1.746   8.472  20.960  0.00  0.00    +0.000 HD
ATOM     19  H   UNL     1       2.286   6.330  19.807  0.00  0.00    +0.000 HD
BRANCH  15  20
ATOM     20  C   UNL     1       5.598   4.514  15.108  0.00  0.00    +0.000 C 
ATOM     21  N   UNL     1       6.171   4.036  14.219  0.00  0.00    +0.000 NA
ENDBRANCH  15  20
ENDBRANCH   7   8
BRANCH   3  22
ATOM     22  N   UNL     1      -2.629  12.703  19.820  0.00  0.00    +0.000 N 
ATOM     23  C   UNL     1      -3.453  12.989  20.899  0.00  0.00    +0.000 C 
ATOM     24  O   UNL     1      -3.518  12.313  21.924  0.00  0.00    +0.000 OA
ATOM     25  H   UNL     1      -2.870  13.084  18.910  0.00  0.00    +0.000 HD
BRANCH  23  26
ATOM     26  C   UNL     1      -4.346  14.203  20.732  0.00  0.00    +0.000 C 
BRANCH  26  27
ATOM     27  C   UNL     1      -5.484  13.828  19.773  0.00  0.00    +0.000 C 
BRANCH  27  28
ATOM     28  C   UNL     1      -6.307  12.650  20.218  0.00  0.00    +0.000 A 
ATOM     29  C   UNL     1      -7.104  12.741  21.367  0.00  0.00    +0.000 A 
ATOM     30  C   UNL     1      -7.905  11.669  21.759  0.00  0.00    +0.000 A 
ATOM     31  C   UNL     1      -7.914  10.495  21.008  0.00  0.00    +0.000 A 
ATOM     32  C   UNL     1      -7.123  10.394  19.864  0.00  0.00    +0.000 A 
ATOM     33  C   UNL     1      -6.321  11.466  19.470  0.00  0.00    +0.000 A 
ENDBRANCH  27  28
ENDBRANCH  26  27
ENDBRANCH  23  26
ENDBRANCH   3  22
BRANCH   1  35
ATOM     34  C   UNL     1       0.007   9.574  23.290  0.00  0.00    +0.000 C 
ATOM     35  O   UNL     1       0.784  10.218  22.266  0.00  0.00    +0.000 OA
ENDBRANCH   1  35
TORSDOF 7
ENDMDL
MODEL 6
REMARK VINA RESULT:      -6.8      3.310      5.815
REMARK  Name = 
REMARK  8 active torsions:
REMARK  status: ('A' for Active; 'I' for Inactive)
REMARK    1  A    between atoms: C_1  and  O_2
REMARK    2  A    between atoms: O_2  and  C_3
REMARK    3  A    between atoms: C_5  and  N_6
REMARK    4  A    between atoms: C_7  and  C_9
REMARK    5  A    between atoms: C_9  and  C_10
REMARK    6  A    between atoms: C_10  and  C_11
REMARK    7  A    between atoms: C_20  and  N_21
REMARK    8  A    between atoms: C_28  and  C_29
REMARK                            x       y       z     vdW  Elec       q    Type
REMARK                         _______ _______ _______ _____ _____    ______ ____
ROOT
ATOM      1  C   UNL     1       2.847   4.850  18.122  0.00  0.00    +0.000 A 
ATOM      2  C   UNL     1       3.791   4.518  17.137  0.00  0.00    +0.000 A 
ATOM      3  C   UNL     1       5.142   4.850  17.243  0.00  0.00    +0.000 A 
ATOM      4  C   UNL     1       5.531   5.651  18.317  0.00  0.00    +0.000 A 
ATOM      5 CL   UNL     1       7.176   6.140  18.519  0.00  0.00    +0.000 Cl
ATOM      6  C   UNL     1       4.591   6.050  19.284  0.00  0.00    +0.000 A 
ATOM      7  C   UNL     1       3.240   5.666  19.196  0.00  0.00    +0.000 A 
ENDROOT
BRANCH   7   8
ATOM      8  N   UNL     1       2.290   6.057  20.187  0.00  0.00    +0.000 N 
ATOM      9  C   UNL     1       1.709   7.314  20.254  0.00  0.00    +0.000 C 
ATOM     10  O   UNL     1       1.794   8.163  19.368  0.00  0.00    +0.000 OA
ATOM     11  N   UNL     1       1.033   7.547  21.437  0.00  0.00    +0.000 N 
ATOM     12  C   UNL     1       0.405   8.787  21.672  0.00  0.00    +0.000 A 
ATOM     13  C   UNL     1      -0.356   9.449  20.700  0.00  0.00    +0.000 A 
ATOM     14  N   UNL     1      -0.940  10.662  20.900  0.00  0.00    +0.000 NA
ATOM     15  C   UNL     1      -0.713  11.221  22.113  0.00  0.00    +0.000 A 
ATOM     16  C   UNL     1       0.033  10.566  23.084  0.00  0.00    +0.000 A 
ATOM     17  N   UNL     1       0.576   9.329  22.899  0.00  0.00    +0.000 NA
ATOM     18  H   UNL     1       1.806   5.294  20.648  0.00  0.00    +0.000 HD
ATOM     19  H   UNL     1       1.456   7.156  22.268  0.00  0.00    +0.000 HD
BRANCH  15  20
ATOM     20  C   UNL     1      -1.284  12.524  22.359  0.00  0.00    +0.000 C 
ATOM     21  N   UNL     1      -1.791  13.554  22.535  0.00  0.00    +0.000 NA
ENDBRANCH  15  20
ENDBRANCH   7   8
BRANCH   3  22
ATOM     22  N   UNL     1       6.082   4.393  16.273  0.00  0.00    +0.000 N 
ATOM     23  C   UNL     1       6.438   5.117  15.145  0.00  0.00    +0.000 C 
ATOM     24  O   UNL     1       5.874   6.142  14.768  0.00  0.00    +0.000 OA
ATOM     25  H   UNL     1       6.351   3.415  16.330  0.00  0.00    +0.000 HD
BRANCH  23  26
ATOM     26  C   UNL     1       7.582   4.539  14.335  0.00  0.00    +0.000 C 
BRANCH  26  27
ATOM     27  C   UNL     1       7.268   4.754  12.849  0.00  0.00    +0.000 C 
BRANCH  27  28
ATOM     28  C   UNL     1       6.601   3.582  12.180  0.00  0.00    +0.000 A 
ATOM     29  C   UNL     1       5.207   3.552  12.040  0.00  0.00    +0.000 A 
ATOM     30  C   UNL     1       4.586   2.492  11.381  0.00  0.00    +0.000 A 
ATOM     31  C   UNL     1       5.351   1.452  10.858  0.00  0.00    +0.000 A 
ATOM     32  C   UNL     1       6.739   1.473  10.994  0.00  0.00    +0.000 A 
ATOM     33  C   UNL     1       7.363   2.532  11.654  0.00  0.00    +0.000 A 
ENDBRANCH  27  28
ENDBRANCH  26  27
ENDBRANCH  23  26
ENDBRANCH   3  22
BRANCH   1  35
ATOM     34  C   UNL     1       1.328   3.064  18.494  0.00  0.00    +0.000 C 
ATOM     35  O   UNL     1       1.540   4.417  18.056  0.00  0.00    +0.000 OA
ENDBRANCH   1  35
TORSDOF 7
ENDMDL
MODEL 7
REMARK VINA RESULT:      -6.7      3.411      6.134
REMARK  Name = 
REMARK  8 active torsions:
REMARK  status: ('A' for Active; 'I' for Inactive)
REMARK    1  A    between atoms: C_1  and  O_2
REMARK    2  A    between atoms: O_2  and  C_3
REMARK    3  A    between atoms: C_5  and  N_6
REMARK    4  A    between atoms: C_7  and  C_9
REMARK    5  A    between atoms: C_9  and  C_10
REMARK    6  A    between atoms: C_10  and  C_11
REMARK    7  A    between atoms: C_20  and  N_21
REMARK    8  A    between atoms: C_28  and  C_29
REMARK                            x       y       z     vdW  Elec       q    Type
REMARK                         _______ _______ _______ _____ _____    ______ ____
ROOT
ATOM      1  C   UNL     1       3.502   4.716  18.048  0.00  0.00    +0.000 A 
ATOM      2  C   UNL     1       4.415   4.425  17.022  0.00  0.00    +0.000 A 
ATOM      3  C   UNL     1       5.687   4.995  16.958  0.00  0.00    +0.000 A 
ATOM      4  C   UNL     1       6.001   5.987  17.889  0.00  0.00    +0.000 A 
ATOM      5 CL   UNL     1       7.539   6.774  17.872  0.00  0.00    +0.000 Cl
ATOM      6  C   UNL     1       5.078   6.341  18.888  0.00  0.00    +0.000 A 
ATOM      7  C   UNL     1       3.818   5.723  18.977  0.00  0.00    +0.000 A 
ENDROOT
BRANCH   7   8
ATOM      8  N   UNL     1       2.888   6.071  20.003  0.00  0.00    +0.000 N 
ATOM      9  C   UNL     1       2.152   7.247  20.018  0.00  0.00    +0.000 C 
ATOM     10  O   UNL     1       2.070   8.023  19.069  0.00  0.00    +0.000 OA
ATOM     11  N   UNL     1       1.527   7.489  21.227  0.00  0.00    +0.000 N 
ATOM     12  C   UNL     1       0.758   8.656  21.415  0.00  0.00    +0.000 A 
ATOM     13  C   UNL     1      -0.142   9.134  20.455  0.00  0.00    +0.000 A 
ATOM     14  N   UNL     1      -0.867  10.277  20.606  0.00  0.00    +0.000 NA
ATOM     15  C   UNL     1      -0.640  10.957  21.755  0.00  0.00    +0.000 A 
ATOM     16  C   UNL     1       0.244  10.483  22.715  0.00  0.00    +0.000 A 
ATOM     17  N   UNL     1       0.932   9.314  22.584  0.00  0.00    +0.000 NA
ATOM     18  H   UNL     1       2.538   5.294  20.552  0.00  0.00    +0.000 HD
ATOM     19  H   UNL     1       2.049   7.224  22.052  0.00  0.00    +0.000 HD
BRANCH  15  20
ATOM     20  C   UNL     1      -1.361  12.194  21.945  0.00  0.00    +0.000 C 
ATOM     21  N   UNL     1      -1.936  13.181  22.151  0.00  0.00    +0.000 NA
ENDBRANCH  15  20
ENDBRANCH   7   8
BRANCH   3  22
ATOM     22  N   UNL     1       6.620   4.583  15.962  0.00  0.00    +0.000 N 
ATOM     23  C   UNL     1       6.720   5.173  14.710  0.00  0.00    +0.000 C 
ATOM     24  O   UNL     1       5.921   5.991  14.259  0.00  0.00    +0.000 OA
ATOM     25  H   UNL     1       7.095   3.701  16.125  0.00  0.00    +0.000 HD
BRANCH  23  26
ATOM     26  C   UNL     1       7.891   4.709  13.866  0.00  0.00    +0.000 C 
BRANCH  26  27
ATOM     27  C   UNL     1       7.475   4.793  12.391  0.00  0.00    +0.000 C 
BRANCH  27  28
ATOM     28  C   UNL     1       6.787   3.561  11.869  0.00  0.00    +0.000 A 
ATOM     29  C   UNL     1       7.542   2.469  11.422  0.00  0.00    +0.000 A 
ATOM     30  C   UNL     1       6.911   1.306  10.980  0.00  0.00    +0.000 A 
ATOM     31  C   UNL     1       5.520   1.225  10.980  0.00  0.00    +0.000 A 
ATOM     32  C   UNL     1       4.760   2.307  11.423  0.00  0.00    +0.000 A 
ATOM     33  C   UNL     1       5.389   3.473  11.864  0.00  0.00    +0.000 A 
ENDBRANCH  27  28
ENDBRANCH  26  27
ENDBRANCH  23  26
ENDBRANCH   3  22
BRANCH   1  35
ATOM     34  C   UNL     1       2.274   2.734  17.604  0.00  0.00    +0.000 C 
ATOM     35  O   UNL     1       2.295   4.060  18.160  0.00  0.00    +0.000 OA
ENDBRANCH   1  35
TORSDOF 7
ENDMDL
MODEL 8
REMARK VINA RESULT:      -6.5      2.782      3.679
REMARK  Name = 
REMARK  8 active torsions:
REMARK  status: ('A' for Active; 'I' for Inactive)
REMARK    1  A    between atoms: C_1  and  O_2
REMARK    2  A    between atoms: O_2  and  C_3
REMARK    3  A    between atoms: C_5  and  N_6
REMARK    4  A    between atoms: C_7  and  C_9
REMARK    5  A    between atoms: C_9  and  C_10
REMARK    6  A    between atoms: C_10  and  C_11
REMARK    7  A    between atoms: C_20  and  N_21
REMARK    8  A    between atoms: C_28  and  C_29
REMARK                            x       y       z     vdW  Elec       q    Type
REMARK                         _______ _______ _______ _____ _____    ______ ____
ROOT
ATOM      1  C   UNL     1       1.956   9.506  18.268  0.00  0.00    +0.000 A 
ATOM      2  C   UNL     1       2.703   8.333  18.074  0.00  0.00    +0.000 A 
ATOM      3  C   UNL     1       2.595   7.221  18.909  0.00  0.00    +0.000 A 
ATOM      4  C   UNL     1       1.801   7.342  20.051  0.00  0.00    +0.000 A 
ATOM      5 CL   UNL     1       1.627   6.031  21.163  0.00  0.00    +0.000 Cl
ATOM      6  C   UNL     1       1.092   8.530  20.301  0.00  0.00    +0.000 A 
ATOM      7  C   UNL     1       1.166   9.628  19.424  0.00  0.00    +0.000 A 
ENDROOT
BRANCH   7   8
ATOM      8  N   UNL     1       0.433  10.828  19.670  0.00  0.00    +0.000 N 
ATOM      9  C   UNL     1      -0.618  10.926  20.570  0.00  0.00    +0.000 C 
ATOM     10  O   UNL     1      -0.909  10.057  21.390  0.00  0.00    +0.000 OA
ATOM     11  N   UNL     1      -1.341  12.097  20.446  0.00  0.00    +0.000 N 
ATOM     12  C   UNL     1      -2.458  12.341  21.272  0.00  0.00    +0.000 A 
ATOM     13  C   UNL     1      -2.456  12.076  22.647  0.00  0.00    +0.000 A 
ATOM     14  N   UNL     1      -3.536  12.273  23.452  0.00  0.00    +0.000 NA
ATOM     15  C   UNL     1      -4.649  12.725  22.827  0.00  0.00    +0.000 A 
ATOM     16  C   UNL     1      -4.654  12.999  21.465  0.00  0.00    +0.000 A 
ATOM     17  N   UNL     1      -3.557  12.847  20.670  0.00  0.00    +0.000 NA
ATOM     18  H   UNL     1       0.906  11.686  19.411  0.00  0.00    +0.000 HD
ATOM     19  H   UNL     1      -1.468  12.437  19.502  0.00  0.00    +0.000 HD
BRANCH  15  20
ATOM     20  C   UNL     1      -5.830  12.917  23.635  0.00  0.00    +0.000 C 
ATOM     21  N   UNL     1      -6.795  13.112  24.251  0.00  0.00    +0.000 NA
ENDBRANCH  15  20
ENDBRANCH   7   8
BRANCH   3  22
ATOM     22  N   UNL     1       3.288   6.013  18.606  0.00  0.00    +0.000 N 
ATOM     23  C   UNL     1       2.738   4.972  17.873  0.00  0.00    +0.000 C 
ATOM     24  O   UNL     1       1.554   4.897  17.550  0.00  0.00    +0.000 OA
ATOM     25  H   UNL     1       4.153   5.848  19.113  0.00  0.00    +0.000 HD
BRANCH  23  26
ATOM     26  C   UNL     1       3.696   3.855  17.509  0.00  0.00    +0.000 C 
BRANCH  26  27
ATOM     27  C   UNL     1       4.700   4.404  16.487  0.00  0.00    +0.000 C 
BRANCH  27  28
ATOM     28  C   UNL     1       5.811   5.222  17.086  0.00  0.00    +0.000 A 
ATOM     29  C   UNL     1       5.989   6.557  16.699  0.00  0.00    +0.000 A 
ATOM     30  C   UNL     1       6.988   7.335  17.284  0.00  0.00    +0.000 A 
ATOM     31  C   UNL     1       7.818   6.786  18.259  0.00  0.00    +0.000 A 
ATOM     32  C   UNL     1       7.648   5.458  18.650  0.00  0.00    +0.000 A 
ATOM     33  C   UNL     1       6.650   4.677  18.065  0.00  0.00    +0.000 A 
ENDBRANCH  27  28
ENDBRANCH  26  27
ENDBRANCH  23  26
ENDBRANCH   3  22
BRANCH   1  35
ATOM     34  C   UNL     1       2.615  11.750  17.861  0.00  0.00    +0.000 C 
ATOM     35  O   UNL     1       1.991  10.552  17.370  0.00  0.00    +0.000 OA
ENDBRANCH   1  35
TORSDOF 7
ENDMDL
MODEL 9
REMARK VINA RESULT:      -6.5      3.088     11.032
REMARK  Name = 
REMARK  8 active torsions:
REMARK  status: ('A' for Active; 'I' for Inactive)
REMARK    1  A    between atoms: C_1  and  O_2
REMARK    2  A    between atoms: O_2  and  C_3
REMARK    3  A    between atoms: C_5  and  N_6
REMARK    4  A    between atoms: C_7  and  C_9
REMARK    5  A    between atoms: C_9  and  C_10
REMARK    6  A    between atoms: C_10  and  C_11
REMARK    7  A    between atoms: C_20  and  N_21
REMARK    8  A    between atoms: C_28  and  C_29
REMARK                            x       y       z     vdW  Elec       q    Type
REMARK                         _______ _______ _______ _____ _____    ______ ____
ROOT
ATOM      1  C   UNL     1       1.274  12.082  19.293  0.00  0.00    +0.000 A 
ATOM      2  C   UNL     1       0.763  13.122  20.086  0.00  0.00    +0.000 A 
ATOM      3  C   UNL     1      -0.008  12.894  21.227  0.00  0.00    +0.000 A 
ATOM      4  C   UNL     1      -0.380  11.579  21.504  0.00  0.00    +0.000 A 
ATOM      5 CL   UNL     1      -1.359  11.198  22.877  0.00  0.00    +0.000 Cl
ATOM      6  C   UNL     1       0.066  10.525  20.688  0.00  0.00    +0.000 A 
ATOM      7  C   UNL     1       0.887  10.760  19.570  0.00  0.00    +0.000 A 
ENDROOT
BRANCH   7   8
ATOM      8  N   UNL     1       1.355   9.688  18.752  0.00  0.00    +0.000 N 
ATOM      9  C   UNL     1       1.774   8.461  19.243  0.00  0.00    +0.000 C 
ATOM     10  O   UNL     1       1.611   8.089  20.403  0.00  0.00    +0.000 OA
ATOM     11  N   UNL     1       2.429   7.686  18.304  0.00  0.00    +0.000 N 
ATOM     12  C   UNL     1       2.938   6.418  18.650  0.00  0.00    +0.000 A 
ATOM     13  C   UNL     1       2.221   5.497  19.424  0.00  0.00    +0.000 A 
ATOM     14  N   UNL     1       2.713   4.283  19.796  0.00  0.00    +0.000 NA
ATOM     15  C   UNL     1       3.977   4.021  19.389  0.00  0.00    +0.000 A 
ATOM     16  C   UNL     1       4.691   4.927  18.614  0.00  0.00    +0.000 A 
ATOM     17  N   UNL     1       4.179   6.121  18.201  0.00  0.00    +0.000 NA
ATOM     18  H   UNL     1       1.069   9.728  17.780  0.00  0.00    +0.000 HD
ATOM     19  H   UNL     1       3.024   8.187  17.659  0.00  0.00    +0.000 HD
BRANCH  15  20
ATOM     20  C   UNL     1       4.554   2.759  19.789  0.00  0.00    +0.000 C 
ATOM     21  N   UNL     1       4.985   1.745  20.154  0.00  0.00    +0.000 NA
ENDBRANCH  15  20
ENDBRANCH   7   8
BRANCH   3  22
ATOM     22  N   UNL     1      -0.408  13.977  22.062  0.00  0.00    +0.000 N 
ATOM     23  C   UNL     1      -1.589  14.685  21.893  0.00  0.00    +0.000 C 
ATOM     24  O   UNL     1      -2.334  14.576  20.921  0.00  0.00    +0.000 OA
ATOM     25  H   UNL     1       0.300  14.352  22.687  0.00  0.00    +0.000 HD
BRANCH  23  26
ATOM     26  C   UNL     1      -1.914  15.679  22.991  0.00  0.00    +0.000 C 
BRANCH  26  27
ATOM     27  C   UNL     1      -2.354  14.890  24.232  0.00  0.00    +0.000 C 
BRANCH  27  28
ATOM     28  C   UNL     1      -3.724  14.278  24.124  0.00  0.00    +0.000 A 
ATOM     29  C   UNL     1      -3.940  12.959  24.546  0.00  0.00    +0.000 A 
ATOM     30  C   UNL     1      -5.217  12.401  24.492  0.00  0.00    +0.000 A 
ATOM     31  C   UNL     1      -6.287  13.153  24.014  0.00  0.00    +0.000 A 
ATOM     32  C   UNL     1      -6.081  14.466  23.591  0.00  0.00    +0.000 A 
ATOM     33  C   UNL     1      -4.804  15.027  23.643  0.00  0.00    +0.000 A 
ENDBRANCH  27  28
ENDBRANCH  26  27
ENDBRANCH  23  26
ENDBRANCH   3  22
BRANCH   1  35
ATOM     34  C   UNL     1       2.960  13.483  18.382  0.00  0.00    +0.000 C 
ATOM     35  O   UNL     1       2.127  12.320  18.236  0.00  0.00    +0.000 OA
ENDBRANCH   1  35
TORSDOF 7
ENDMDL
