MODEL 1
REMARK VINA RESULT:      -8.0      0.000      0.000
REMARK  Name = 
REMARK  13 active torsions:
REMARK  status: ('A' for Active; 'I' for Inactive)
REMARK    1  A    between atoms: C_1  and  C_2
REMARK    2  A    between atoms: C_2  and  O_3
REMARK    3  A    between atoms: O_3  and  C_4
REMARK    4  A    between atoms: C_4  and  C_6
REMARK    5  A    between atoms: C_7  and  C_8
REMARK    6  A    between atoms: C_10  and  C_11
REMARK    7  A    between atoms: C_13  and  O_14
REMARK    8  A    between atoms: C_13  and  O_15
REMARK    9  A    between atoms: O_15  and  C_16
REMARK   10  A    between atoms: C_16  and  C_17
REMARK   11  A    between atoms: C_18  and  C_19
REMARK   12  A    between atoms: C_23  and  O_24
REMARK   13  A    between atoms: O_24  and  C_25
REMARK                            x       y       z     vdW  Elec       q    Type
REMARK                         _______ _______ _______ _____ _____    ______ ____
ROOT
ATOM      1  C   UNL     1       5.424   5.625  17.613  0.00  0.00    +0.000 C 
ATOM      2  C   UNL     1       6.245   4.924  18.420  0.00  0.00    +0.000 C 
ATOM      3  C   UNL     1       7.724   5.173  18.626  0.00  0.00    +0.000 C 
ATOM      4  N   UNL     1       5.813   3.871  19.188  0.00  0.00    +0.000 NA
ATOM      5  C   UNL     1       4.591   3.443  19.139  0.00  0.00    +0.000 C 
ATOM      6  C   UNL     1       4.312   2.259  20.047  0.00  0.00    +0.000 C 
ATOM      7  C   UNL     1       3.503   4.035  18.281  0.00  0.00    +0.000 C 
ATOM      8  C   UNL     1       2.249   3.515  18.209  0.00  0.00    +0.000 C 
ATOM      9  C   UNL     1       3.944   5.301  17.542  0.00  0.00    +0.000 C 
ENDROOT
BRANCH   9  10
ATOM     10  C   UNL     1       3.114   6.493  18.033  0.00  0.00    +0.000 A 
ATOM     11  C   UNL     1       2.869   7.591  17.195  0.00  0.00    +0.000 A 
ATOM     12  C   UNL     1       2.201   8.709  17.686  0.00  0.00    +0.000 A 
ATOM     13  C   UNL     1       1.780   8.740  19.016  0.00  0.00    +0.000 A 
ATOM     14  C   UNL     1       1.999   7.649  19.859  0.00  0.00    +0.000 A 
ATOM     15  C   UNL     1       2.641   6.520  19.357  0.00  0.00    +0.000 A 
BRANCH  14  16
ATOM     16  O   UNL     1       1.567   7.807  21.146  0.00  0.00    +0.000 OA
ATOM     17  C   UNL     1       1.168   9.118  21.531  0.00  0.00    +0.000 C 
ENDBRANCH  14  16
ENDBRANCH   9  10
BRANCH   1  18
ATOM     18  C   UNL     1       5.904   6.773  16.796  0.00  0.00    +0.000 C 
ATOM     19  O   UNL     1       6.362   7.814  17.240  0.00  0.00    +0.000 OA
BRANCH  18  20
ATOM     20  O   UNL     1       5.754   6.511  15.468  0.00  0.00    +0.000 OA
BRANCH  20  22
ATOM     21  C   UNL     1       5.617   4.416  14.285  0.00  0.00    +0.000 C 
ATOM     22  C   UNL     1       6.533   5.407  14.975  0.00  0.00    +0.000 C 
ENDBRANCH  20  22
ENDBRANCH  18  20
ENDBRANCH   1  18
BRANCH   8  23
ATOM     23  O   UNL     1       1.260   4.028  17.393  0.00  0.00    +0.000 OA
ATOM     24  H   UNL     1       0.634   3.341  17.135  0.00  0.00    +0.000 HD
ENDBRANCH   8  23
BRANCH   8  25
ATOM     25  O   UNL     1       1.888   2.410  18.951  0.00  0.00    +0.000 OA
BRANCH  25  26
ATOM     26  C   UNL     1       0.716   2.608  19.749  0.00  0.00    +0.000 C 
ATOM     27  C   UNL     1       1.126   3.396  20.978  0.00  0.00    +0.000 C 
ENDBRANCH  25  26
ENDBRANCH   8  25
TORSDOF 8
ENDMDL
MODEL 2
REMARK VINA RESULT:      -7.7      0.995      1.511
REMARK  Name = 
REMARK  13 active torsions:
REMARK  status: ('A' for Active; 'I' for Inactive)
REMARK    1  A    between atoms: C_1  and  C_2
REMARK    2  A    between atoms: C_2  and  O_3
REMARK    3  A    between atoms: O_3  and  C_4
REMARK    4  A    between atoms: C_4  and  C_6
REMARK    5  A    between atoms: C_7  and  C_8
REMARK    6  A    between atoms: C_10  and  C_11
REMARK    7  A    between atoms: C_13  and  O_14
REMARK    8  A    between atoms: C_13  and  O_15
REMARK    9  A    between atoms: O_15  and  C_16
REMARK   10  A    between atoms: C_16  and  C_17
REMARK   11  A    between atoms: C_18  and  C_19
REMARK   12  A    between atoms: C_23  and  O_24
REMARK   13  A    between atoms: O_24  and  C_25
REMARK                            x       y       z     vdW  Elec       q    Type
REMARK                         _______ _______ _______ _____ _____    ______ ____
ROOT
ATOM      1  C   UNL     1       5.440   5.523  17.588  0.00  0.00    +0.000 C 
ATOM      2  C   UNL     1       6.251   4.694  18.272  0.00  0.00    +0.000 C 
ATOM      3  C   UNL     1       7.754   4.823  18.409  0.00  0.00    +0.000 C 
ATOM      4  N   UNL     1       5.789   3.600  18.962  0.00  0.00    +0.000 NA
ATOM      5  C   UNL     1       4.538   3.261  18.949  0.00  0.00    +0.000 C 
ATOM      6  C   UNL     1       4.226   2.014  19.756  0.00  0.00    +0.000 C 
ATOM      7  C   UNL     1       3.450   4.004  18.220  0.00  0.00    +0.000 C 
ATOM      8  C   UNL     1       2.160   3.578  18.177  0.00  0.00    +0.000 C 
ATOM      9  C   UNL     1       3.938   5.306  17.579  0.00  0.00    +0.000 C 
ENDROOT
BRANCH   9  10
ATOM     10  C   UNL     1       3.225   6.496  18.231  0.00  0.00    +0.000 A 
ATOM     11  C   UNL     1       2.745   6.413  19.547  0.00  0.00    +0.000 A 
ATOM     12  C   UNL     1       2.011   7.463  20.091  0.00  0.00    +0.000 A 
ATOM     13  C   UNL     1       1.748   8.598  19.323  0.00  0.00    +0.000 A 
ATOM     14  C   UNL     1       2.233   8.706  18.018  0.00  0.00    +0.000 A 
ATOM     15  C   UNL     1       2.992   7.666  17.487  0.00  0.00    +0.000 A 
BRANCH  14  16
ATOM     16  O   UNL     1       1.888   9.851  17.357  0.00  0.00    +0.000 OA
ATOM     17  C   UNL     1       1.903  11.057  18.114  0.00  0.00    +0.000 C 
ENDBRANCH  14  16
ENDBRANCH   9  10
BRANCH   1  18
ATOM     18  C   UNL     1       5.955   6.713  16.855  0.00  0.00    +0.000 C 
ATOM     19  O   UNL     1       6.446   7.703  17.372  0.00  0.00    +0.000 OA
BRANCH  18  20
ATOM     20  O   UNL     1       5.794   6.554  15.513  0.00  0.00    +0.000 OA
BRANCH  20  22
ATOM     21  C   UNL     1       5.583   4.464  14.331  0.00  0.00    +0.000 C 
ATOM     22  C   UNL     1       6.542   5.470  14.935  0.00  0.00    +0.000 C 
ENDBRANCH  20  22
ENDBRANCH  18  20
ENDBRANCH   1  18
BRANCH   8  23
ATOM     23  O   UNL     1       1.166   4.233  17.476  0.00  0.00    +0.000 OA
ATOM     24  H   UNL     1       1.543   4.862  16.849  0.00  0.00    +0.000 HD
ENDBRANCH   8  23
BRANCH   8  25
ATOM     25  O   UNL     1       1.762   2.432  18.831  0.00  0.00    +0.000 OA
BRANCH  25  26
ATOM     26  C   UNL     1       0.643   2.622  19.704  0.00  0.00    +0.000 C 
ATOM     27  C   UNL     1       1.146   3.327  20.948  0.00  0.00    +0.000 C 
ENDBRANCH  25  26
ENDBRANCH   8  25
TORSDOF 8
ENDMDL
MODEL 3
REMARK VINA RESULT:      -7.7      0.908      1.674
REMARK  Name = 
REMARK  13 active torsions:
REMARK  status: ('A' for Active; 'I' for Inactive)
REMARK    1  A    between atoms: C_1  and  C_2
REMARK    2  A    between atoms: C_2  and  O_3
REMARK    3  A    between atoms: O_3  and  C_4
REMARK    4  A    between atoms: C_4  and  C_6
REMARK    5  A    between atoms: C_7  and  C_8
REMARK    6  A    between atoms: C_10  and  C_11
REMARK    7  A    between atoms: C_13  and  O_14
REMARK    8  A    between atoms: C_13  and  O_15
REMARK    9  A    between atoms: O_15  and  C_16
REMARK   10  A    between atoms: C_16  and  C_17
REMARK   11  A    between atoms: C_18  and  C_19
REMARK   12  A    between atoms: C_23  and  O_24
REMARK   13  A    between atoms: O_24  and  C_25
REMARK                            x       y       z     vdW  Elec       q    Type
REMARK                         _______ _______ _______ _____ _____    ______ ____
ROOT
ATOM      1  C   UNL     1       5.417   5.688  17.710  0.00  0.00    +0.000 C 
ATOM      2  C   UNL     1       6.221   4.962  18.512  0.00  0.00    +0.000 C 
ATOM      3  C   UNL     1       7.693   5.212  18.766  0.00  0.00    +0.000 C 
ATOM      4  N   UNL     1       5.777   3.878  19.229  0.00  0.00    +0.000 NA
ATOM      5  C   UNL     1       4.559   3.446  19.131  0.00  0.00    +0.000 C 
ATOM      6  C   UNL     1       4.264   2.227  19.986  0.00  0.00    +0.000 C 
ATOM      7  C   UNL     1       3.490   4.063  18.267  0.00  0.00    +0.000 C 
ATOM      8  C   UNL     1       2.242   3.539  18.144  0.00  0.00    +0.000 C 
ATOM      9  C   UNL     1       3.941   5.358  17.589  0.00  0.00    +0.000 C 
ENDROOT
BRANCH   9  10
ATOM     10  C   UNL     1       3.091   6.527  18.102  0.00  0.00    +0.000 A 
ATOM     11  C   UNL     1       2.792   7.617  17.271  0.00  0.00    +0.000 A 
ATOM     12  C   UNL     1       2.106   8.716  17.780  0.00  0.00    +0.000 A 
ATOM     13  C   UNL     1       1.720   8.734  19.121  0.00  0.00    +0.000 A 
ATOM     14  C   UNL     1       1.992   7.650  19.958  0.00  0.00    +0.000 A 
ATOM     15  C   UNL     1       2.653   6.540  19.438  0.00  0.00    +0.000 A 
BRANCH  14  16
ATOM     16  O   UNL     1       1.591   7.796  21.256  0.00  0.00    +0.000 OA
ATOM     17  C   UNL     1       0.866   8.981  21.572  0.00  0.00    +0.000 C 
ENDBRANCH  14  16
ENDBRANCH   9  10
BRANCH   1  18
ATOM     18  C   UNL     1       5.911   6.869  16.950  0.00  0.00    +0.000 C 
ATOM     19  O   UNL     1       5.782   7.042  15.749  0.00  0.00    +0.000 OA
BRANCH  18  20
ATOM     20  O   UNL     1       6.544   7.742  17.782  0.00  0.00    +0.000 OA
BRANCH  20  22
ATOM     21  C   UNL     1       8.355   9.253  18.278  0.00  0.00    +0.000 C 
ATOM     22  C   UNL     1       7.812   8.224  17.305  0.00  0.00    +0.000 C 
ENDBRANCH  20  22
ENDBRANCH  18  20
ENDBRANCH   1  18
BRANCH   8  23
ATOM     23  O   UNL     1       1.271   4.077  17.321  0.00  0.00    +0.000 OA
ATOM     24  H   UNL     1       0.408   4.065  17.753  0.00  0.00    +0.000 HD
ENDBRANCH   8  23
BRANCH   8  25
ATOM     25  O   UNL     1       1.869   2.405  18.833  0.00  0.00    +0.000 OA
BRANCH  25  26
ATOM     26  C   UNL     1       0.678   2.567  19.612  0.00  0.00    +0.000 C 
ATOM     27  C   UNL     1       1.028   3.428  20.810  0.00  0.00    +0.000 C 
ENDBRANCH  25  26
ENDBRANCH   8  25
TORSDOF 8
ENDMDL
MODEL 4
REMARK VINA RESULT:      -7.5      1.307      2.198
REMARK  Name = 
REMARK  13 active torsions:
REMARK  status: ('A' for Active; 'I' for Inactive)
REMARK    1  A    between atoms: C_1  and  C_2
REMARK    2  A    between atoms: C_2  and  O_3
REMARK    3  A    between atoms: O_3  and  C_4
REMARK    4  A    between atoms: C_4  and  C_6
REMARK    5  A    between atoms: C_7  and  C_8
REMARK    6  A    between atoms: C_10  and  C_11
REMARK    7  A    between atoms: C_13  and  O_14
REMARK    8  A    between atoms: C_13  and  O_15
REMARK    9  A    between atoms: O_15  and  C_16
REMARK   10  A    between atoms: C_16  and  C_17
REMARK   11  A    between atoms: C_18  and  C_19
REMARK   12  A    between atoms: C_23  and  O_24
REMARK   13  A    between atoms: O_24  and  C_25
REMARK                            x       y       z     vdW  Elec       q    Type
REMARK                         _______ _______ _______ _____ _____    ______ ____
ROOT
ATOM      1  C   UNL     1       5.301   5.551  17.498  0.00  0.00    +0.000 C 
ATOM      2  C   UNL     1       6.125   4.680  18.113  0.00  0.00    +0.000 C 
ATOM      3  C   UNL     1       7.630   4.801  18.228  0.00  0.00    +0.000 C 
ATOM      4  N   UNL     1       5.675   3.544  18.740  0.00  0.00    +0.000 NA
ATOM      5  C   UNL     1       4.424   3.207  18.729  0.00  0.00    +0.000 C 
ATOM      6  C   UNL     1       4.126   1.911  19.461  0.00  0.00    +0.000 C 
ATOM      7  C   UNL     1       3.322   3.995  18.070  0.00  0.00    +0.000 C 
ATOM      8  C   UNL     1       2.031   3.571  18.026  0.00  0.00    +0.000 C 
ATOM      9  C   UNL     1       3.799   5.334  17.504  0.00  0.00    +0.000 C 
ENDROOT
BRANCH   9  10
ATOM     10  C   UNL     1       3.099   6.480  18.245  0.00  0.00    +0.000 A 
ATOM     11  C   UNL     1       2.798   6.375  19.611  0.00  0.00    +0.000 A 
ATOM     12  C   UNL     1       2.073   7.379  20.246  0.00  0.00    +0.000 A 
ATOM     13  C   UNL     1       1.642   8.490  19.520  0.00  0.00    +0.000 A 
ATOM     14  C   UNL     1       1.949   8.621  18.165  0.00  0.00    +0.000 A 
ATOM     15  C   UNL     1       2.700   7.629  17.539  0.00  0.00    +0.000 A 
BRANCH  14  16
ATOM     16  O   UNL     1       1.449   9.738  17.556  0.00  0.00    +0.000 OA
ATOM     17  C   UNL     1       0.219  10.246  18.061  0.00  0.00    +0.000 C 
ENDBRANCH  14  16
ENDBRANCH   9  10
BRANCH   1  18
ATOM     18  C   UNL     1       5.803   6.785  16.834  0.00  0.00    +0.000 C 
ATOM     19  O   UNL     1       5.663   7.060  15.653  0.00  0.00    +0.000 OA
BRANCH  18  20
ATOM     20  O   UNL     1       6.458   7.576  17.728  0.00  0.00    +0.000 OA
BRANCH  20  22
ATOM     21  C   UNL     1       8.187   9.214  18.097  0.00  0.00    +0.000 C 
ATOM     22  C   UNL     1       7.786   7.965  17.336  0.00  0.00    +0.000 C 
ENDBRANCH  20  22
ENDBRANCH  18  20
ENDBRANCH   1  18
BRANCH   8  23
ATOM     23  O   UNL     1       1.025   4.270  17.387  0.00  0.00    +0.000 OA
ATOM     24  H   UNL     1       1.355   4.698  16.588  0.00  0.00    +0.000 HD
ENDBRANCH   8  23
BRANCH   8  25
ATOM     25  O   UNL     1       1.645   2.386  18.613  0.00  0.00    +0.000 OA
BRANCH  25  26
ATOM     26  C   UNL     1       0.540   2.519  19.513  0.00  0.00    +0.000 C 
ATOM     27  C   UNL     1       1.041   3.242  20.749  0.00  0.00    +0.000 C 
ENDBRANCH  25  26
ENDBRANCH   8  25
TORSDOF 8
ENDMDL
MODEL 5
REMARK VINA RESULT:      -7.5      1.725      5.831
REMARK  Name = 
REMARK  13 active torsions:
REMARK  status: ('A' for Active; 'I' for Inactive)
REMARK    1  A    between atoms: C_1  and  C_2
REMARK    2  A    between atoms: C_2  and  O_3
REMARK    3  A    between atoms: O_3  and  C_4
REMARK    4  A    between atoms: C_4  and  C_6
REMARK    5  A    between atoms: C_7  and  C_8
REMARK    6  A    between atoms: C_10  and  C_11
REMARK    7  A    between atoms: C_13  and  O_14
REMARK    8  A    between atoms: C_13  and  O_15
REMARK    9  A    between atoms: O_15  and  C_16
REMARK   10  A    between atoms: C_16  and  C_17
REMARK   11  A    between atoms: C_18  and  C_19
REMARK   12  A    between atoms: C_23  and  O_24
REMARK   13  A    between atoms: O_24  and  C_25
REMARK                            x       y       z     vdW  Elec       q    Type
REMARK                         _______ _______ _______ _____ _____    ______ ____
ROOT
ATOM      1  C   UNL     1       2.418   4.127  18.702  0.00  0.00    +0.000 C 
ATOM      2  C   UNL     1       1.765   4.178  19.880  0.00  0.00    +0.000 C 
ATOM      3  C   UNL     1       1.254   2.994  20.672  0.00  0.00    +0.000 C 
ATOM      4  N   UNL     1       1.489   5.358  20.528  0.00  0.00    +0.000 NA
ATOM      5  C   UNL     1       1.789   6.508  20.012  0.00  0.00    +0.000 C 
ATOM      6  C   UNL     1       1.388   7.694  20.869  0.00  0.00    +0.000 C 
ATOM      7  C   UNL     1       2.481   6.708  18.689  0.00  0.00    +0.000 C 
ATOM      8  C   UNL     1       2.719   7.934  18.154  0.00  0.00    +0.000 C 
ATOM      9  C   UNL     1       2.925   5.394  18.041  0.00  0.00    +0.000 C 
ENDROOT
BRANCH   9  10
ATOM     10  C   UNL     1       4.455   5.366  17.939  0.00  0.00    +0.000 A 
ATOM     11  C   UNL     1       5.252   5.402  19.093  0.00  0.00    +0.000 A 
ATOM     12  C   UNL     1       6.638   5.478  18.983  0.00  0.00    +0.000 A 
ATOM     13  C   UNL     1       7.233   5.524  17.722  0.00  0.00    +0.000 A 
ATOM     14  C   UNL     1       6.457   5.471  16.562  0.00  0.00    +0.000 A 
ATOM     15  C   UNL     1       5.073   5.365  16.676  0.00  0.00    +0.000 A 
BRANCH  14  16
ATOM     16  O   UNL     1       7.150   5.551  15.388  0.00  0.00    +0.000 OA
ATOM     17  C   UNL     1       6.718   4.703  14.329  0.00  0.00    +0.000 C 
ENDBRANCH  14  16
ENDBRANCH   9  10
BRANCH   1  18
ATOM     18  C   UNL     1       2.723   2.839  18.019  0.00  0.00    +0.000 C 
ATOM     19  O   UNL     1       1.945   2.206  17.324  0.00  0.00    +0.000 OA
BRANCH  18  20
ATOM     20  O   UNL     1       4.000   2.449  18.284  0.00  0.00    +0.000 OA
BRANCH  20  22
ATOM     21  C   UNL     1       4.777   1.898  20.498  0.00  0.00    +0.000 C 
ATOM     22  C   UNL     1       4.123   1.376  19.234  0.00  0.00    +0.000 C 
ENDBRANCH  20  22
ENDBRANCH  18  20
ENDBRANCH   1  18
BRANCH   8  23
ATOM     23  O   UNL     1       3.316   8.122  16.922  0.00  0.00    +0.000 OA
ATOM     24  H   UNL     1       4.195   8.507  17.019  0.00  0.00    +0.000 HD
ENDBRANCH   8  23
BRANCH   8  25
ATOM     25  O   UNL     1       2.357   9.087  18.816  0.00  0.00    +0.000 OA
BRANCH  25  26
ATOM     26  C   UNL     1       1.666  10.034  17.993  0.00  0.00    +0.000 C 
ATOM     27  C   UNL     1       0.780  10.867  18.898  0.00  0.00    +0.000 C 
ENDBRANCH  25  26
ENDBRANCH   8  25
TORSDOF 8
ENDMDL
MODEL 6
REMARK VINA RESULT:      -7.2      1.881      5.626
REMARK  Name = 
REMARK  13 active torsions:
REMARK  status: ('A' for Active; 'I' for Inactive)
REMARK    1  A    between atoms: C_1  and  C_2
REMARK    2  A    between atoms: C_2  and  O_3
REMARK    3  A    between atoms: O_3  and  C_4
REMARK    4  A    between atoms: C_4  and  C_6
REMARK    5  A    between atoms: C_7  and  C_8
REMARK    6  A    between atoms: C_10  and  C_11
REMARK    7  A    between atoms: C_13  and  O_14
REMARK    8  A    between atoms: C_13  and  O_15
REMARK    9  A    between atoms: O_15  and  C_16
REMARK   10  A    between atoms: C_16  and  C_17
REMARK   11  A    between atoms: C_18  and  C_19
REMARK   12  A    between atoms: C_23  and  O_24
REMARK   13  A    between atoms: O_24  and  C_25
REMARK                            x       y       z     vdW  Elec       q    Type
REMARK                         _______ _______ _______ _____ _____    ______ ____
ROOT
ATOM      1  C   UNL     1       2.048   4.074  18.840  0.00  0.00    +0.000 C 
ATOM      2  C   UNL     1       1.549   4.202  20.085  0.00  0.00    +0.000 C 
ATOM      3  C   UNL     1       1.060   3.077  20.973  0.00  0.00    +0.000 C 
ATOM      4  N   UNL     1       1.435   5.414  20.721  0.00  0.00    +0.000 NA
ATOM      5  C   UNL     1       1.747   6.526  20.135  0.00  0.00    +0.000 C 
ATOM      6  C   UNL     1       1.535   7.760  20.994  0.00  0.00    +0.000 C 
ATOM      7  C   UNL     1       2.283   6.642  18.732  0.00  0.00    +0.000 C 
ATOM      8  C   UNL     1       2.537   7.835  18.131  0.00  0.00    +0.000 C 
ATOM      9  C   UNL     1       2.554   5.285  18.080  0.00  0.00    +0.000 C 
ENDROOT
BRANCH   9  10
ATOM     10  C   UNL     1       4.054   5.145  17.795  0.00  0.00    +0.000 A 
ATOM     11  C   UNL     1       4.516   4.826  16.509  0.00  0.00    +0.000 A 
ATOM     12  C   UNL     1       5.871   4.604  16.288  0.00  0.00    +0.000 A 
ATOM     13  C   UNL     1       6.772   4.692  17.349  0.00  0.00    +0.000 A 
ATOM     14  C   UNL     1       6.335   5.027  18.632  0.00  0.00    +0.000 A 
ATOM     15  C   UNL     1       4.981   5.278  18.844  0.00  0.00    +0.000 A 
BRANCH  14  16
ATOM     16  O   UNL     1       7.305   5.056  19.594  0.00  0.00    +0.000 OA
ATOM     17  C   UNL     1       8.289   6.078  19.480  0.00  0.00    +0.000 C 
ENDBRANCH  14  16
ENDBRANCH   9  10
BRANCH   1  18
ATOM     18  C   UNL     1       2.178   2.751  18.169  0.00  0.00    +0.000 C 
ATOM     19  O   UNL     1       1.890   2.516  17.006  0.00  0.00    +0.000 OA
BRANCH  18  20
ATOM     20  O   UNL     1       2.657   1.820  19.039  0.00  0.00    +0.000 OA
BRANCH  20  22
ATOM     21  C   UNL     1       4.676   1.998  20.345  0.00  0.00    +0.000 C 
ATOM     22  C   UNL     1       4.082   1.628  18.999  0.00  0.00    +0.000 C 
ENDBRANCH  20  22
ENDBRANCH  18  20
ENDBRANCH   1  18
BRANCH   8  23
ATOM     23  O   UNL     1       2.989   7.948  16.830  0.00  0.00    +0.000 OA
ATOM     24  H   UNL     1       2.429   8.545  16.320  0.00  0.00    +0.000 HD
ENDBRANCH   8  23
BRANCH   8  25
ATOM     25  O   UNL     1       2.338   9.027  18.792  0.00  0.00    +0.000 OA
BRANCH  25  26
ATOM     26  C   UNL     1       1.683  10.026  18.001  0.00  0.00    +0.000 C 
ATOM     27  C   UNL     1       0.787  10.827  18.925  0.00  0.00    +0.000 C 
ENDBRANCH  25  26
ENDBRANCH   8  25
TORSDOF 8
ENDMDL
MODEL 7
REMARK VINA RESULT:      -6.8      2.027      5.269
REMARK  Name = 
REMARK  13 active torsions:
REMARK  status: ('A' for Active; 'I' for Inactive)
REMARK    1  A    between atoms: C_1  and  C_2
REMARK    2  A    between atoms: C_2  and  O_3
REMARK    3  A    between atoms: O_3  and  C_4
REMARK    4  A    between atoms: C_4  and  C_6
REMARK    5  A    between atoms: C_7  and  C_8
REMARK    6  A    between atoms: C_10  and  C_11
REMARK    7  A    between atoms: C_13  and  O_14
REMARK    8  A    between atoms: C_13  and  O_15
REMARK    9  A    between atoms: O_15  and  C_16
REMARK   10  A    between atoms: C_16  and  C_17
REMARK   11  A    between atoms: C_18  and  C_19
REMARK   12  A    between atoms: C_23  and  O_24
REMARK   13  A    between atoms: O_24  and  C_25
REMARK                            x       y       z     vdW  Elec       q    Type
REMARK                         _______ _______ _______ _____ _____    ______ ____
ROOT
ATOM      1  C   UNL     1       4.380   5.913  18.730  0.00  0.00    +0.000 C 
ATOM      2  C   UNL     1       4.315   6.494  17.516  0.00  0.00    +0.000 C 
ATOM      3  C   UNL     1       5.202   6.188  16.328  0.00  0.00    +0.000 C 
ATOM      4  N   UNL     1       3.391   7.461  17.202  0.00  0.00    +0.000 NA
ATOM      5  C   UNL     1       2.555   7.919  18.080  0.00  0.00    +0.000 C 
ATOM      6  C   UNL     1       1.626   8.995  17.547  0.00  0.00    +0.000 C 
ATOM      7  C   UNL     1       2.466   7.458  19.511  0.00  0.00    +0.000 C 
ATOM      8  C   UNL     1       1.618   8.012  20.418  0.00  0.00    +0.000 C 
ATOM      9  C   UNL     1       3.390   6.277  19.819  0.00  0.00    +0.000 C 
ENDROOT
BRANCH   9  10
ATOM     10  C   UNL     1       2.546   5.055  20.202  0.00  0.00    +0.000 A 
ATOM     11  C   UNL     1       2.659   4.473  21.473  0.00  0.00    +0.000 A 
ATOM     12  C   UNL     1       1.964   3.306  21.772  0.00  0.00    +0.000 A 
ATOM     13  C   UNL     1       1.156   2.711  20.803  0.00  0.00    +0.000 A 
ATOM     14  C   UNL     1       1.015   3.286  19.538  0.00  0.00    +0.000 A 
ATOM     15  C   UNL     1       1.690   4.470  19.252  0.00  0.00    +0.000 A 
BRANCH  14  16
ATOM     16  O   UNL     1       0.220   2.597  18.666  0.00  0.00    +0.000 OA
ATOM     17  C   UNL     1       0.676   1.309  18.264  0.00  0.00    +0.000 C 
ENDBRANCH  14  16
ENDBRANCH   9  10
BRANCH   1  18
ATOM     18  C   UNL     1       5.380   4.857  19.051  0.00  0.00    +0.000 C 
ATOM     19  O   UNL     1       5.258   3.668  18.801  0.00  0.00    +0.000 OA
BRANCH  18  20
ATOM     20  O   UNL     1       6.460   5.397  19.679  0.00  0.00    +0.000 OA
BRANCH  20  22
ATOM     21  C   UNL     1       7.994   6.881  18.560  0.00  0.00    +0.000 C 
ATOM     22  C   UNL     1       7.663   5.439  18.892  0.00  0.00    +0.000 C 
ENDBRANCH  20  22
ENDBRANCH  18  20
ENDBRANCH   1  18
BRANCH   8  23
ATOM     23  O   UNL     1       1.561   7.621  21.742  0.00  0.00    +0.000 OA
ATOM     24  H   UNL     1       2.149   6.875  21.907  0.00  0.00    +0.000 HD
ENDBRANCH   8  23
BRANCH   8  25
ATOM     25  O   UNL     1       0.758   9.030  20.066  0.00  0.00    +0.000 OA
BRANCH  25  26
ATOM     26  C   UNL     1       0.625  10.046  21.066  0.00  0.00    +0.000 C 
ATOM     27  C   UNL     1      -0.246  11.146  20.488  0.00  0.00    +0.000 C 
ENDBRANCH  25  26
ENDBRANCH   8  25
TORSDOF 8
ENDMDL
MODEL 8
REMARK VINA RESULT:      -6.8      2.084      4.924
REMARK  Name = 
REMARK  13 active torsions:
REMARK  status: ('A' for Active; 'I' for Inactive)
REMARK    1  A    between atoms: C_1  and  C_2
REMARK    2  A    between atoms: C_2  and  O_3
REMARK    3  A    between atoms: O_3  and  C_4
REMARK    4  A    between atoms: C_4  and  C_6
REMARK    5  A    between atoms: C_7  and  C_8
REMARK    6  A    between atoms: C_10  and  C_11
REMARK    7  A    between atoms: C_13  and  O_14
REMARK    8  A    between atoms: C_13  and  O_15
REMARK    9  A    between atoms: O_15  and  C_16
REMARK   10  A    between atoms: C_16  and  C_17
REMARK   11  A    between atoms: C_18  and  C_19
REMARK   12  A    between atoms: C_23  and  O_24
REMARK   13  A    between atoms: O_24  and  C_25
REMARK                            x       y       z     vdW  Elec       q    Type
REMARK                         _______ _______ _______ _____ _____    ______ ____
ROOT
ATOM      1  C   UNL     1       4.474   6.011  18.085  0.00  0.00    +0.000 C 
ATOM      2  C   UNL     1       4.355   6.826  17.018  0.00  0.00    +0.000 C 
ATOM      3  C   UNL     1       5.196   6.779  15.759  0.00  0.00    +0.000 C 
ATOM      4  N   UNL     1       3.413   7.822  16.942  0.00  0.00    +0.000 NA
ATOM      5  C   UNL     1       2.610   8.081  17.925  0.00  0.00    +0.000 C 
ATOM      6  C   UNL     1       1.653   9.228  17.658  0.00  0.00    +0.000 C 
ATOM      7  C   UNL     1       2.583   7.338  19.236  0.00  0.00    +0.000 C 
ATOM      8  C   UNL     1       1.768   7.685  20.268  0.00  0.00    +0.000 C 
ATOM      9  C   UNL     1       3.526   6.133  19.262  0.00  0.00    +0.000 C 
ENDROOT
BRANCH   9  10
ATOM     10  C   UNL     1       2.707   4.847  19.421  0.00  0.00    +0.000 A 
ATOM     11  C   UNL     1       1.766   4.469  18.452  0.00  0.00    +0.000 A 
ATOM     12  C   UNL     1       0.959   3.354  18.657  0.00  0.00    +0.000 A 
ATOM     13  C   UNL     1       1.084   2.614  19.833  0.00  0.00    +0.000 A 
ATOM     14  C   UNL     1       2.028   2.963  20.801  0.00  0.00    +0.000 A 
ATOM     15  C   UNL     1       2.854   4.062  20.579  0.00  0.00    +0.000 A 
BRANCH  14  16
ATOM     16  O   UNL     1       2.037   2.180  21.921  0.00  0.00    +0.000 OA
ATOM     17  C   UNL     1       0.842   2.156  22.695  0.00  0.00    +0.000 C 
ENDBRANCH  14  16
ENDBRANCH   9  10
BRANCH   1  18
ATOM     18  C   UNL     1       5.493   4.927  18.146  0.00  0.00    +0.000 C 
ATOM     19  O   UNL     1       5.519   3.939  17.430  0.00  0.00    +0.000 OA
BRANCH  18  20
ATOM     20  O   UNL     1       6.400   5.180  19.129  0.00  0.00    +0.000 OA
BRANCH  20  22
ATOM     21  C   UNL     1       7.909   6.899  18.368  0.00  0.00    +0.000 C 
ATOM     22  C   UNL     1       7.742   5.422  18.670  0.00  0.00    +0.000 C 
ENDBRANCH  20  22
ENDBRANCH  18  20
ENDBRANCH   1  18
BRANCH   8  23
ATOM     23  O   UNL     1       1.768   7.033  21.487  0.00  0.00    +0.000 OA
ATOM     24  H   UNL     1       1.742   6.076  21.366  0.00  0.00    +0.000 HD
ENDBRANCH   8  23
BRANCH   8  25
ATOM     25  O   UNL     1       0.888   8.740  20.163  0.00  0.00    +0.000 OA
BRANCH  25  26
ATOM     26  C   UNL     1       0.983   9.681  21.238  0.00  0.00    +0.000 C 
ATOM     27  C   UNL     1      -0.417  10.186  21.530  0.00  0.00    +0.000 C 
ENDBRANCH  25  26
ENDBRANCH   8  25
TORSDOF 8
ENDMDL
MODEL 9
REMARK VINA RESULT:      -6.8      1.768      5.792
REMARK  Name = 
REMARK  13 active torsions:
REMARK  status: ('A' for Active; 'I' for Inactive)
REMARK    1  A    between atoms: C_1  and  C_2
REMARK    2  A    between atoms: C_2  and  O_3
REMARK    3  A    between atoms: O_3  and  C_4
REMARK    4  A    between atoms: C_4  and  C_6
REMARK    5  A    between atoms: C_7  and  C_8
REMARK    6  A    between atoms: C_10  and  C_11
REMARK    7  A    between atoms: C_13  and  O_14
REMARK    8  A    between atoms: C_13  and  O_15
REMARK    9  A    between atoms: O_15  and  C_16
REMARK   10  A    between atoms: C_16  and  C_17
REMARK   11  A    between atoms: C_18  and  C_19
REMARK   12  A    between atoms: C_23  and  O_24
REMARK   13  A    between atoms: O_24  and  C_25
REMARK                            x       y       z     vdW  Elec       q    Type
REMARK                         _______ _______ _______ _____ _____    ______ ____
ROOT
ATOM      1  C   UNL     1       3.118   3.850  19.520  0.00  0.00    +0.000 C 
ATOM      2  C   UNL     1       2.534   4.023  20.722  0.00  0.00    +0.000 C 
ATOM      3  C   UNL     1       2.275   2.945  21.754  0.00  0.00    +0.000 C 
ATOM      4  N   UNL     1       2.100   5.246  21.172  0.00  0.00    +0.000 NA
ATOM      5  C   UNL     1       2.174   6.310  20.436  0.00  0.00    +0.000 C 
ATOM      6  C   UNL     1       1.628   7.561  21.101  0.00  0.00    +0.000 C 
ATOM      7  C   UNL     1       2.745   6.360  19.043  0.00  0.00    +0.000 C 
ATOM      8  C   UNL     1       2.744   7.485  18.280  0.00  0.00    +0.000 C 
ATOM      9  C   UNL     1       3.366   5.032  18.603  0.00  0.00    +0.000 C 
ENDROOT
BRANCH   9  10
ATOM     10  C   UNL     1       4.871   5.223  18.375  0.00  0.00    +0.000 A 
ATOM     11  C   UNL     1       5.736   5.463  19.453  0.00  0.00    +0.000 A 
ATOM     12  C   UNL     1       7.081   5.734  19.223  0.00  0.00    +0.000 A 
ATOM     13  C   UNL     1       7.569   5.771  17.916  0.00  0.00    +0.000 A 
ATOM     14  C   UNL     1       6.727   5.516  16.831  0.00  0.00    +0.000 A 
ATOM     15  C   UNL     1       5.387   5.216  17.067  0.00  0.00    +0.000 A 
BRANCH  14  16
ATOM     16  O   UNL     1       7.312   5.609  15.600  0.00  0.00    +0.000 OA
ATOM     17  C   UNL     1       6.774   4.784  14.572  0.00  0.00    +0.000 C 
ENDBRANCH  14  16
ENDBRANCH   9  10
BRANCH   1  18
ATOM     18  C   UNL     1       3.595   2.520  19.053  0.00  0.00    +0.000 C 
ATOM     19  O   UNL     1       4.586   1.938  19.465  0.00  0.00    +0.000 OA
BRANCH  18  20
ATOM     20  O   UNL     1       2.774   2.032  18.082  0.00  0.00    +0.000 OA
BRANCH  20  22
ATOM     21  C   UNL     1       0.445   2.453  18.538  0.00  0.00    +0.000 C 
ATOM     22  C   UNL     1       1.561   1.426  18.560  0.00  0.00    +0.000 C 
ENDBRANCH  20  22
ENDBRANCH  18  20
ENDBRANCH   1  18
BRANCH   8  23
ATOM     23  O   UNL     1       3.229   7.526  16.987  0.00  0.00    +0.000 OA
ATOM     24  H   UNL     1       3.338   6.636  16.631  0.00  0.00    +0.000 HD
ENDBRANCH   8  23
BRANCH   8  25
ATOM     25  O   UNL     1       2.231   8.673  18.756  0.00  0.00    +0.000 OA
BRANCH  25  26
ATOM     26  C   UNL     1       1.894   9.611  17.728  0.00  0.00    +0.000 C 
ATOM     27  C   UNL     1       1.248  10.809  18.395  0.00  0.00    +0.000 C 
ENDBRANCH  25  26
ENDBRANCH   8  25
TORSDOF 8
ENDMDL
