MODEL 1
REMARK VINA RESULT:      -8.6      0.000      0.000
REMARK  Name = 
REMARK  5 active torsions:
REMARK  status: ('A' for Active; 'I' for Inactive)
REMARK    1  A    between atoms: N_2  and  C_4
REMARK    2  A    between atoms: C_9  and  C_10
REMARK    3  A    between atoms: C_13  and  C_14
REMARK    4  A    between atoms: C_18  and  O_19
REMARK    5  A    between atoms: C_20  and  O_21
REMARK                            x       y       z     vdW  Elec       q    Type
REMARK                         _______ _______ _______ _____ _____    ______ ____
ROOT
ATOM      1  C   UNL     1       3.921   5.527  17.392  0.00  0.00    +0.000 A 
ATOM      2  N   UNL     1       4.107   4.279  17.787  0.00  0.00    +0.000 NA
ATOM      3  N   UNL     1       4.886   3.667  16.826  0.00  0.00    +0.000 NA
ATOM      4  C   UNL     1       5.103   4.573  15.892  0.00  0.00    +0.000 A 
ATOM      5  O   UNL     1       4.541   5.783  16.198  0.00  0.00    +0.000 OA
ENDROOT
BRANCH   1  11
ATOM      6  C   UNL     1       0.829   8.835  21.245  0.00  0.00    +0.000 A 
ATOM      7  C   UNL     1       0.736   9.783  20.213  0.00  0.00    +0.000 A 
ATOM      8  C   UNL     1       1.348   9.548  18.973  0.00  0.00    +0.000 A 
ATOM      9  C   UNL     1       2.042   8.341  18.784  0.00  0.00    +0.000 A 
ATOM     10  C   UNL     1       2.759   7.749  17.715  0.00  0.00    +0.000 A 
ATOM     11  C   UNL     1       3.194   6.504  18.141  0.00  0.00    +0.000 A 
ATOM     12  O   UNL     1       2.796   6.322  19.445  0.00  0.00    +0.000 OA
ATOM     13  C   UNL     1       2.102   7.428  19.828  0.00  0.00    +0.000 A 
ATOM     14  C   UNL     1       1.522   7.624  21.080  0.00  0.00    +0.000 A 
BRANCH   6  16
ATOM     15  O   UNL     1      -0.974   8.684  22.702  0.00  0.00    +0.000 OA
ATOM     16  N   UNL     1       0.176   9.114  22.533  0.00  0.00    +0.000 N 
ATOM     17  O   UNL     1       0.814   9.764  23.373  0.00  0.00    +0.000 OA
ENDBRANCH   6  16
ENDBRANCH   1  11
BRANCH   4  18
ATOM     18  C   UNL     1       5.889   4.484  14.673  0.00  0.00    +0.000 A 
ATOM     19  C   UNL     1       5.428   3.688  13.609  0.00  0.00    +0.000 A 
ATOM     20  C   UNL     1       6.159   3.572  12.420  0.00  0.00    +0.000 A 
ATOM     21  C   UNL     1       7.365   4.258  12.267  0.00  0.00    +0.000 A 
ATOM     22  C   UNL     1       7.820   5.055  13.309  0.00  0.00    +0.000 A 
ATOM     23  C   UNL     1       7.094   5.172  14.498  0.00  0.00    +0.000 A 
BRANCH  22  24
ATOM     24  O   UNL     1       8.989   5.763  13.217  0.00  0.00    +0.000 OA
ATOM     25  H   UNL     1       9.564   5.319  12.569  0.00  0.00    +0.000 HD
ENDBRANCH  22  24
BRANCH  23  26
ATOM     26  O   UNL     1       7.588   6.004  15.467  0.00  0.00    +0.000 OA
ATOM     27  H   UNL     1       8.463   5.632  15.700  0.00  0.00    +0.000 HD
ENDBRANCH  23  26
ENDBRANCH   4  18
TORSDOF 5
ENDMDL
MODEL 2
REMARK VINA RESULT:      -8.5      2.632      9.046
REMARK  Name = 
REMARK  5 active torsions:
REMARK  status: ('A' for Active; 'I' for Inactive)
REMARK    1  A    between atoms: N_2  and  C_4
REMARK    2  A    between atoms: C_9  and  C_10
REMARK    3  A    between atoms: C_13  and  C_14
REMARK    4  A    between atoms: C_18  and  O_19
REMARK    5  A    between atoms: C_20  and  O_21
REMARK                            x       y       z     vdW  Elec       q    Type
REMARK                         _______ _______ _______ _____ _____    ______ ____
ROOT
ATOM      1  C   UNL     1       2.202   7.637  19.279  0.00  0.00    +0.000 A 
ATOM      2  N   UNL     1       1.832   7.374  20.522  0.00  0.00    +0.000 NA
ATOM      3  N   UNL     1       1.035   8.424  20.932  0.00  0.00    +0.000 NA
ATOM      4  C   UNL     1       0.992   9.274  19.924  0.00  0.00    +0.000 A 
ATOM      5  O   UNL     1       1.689   8.827  18.835  0.00  0.00    +0.000 OA
ENDROOT
BRANCH   1  11
ATOM      6  C   UNL     1       5.831   4.896  15.450  0.00  0.00    +0.000 A 
ATOM      7  C   UNL     1       5.331   3.695  15.981  0.00  0.00    +0.000 A 
ATOM      8  C   UNL     1       4.387   3.714  17.018  0.00  0.00    +0.000 A 
ATOM      9  C   UNL     1       3.947   4.956  17.503  0.00  0.00    +0.000 A 
ATOM     10  C   UNL     1       3.031   5.381  18.498  0.00  0.00    +0.000 A 
ATOM     11  C   UNL     1       3.007   6.766  18.482  0.00  0.00    +0.000 A 
ATOM     12  O   UNL     1       3.898   7.210  17.533  0.00  0.00    +0.000 OA
ATOM     13  C   UNL     1       4.460   6.118  16.946  0.00  0.00    +0.000 A 
ATOM     14  C   UNL     1       5.408   6.150  15.924  0.00  0.00    +0.000 A 
BRANCH   6  16
ATOM     15  O   UNL     1       6.582   4.091  13.405  0.00  0.00    +0.000 OA
ATOM     16  N   UNL     1       6.820   4.840  14.363  0.00  0.00    +0.000 N 
ATOM     17  O   UNL     1       7.833   5.547  14.468  0.00  0.00    +0.000 OA
ENDBRANCH   6  16
ENDBRANCH   1  11
BRANCH   4  18
ATOM     18  C   UNL     1       0.271  10.529  19.795  0.00  0.00    +0.000 A 
ATOM     19  C   UNL     1       0.215  11.410  20.890  0.00  0.00    +0.000 A 
ATOM     20  C   UNL     1      -0.473  12.627  20.807  0.00  0.00    +0.000 A 
ATOM     21  C   UNL     1      -1.115  12.992  19.623  0.00  0.00    +0.000 A 
ATOM     22  C   UNL     1      -1.053  12.132  18.534  0.00  0.00    +0.000 A 
ATOM     23  C   UNL     1      -0.368  10.916  18.614  0.00  0.00    +0.000 A 
BRANCH  22  24
ATOM     24  O   UNL     1      -1.651  12.437  17.341  0.00  0.00    +0.000 OA
ATOM     25  H   UNL     1      -1.227  13.237  16.982  0.00  0.00    +0.000 HD
ENDBRANCH  22  24
BRANCH  23  26
ATOM     26  O   UNL     1      -0.322  10.137  17.488  0.00  0.00    +0.000 OA
ATOM     27  H   UNL     1      -1.000   9.445  17.630  0.00  0.00    +0.000 HD
ENDBRANCH  23  26
ENDBRANCH   4  18
TORSDOF 5
ENDMDL
MODEL 3
REMARK VINA RESULT:      -8.3      2.356      3.355
REMARK  Name = 
REMARK  5 active torsions:
REMARK  status: ('A' for Active; 'I' for Inactive)
REMARK    1  A    between atoms: N_2  and  C_4
REMARK    2  A    between atoms: C_9  and  C_10
REMARK    3  A    between atoms: C_13  and  C_14
REMARK    4  A    between atoms: C_18  and  O_19
REMARK    5  A    between atoms: C_20  and  O_21
REMARK                            x       y       z     vdW  Elec       q    Type
REMARK                         _______ _______ _______ _____ _____    ______ ____
ROOT
ATOM      1  C   UNL     1       2.454   7.108  19.458  0.00  0.00    +0.000 A 
ATOM      2  N   UNL     1       2.349   5.931  20.053  0.00  0.00    +0.000 NA
ATOM      3  N   UNL     1       3.282   5.102  19.465  0.00  0.00    +0.000 NA
ATOM      4  C   UNL     1       3.879   5.816  18.531  0.00  0.00    +0.000 A 
ATOM      5  O   UNL     1       3.421   7.105  18.487  0.00  0.00    +0.000 OA
ENDROOT
BRANCH   1  11
ATOM      6  C   UNL     1      -0.804  11.444  21.893  0.00  0.00    +0.000 A 
ATOM      7  C   UNL     1      -0.932  11.952  20.589  0.00  0.00    +0.000 A 
ATOM      8  C   UNL     1      -0.304  11.312  19.511  0.00  0.00    +0.000 A 
ATOM      9  C   UNL     1       0.444  10.150  19.763  0.00  0.00    +0.000 A 
ATOM     10  C   UNL     1       1.193   9.244  18.971  0.00  0.00    +0.000 A 
ATOM     11  C   UNL     1       1.680   8.257  19.812  0.00  0.00    +0.000 A 
ATOM     12  O   UNL     1       1.283   8.539  21.098  0.00  0.00    +0.000 OA
ATOM     13  C   UNL     1       0.539   9.678  21.064  0.00  0.00    +0.000 A 
ATOM     14  C   UNL     1      -0.056  10.286  22.168  0.00  0.00    +0.000 A 
BRANCH   6  16
ATOM     15  O   UNL     1      -2.562  11.689  23.390  0.00  0.00    +0.000 OA
ATOM     16  N   UNL     1      -1.476  12.140  23.000  0.00  0.00    +0.000 N 
ATOM     17  O   UNL     1      -0.916  13.137  23.478  0.00  0.00    +0.000 OA
ENDBRANCH   6  16
ENDBRANCH   1  11
BRANCH   4  18
ATOM     18  C   UNL     1       4.964   5.455  17.633  0.00  0.00    +0.000 A 
ATOM     19  C   UNL     1       4.822   5.680  16.253  0.00  0.00    +0.000 A 
ATOM     20  C   UNL     1       5.842   5.342  15.354  0.00  0.00    +0.000 A 
ATOM     21  C   UNL     1       7.031   4.778  15.821  0.00  0.00    +0.000 A 
ATOM     22  C   UNL     1       7.181   4.564  17.185  0.00  0.00    +0.000 A 
ATOM     23  C   UNL     1       6.165   4.899  18.084  0.00  0.00    +0.000 A 
BRANCH  22  24
ATOM     24  O   UNL     1       8.327   4.025  17.707  0.00  0.00    +0.000 OA
ATOM     25  H   UNL     1       9.067   4.251  17.117  0.00  0.00    +0.000 HD
ENDBRANCH  22  24
BRANCH  23  26
ATOM     26  O   UNL     1       6.400   4.691  19.417  0.00  0.00    +0.000 OA
ATOM     27  H   UNL     1       7.354   4.479  19.477  0.00  0.00    +0.000 HD
ENDBRANCH  23  26
ENDBRANCH   4  18
TORSDOF 5
ENDMDL
MODEL 4
REMARK VINA RESULT:      -8.3      1.441      1.841
REMARK  Name = 
REMARK  5 active torsions:
REMARK  status: ('A' for Active; 'I' for Inactive)
REMARK    1  A    between atoms: N_2  and  C_4
REMARK    2  A    between atoms: C_9  and  C_10
REMARK    3  A    between atoms: C_13  and  C_14
REMARK    4  A    between atoms: C_18  and  O_19
REMARK    5  A    between atoms: C_20  and  O_21
REMARK                            x       y       z     vdW  Elec       q    Type
REMARK                         _______ _______ _______ _____ _____    ______ ____
ROOT
ATOM      1  C   UNL     1       3.889   5.324  17.495  0.00  0.00    +0.000 A 
ATOM      2  N   UNL     1       4.121   4.071  17.852  0.00  0.00    +0.000 NA
ATOM      3  N   UNL     1       4.918   3.518  16.871  0.00  0.00    +0.000 NA
ATOM      4  C   UNL     1       5.100   4.458  15.965  0.00  0.00    +0.000 A 
ATOM      5  O   UNL     1       4.497   5.638  16.308  0.00  0.00    +0.000 OA
ENDROOT
BRANCH   1  11
ATOM      6  C   UNL     1       0.865   9.835  19.914  0.00  0.00    +0.000 A 
ATOM      7  C   UNL     1       0.840   9.066  21.089  0.00  0.00    +0.000 A 
ATOM      8  C   UNL     1       1.422   7.790  21.117  0.00  0.00    +0.000 A 
ATOM      9  C   UNL     1       2.037   7.306  19.950  0.00  0.00    +0.000 A 
ATOM     10  C   UNL     1       2.718   6.117  19.591  0.00  0.00    +0.000 A 
ATOM     11  C   UNL     1       3.130   6.252  18.275  0.00  0.00    +0.000 A 
ATOM     12  O   UNL     1       2.701   7.470  17.802  0.00  0.00    +0.000 OA
ATOM     13  C   UNL     1       2.045   8.102  18.813  0.00  0.00    +0.000 A 
ATOM     14  C   UNL     1       1.470   9.368  18.734  0.00  0.00    +0.000 A 
BRANCH   6  16
ATOM     15  O   UNL     1       0.239  11.796  20.988  0.00  0.00    +0.000 OA
ATOM     16  N   UNL     1       0.245  11.169  19.920  0.00  0.00    +0.000 N 
ATOM     17  O   UNL     1      -0.233  11.587  18.856  0.00  0.00    +0.000 OA
ENDBRANCH   6  16
ENDBRANCH   1  11
BRANCH   4  18
ATOM     18  C   UNL     1       5.886   4.434  14.742  0.00  0.00    +0.000 A 
ATOM     19  C   UNL     1       5.455   3.647  13.660  0.00  0.00    +0.000 A 
ATOM     20  C   UNL     1       6.187   3.592  12.466  0.00  0.00    +0.000 A 
ATOM     21  C   UNL     1       7.362   4.333  12.328  0.00  0.00    +0.000 A 
ATOM     22  C   UNL     1       7.786   5.122  13.389  0.00  0.00    +0.000 A 
ATOM     23  C   UNL     1       7.059   5.177  14.582  0.00  0.00    +0.000 A 
BRANCH  22  24
ATOM     24  O   UNL     1       8.923   5.881  13.313  0.00  0.00    +0.000 OA
ATOM     25  H   UNL     1       8.833   6.629  13.929  0.00  0.00    +0.000 HD
ENDBRANCH  22  24
BRANCH  23  26
ATOM     26  O   UNL     1       7.521   6.005  15.572  0.00  0.00    +0.000 OA
ATOM     27  H   UNL     1       6.787   6.631  15.742  0.00  0.00    +0.000 HD
ENDBRANCH  23  26
ENDBRANCH   4  18
TORSDOF 5
ENDMDL
MODEL 5
REMARK VINA RESULT:      -8.2      2.300      9.445
REMARK  Name = 
REMARK  5 active torsions:
REMARK  status: ('A' for Active; 'I' for Inactive)
REMARK    1  A    between atoms: N_2  and  C_4
REMARK    2  A    between atoms: C_9  and  C_10
REMARK    3  A    between atoms: C_13  and  C_14
REMARK    4  A    between atoms: C_18  and  O_19
REMARK    5  A    between atoms: C_20  and  O_21
REMARK                            x       y       z     vdW  Elec       q    Type
REMARK                         _______ _______ _______ _____ _____    ______ ____
ROOT
ATOM      1  C   UNL     1       2.167   8.702  18.271  0.00  0.00    +0.000 A 
ATOM      2  N   UNL     1       1.925   9.829  17.623  0.00  0.00    +0.000 NA
ATOM      3  N   UNL     1       1.144  10.608  18.452  0.00  0.00    +0.000 NA
ATOM      4  C   UNL     1       0.936   9.896  19.543  0.00  0.00    +0.000 A 
ATOM      5  O   UNL     1       1.576   8.687  19.507  0.00  0.00    +0.000 OA
ENDROOT
BRANCH   1  11
ATOM      6  C   UNL     1       5.807   4.988  15.389  0.00  0.00    +0.000 A 
ATOM      7  C   UNL     1       5.338   3.997  16.267  0.00  0.00    +0.000 A 
ATOM      8  C   UNL     1       4.406   4.313  17.266  0.00  0.00    +0.000 A 
ATOM      9  C   UNL     1       3.945   5.637  17.360  0.00  0.00    +0.000 A 
ATOM     10  C   UNL     1       3.032   6.328  18.195  0.00  0.00    +0.000 A 
ATOM     11  C   UNL     1       2.981   7.643  17.761  0.00  0.00    +0.000 A 
ATOM     12  O   UNL     1       3.851   7.792  16.707  0.00  0.00    +0.000 OA
ATOM     13  C   UNL     1       4.428   6.584  16.468  0.00  0.00    +0.000 A 
ATOM     14  C   UNL     1       5.363   6.320  15.469  0.00  0.00    +0.000 A 
BRANCH   6  16
ATOM     15  O   UNL     1       6.483   3.705  13.576  0.00  0.00    +0.000 OA
ATOM     16  N   UNL     1       6.783   4.621  14.353  0.00  0.00    +0.000 N 
ATOM     17  O   UNL     1       7.850   5.252  14.318  0.00  0.00    +0.000 OA
ENDBRANCH   6  16
ENDBRANCH   1  11
BRANCH   4  18
ATOM     18  C   UNL     1       0.214  10.241  20.756  0.00  0.00    +0.000 A 
ATOM     19  C   UNL     1      -0.816  11.197  20.699  0.00  0.00    +0.000 A 
ATOM     20  C   UNL     1      -1.532  11.560  21.847  0.00  0.00    +0.000 A 
ATOM     21  C   UNL     1      -1.238  10.967  23.076  0.00  0.00    +0.000 A 
ATOM     22  C   UNL     1      -0.230  10.014  23.136  0.00  0.00    +0.000 A 
ATOM     23  C   UNL     1       0.488   9.650  21.993  0.00  0.00    +0.000 A 
BRANCH  22  24
ATOM     24  O   UNL     1       0.099   9.387  24.308  0.00  0.00    +0.000 OA
ATOM     25  H   UNL     1       0.577  10.022  24.870  0.00  0.00    +0.000 HD
ENDBRANCH  22  24
BRANCH  23  26
ATOM     26  O   UNL     1       1.443   8.677  22.124  0.00  0.00    +0.000 OA
ATOM     27  H   UNL     1       1.669   8.670  23.076  0.00  0.00    +0.000 HD
ENDBRANCH  23  26
ENDBRANCH   4  18
TORSDOF 5
ENDMDL
MODEL 6
REMARK VINA RESULT:      -8.1      2.664      3.824
REMARK  Name = 
REMARK  5 active torsions:
REMARK  status: ('A' for Active; 'I' for Inactive)
REMARK    1  A    between atoms: N_2  and  C_4
REMARK    2  A    between atoms: C_9  and  C_10
REMARK    3  A    between atoms: C_13  and  C_14
REMARK    4  A    between atoms: C_18  and  O_19
REMARK    5  A    between atoms: C_20  and  O_21
REMARK                            x       y       z     vdW  Elec       q    Type
REMARK                         _______ _______ _______ _____ _____    ______ ____
ROOT
ATOM      1  C   UNL     1       2.404   6.817  19.756  0.00  0.00    +0.000 A 
ATOM      2  N   UNL     1       2.317   5.588  20.236  0.00  0.00    +0.000 NA
ATOM      3  N   UNL     1       3.251   4.828  19.562  0.00  0.00    +0.000 NA
ATOM      4  C   UNL     1       3.830   5.635  18.694  0.00  0.00    +0.000 A 
ATOM      5  O   UNL     1       3.359   6.917  18.779  0.00  0.00    +0.000 OA
ENDROOT
BRANCH   1  11
ATOM      6  C   UNL     1      -0.601  11.843  20.787  0.00  0.00    +0.000 A 
ATOM      7  C   UNL     1      -0.773  11.361  22.096  0.00  0.00    +0.000 A 
ATOM      8  C   UNL     1      -0.261  10.109  22.467  0.00  0.00    +0.000 A 
ATOM      9  C   UNL     1       0.434   9.356  21.506  0.00  0.00    +0.000 A 
ATOM     10  C   UNL     1       1.085   8.097  21.492  0.00  0.00    +0.000 A 
ATOM     11  C   UNL     1       1.623   7.918  20.228  0.00  0.00    +0.000 A 
ATOM     12  O   UNL     1       1.302   9.009  19.455  0.00  0.00    +0.000 OA
ATOM     13  C   UNL     1       0.588   9.872  20.227  0.00  0.00    +0.000 A 
ATOM     14  C   UNL     1       0.087  11.104  19.810  0.00  0.00    +0.000 A 
BRANCH   6  16
ATOM     15  O   UNL     1      -0.957  13.574  19.282  0.00  0.00    +0.000 OA
ATOM     16  N   UNL     1      -1.150  13.160  20.433  0.00  0.00    +0.000 N 
ATOM     17  O   UNL     1      -1.775  13.778  21.308  0.00  0.00    +0.000 OA
ENDBRANCH   6  16
ENDBRANCH   1  11
BRANCH   4  18
ATOM     18  C   UNL     1       4.907   5.374  17.754  0.00  0.00    +0.000 A 
ATOM     19  C   UNL     1       4.736   5.704  16.398  0.00  0.00    +0.000 A 
ATOM     20  C   UNL     1       5.748   5.463  15.460  0.00  0.00    +0.000 A 
ATOM     21  C   UNL     1       6.958   4.895  15.862  0.00  0.00    +0.000 A 
ATOM     22  C   UNL     1       7.138   4.579  17.202  0.00  0.00    +0.000 A 
ATOM     23  C   UNL     1       6.129   4.816  18.140  0.00  0.00    +0.000 A 
BRANCH  22  24
ATOM     24  O   UNL     1       8.305   4.030  17.662  0.00  0.00    +0.000 OA
ATOM     25  H   UNL     1       8.526   3.267  17.100  0.00  0.00    +0.000 HD
ENDBRANCH  22  24
BRANCH  23  26
ATOM     26  O   UNL     1       6.392   4.510  19.450  0.00  0.00    +0.000 OA
ATOM     27  H   UNL     1       7.302   4.148  19.448  0.00  0.00    +0.000 HD
ENDBRANCH  23  26
ENDBRANCH   4  18
TORSDOF 5
ENDMDL
MODEL 7
REMARK VINA RESULT:      -8.1      3.490      9.254
REMARK  Name = 
REMARK  5 active torsions:
REMARK  status: ('A' for Active; 'I' for Inactive)
REMARK    1  A    between atoms: N_2  and  C_4
REMARK    2  A    between atoms: C_9  and  C_10
REMARK    3  A    between atoms: C_13  and  C_14
REMARK    4  A    between atoms: C_18  and  O_19
REMARK    5  A    between atoms: C_20  and  O_21
REMARK                            x       y       z     vdW  Elec       q    Type
REMARK                         _______ _______ _______ _____ _____    ______ ____
ROOT
ATOM      1  C   UNL     1       1.362   9.039  18.260  0.00  0.00    +0.000 A 
ATOM      2  N   UNL     1       1.513  10.054  19.094  0.00  0.00    +0.000 NA
ATOM      3  N   UNL     1       0.361  10.809  19.017  0.00  0.00    +0.000 NA
ATOM      4  C   UNL     1      -0.409  10.223  18.121  0.00  0.00    +0.000 A 
ATOM      5  O   UNL     1       0.153   9.081  17.618  0.00  0.00    +0.000 OA
ENDROOT
BRANCH   1  11
ATOM      6  C   UNL     1       5.870   5.417  16.877  0.00  0.00    +0.000 A 
ATOM      7  C   UNL     1       5.145   4.415  17.543  0.00  0.00    +0.000 A 
ATOM      8  C   UNL     1       3.914   4.708  18.148  0.00  0.00    +0.000 A 
ATOM      9  C   UNL     1       3.419   6.020  18.061  0.00  0.00    +0.000 A 
ATOM     10  C   UNL     1       2.255   6.688  18.515  0.00  0.00    +0.000 A 
ATOM     11  C   UNL     1       2.328   8.001  18.078  0.00  0.00    +0.000 A 
ATOM     12  O   UNL     1       3.510   8.172  17.396  0.00  0.00    +0.000 OA
ATOM     13  C   UNL     1       4.163   6.978  17.387  0.00  0.00    +0.000 A 
ATOM     14  C   UNL     1       5.395   6.737  16.783  0.00  0.00    +0.000 A 
BRANCH   6  16
ATOM     15  O   UNL     1       7.925   4.336  16.887  0.00  0.00    +0.000 OA
ATOM     16  N   UNL     1       7.157   5.074  16.254  0.00  0.00    +0.000 N 
ATOM     17  O   UNL     1       7.397   5.544  15.133  0.00  0.00    +0.000 OA
ENDBRANCH   6  16
ENDBRANCH   1  11
BRANCH   4  18
ATOM     18  C   UNL     1      -1.748  10.570  17.673  0.00  0.00    +0.000 A 
ATOM     19  C   UNL     1      -2.222  10.059  16.453  0.00  0.00    +0.000 A 
ATOM     20  C   UNL     1      -3.504  10.373  15.984  0.00  0.00    +0.000 A 
ATOM     21  C   UNL     1      -4.342  11.201  16.732  0.00  0.00    +0.000 A 
ATOM     22  C   UNL     1      -3.884  11.699  17.945  0.00  0.00    +0.000 A 
ATOM     23  C   UNL     1      -2.605  11.389  18.415  0.00  0.00    +0.000 A 
BRANCH  22  24
ATOM     24  O   UNL     1      -4.661  12.507  18.732  0.00  0.00    +0.000 OA
ATOM     25  H   UNL     1      -5.502  12.047  18.905  0.00  0.00    +0.000 HD
ENDBRANCH  22  24
BRANCH  23  26
ATOM     26  O   UNL     1      -2.236  11.889  19.635  0.00  0.00    +0.000 OA
ATOM     27  H   UNL     1      -1.289  12.119  19.540  0.00  0.00    +0.000 HD
ENDBRANCH  23  26
ENDBRANCH   4  18
TORSDOF 5
ENDMDL
MODEL 8
REMARK VINA RESULT:      -8.1      2.689      9.656
REMARK  Name = 
REMARK  5 active torsions:
REMARK  status: ('A' for Active; 'I' for Inactive)
REMARK    1  A    between atoms: N_2  and  C_4
REMARK    2  A    between atoms: C_9  and  C_10
REMARK    3  A    between atoms: C_13  and  C_14
REMARK    4  A    between atoms: C_18  and  O_19
REMARK    5  A    between atoms: C_20  and  O_21
REMARK                            x       y       z     vdW  Elec       q    Type
REMARK                         _______ _______ _______ _____ _____    ______ ____
ROOT
ATOM      1  C   UNL     1       1.873   8.817  18.585  0.00  0.00    +0.000 A 
ATOM      2  N   UNL     1       1.800   9.950  17.908  0.00  0.00    +0.000 NA
ATOM      3  N   UNL     1       1.029  10.815  18.659  0.00  0.00    +0.000 NA
ATOM      4  C   UNL     1       0.658  10.145  19.733  0.00  0.00    +0.000 A 
ATOM      5  O   UNL     1       1.178   8.879  19.763  0.00  0.00    +0.000 OA
ENDROOT
BRANCH   1  11
ATOM      6  C   UNL     1       5.568   4.774  16.271  0.00  0.00    +0.000 A 
ATOM      7  C   UNL     1       4.700   3.809  16.810  0.00  0.00    +0.000 A 
ATOM      8  C   UNL     1       3.572   4.199  17.547  0.00  0.00    +0.000 A 
ATOM      9  C   UNL     1       3.325   5.571  17.722  0.00  0.00    +0.000 A 
ATOM     10  C   UNL     1       2.325   6.339  18.370  0.00  0.00    +0.000 A 
ATOM     11  C   UNL     1       2.621   7.675  18.158  0.00  0.00    +0.000 A 
ATOM     12  O   UNL     1       3.784   7.758  17.427  0.00  0.00    +0.000 OA
ATOM     13  C   UNL     1       4.203   6.490  17.166  0.00  0.00    +0.000 A 
ATOM     14  C   UNL     1       5.342   6.151  16.439  0.00  0.00    +0.000 A 
BRANCH   6  16
ATOM     15  O   UNL     1       7.859   4.508  16.006  0.00  0.00    +0.000 OA
ATOM     16  N   UNL     1       6.741   4.330  15.504  0.00  0.00    +0.000 N 
ATOM     17  O   UNL     1       6.541   3.802  14.400  0.00  0.00    +0.000 OA
ENDBRANCH   6  16
ENDBRANCH   1  11
BRANCH   4  18
ATOM     18  C   UNL     1      -0.130  10.578  20.874  0.00  0.00    +0.000 A 
ATOM     19  C   UNL     1      -0.057   9.856  22.079  0.00  0.00    +0.000 A 
ATOM     20  C   UNL     1      -0.804  10.238  23.200  0.00  0.00    +0.000 A 
ATOM     21  C   UNL     1      -1.636  11.357  23.142  0.00  0.00    +0.000 A 
ATOM     22  C   UNL     1      -1.704  12.081  21.958  0.00  0.00    +0.000 A 
ATOM     23  C   UNL     1      -0.960  11.702  20.837  0.00  0.00    +0.000 A 
BRANCH  22  24
ATOM     24  O   UNL     1      -2.492  13.195  21.840  0.00  0.00    +0.000 OA
ATOM     25  H   UNL     1      -1.923  13.947  21.597  0.00  0.00    +0.000 HD
ENDBRANCH  22  24
BRANCH  23  26
ATOM     26  O   UNL     1      -1.052  12.485  19.717  0.00  0.00    +0.000 OA
ATOM     27  H   UNL     1      -2.001  12.476  19.478  0.00  0.00    +0.000 HD
ENDBRANCH  23  26
ENDBRANCH   4  18
TORSDOF 5
ENDMDL
MODEL 9
REMARK VINA RESULT:      -8.0      2.363      9.092
REMARK  Name = 
REMARK  5 active torsions:
REMARK  status: ('A' for Active; 'I' for Inactive)
REMARK    1  A    between atoms: N_2  and  C_4
REMARK    2  A    between atoms: C_9  and  C_10
REMARK    3  A    between atoms: C_13  and  C_14
REMARK    4  A    between atoms: C_18  and  O_19
REMARK    5  A    between atoms: C_20  and  O_21
REMARK                            x       y       z     vdW  Elec       q    Type
REMARK                         _______ _______ _______ _____ _____    ______ ____
ROOT
ATOM      1  C   UNL     1       2.735   6.444  19.741  0.00  0.00    +0.000 A 
ATOM      2  N   UNL     1       1.978   5.607  20.430  0.00  0.00    +0.000 NA
ATOM      3  N   UNL     1       1.027   6.369  21.077  0.00  0.00    +0.000 NA
ATOM      4  C   UNL     1       1.280   7.624  20.764  0.00  0.00    +0.000 A 
ATOM      5  O   UNL     1       2.335   7.744  19.900  0.00  0.00    +0.000 OA
ENDROOT
BRANCH   1  11
ATOM      6  C   UNL     1       6.568   4.970  15.441  0.00  0.00    +0.000 A 
ATOM      7  C   UNL     1       7.396   4.494  16.471  0.00  0.00    +0.000 A 
ATOM      8  C   UNL     1       6.999   4.605  17.812  0.00  0.00    +0.000 A 
ATOM      9  C   UNL     1       5.755   5.190  18.098  0.00  0.00    +0.000 A 
ATOM     10  C   UNL     1       5.019   5.465  19.278  0.00  0.00    +0.000 A 
ATOM     11  C   UNL     1       3.817   6.037  18.898  0.00  0.00    +0.000 A 
ATOM     12  O   UNL     1       3.797   6.151  17.527  0.00  0.00    +0.000 OA
ATOM     13  C   UNL     1       4.964   5.639  17.050  0.00  0.00    +0.000 A 
ATOM     14  C   UNL     1       5.321   5.563  15.705  0.00  0.00    +0.000 A 
BRANCH   6  16
ATOM     15  O   UNL     1       6.458   3.985  13.341  0.00  0.00    +0.000 OA
ATOM     16  N   UNL     1       7.015   4.837  14.046  0.00  0.00    +0.000 N 
ATOM     17  O   UNL     1       7.922   5.587  13.658  0.00  0.00    +0.000 OA
ENDBRANCH   6  16
ENDBRANCH   1  11
BRANCH   4  18
ATOM     18  C   UNL     1       0.572   8.838  21.136  0.00  0.00    +0.000 A 
ATOM     19  C   UNL     1       0.222   9.049  22.481  0.00  0.00    +0.000 A 
ATOM     20  C   UNL     1      -0.464  10.203  22.879  0.00  0.00    +0.000 A 
ATOM     21  C   UNL     1      -0.808  11.176  21.939  0.00  0.00    +0.000 A 
ATOM     22  C   UNL     1      -0.455  10.978  20.611  0.00  0.00    +0.000 A 
ATOM     23  C   UNL     1       0.229   9.827  20.210  0.00  0.00    +0.000 A 
BRANCH  22  24
ATOM     24  O   UNL     1      -0.752  11.900  19.642  0.00  0.00    +0.000 OA
ATOM     25  H   UNL     1      -0.040  11.886  18.979  0.00  0.00    +0.000 HD
ENDBRANCH  22  24
BRANCH  23  26
ATOM     26  O   UNL     1       0.575   9.719  18.888  0.00  0.00    +0.000 OA
ATOM     27  H   UNL     1       1.221   8.985  18.854  0.00  0.00    +0.000 HD
ENDBRANCH  23  26
ENDBRANCH   4  18
TORSDOF 5
ENDMDL
