MODEL 1
REMARK VINA RESULT:      -8.6      0.000      0.000
REMARK  Name = 
REMARK  7 active torsions:
REMARK  status: ('A' for Active; 'I' for Inactive)
REMARK    1  A    between atoms: C_1  and  O_2
REMARK    2  A    between atoms: O_2  and  C_3
REMARK    3  A    between atoms: C_5  and  C_6
REMARK    4  A    between atoms: C_9  and  O_10
REMARK    5  A    between atoms: O_10  and  C_11
REMARK    6  A    between atoms: C_14  and  C_15
REMARK    7  A    between atoms: C_19  and  C_20
REMARK                            x       y       z     vdW  Elec       q    Type
REMARK                         _______ _______ _______ _____ _____    ______ ____
ROOT
ATOM      1  C   UNL     1       3.838   5.123  18.434  0.00  0.00    +0.000 A 
ATOM      2  C   UNL     1       3.720   6.418  17.923  0.00  0.00    +0.000 A 
ATOM      3  C   UNL     1       2.988   7.382  18.620  0.00  0.00    +0.000 A 
ATOM      4  C   UNL     1       2.307   7.061  19.802  0.00  0.00    +0.000 A 
ATOM      5  C   UNL     1       2.407   5.756  20.298  0.00  0.00    +0.000 A 
ATOM      6  C   UNL     1       3.166   4.799  19.617  0.00  0.00    +0.000 A 
ATOM      7 CL   UNL     1       3.221   3.200  20.278  0.00  0.00    +0.000 Cl
ENDROOT
BRANCH   4   8
ATOM      8  C   UNL     1       1.494   8.091  20.447  0.00  0.00    +0.000 A 
ATOM      9  N   UNL     1       0.921   9.111  19.833  0.00  0.00    +0.000 NA
ATOM     10  C   UNL     1       0.262   9.816  20.803  0.00  0.00    +0.000 A 
ATOM     11  C   UNL     1      -0.371  11.058  20.726  0.00  0.00    +0.000 A 
ATOM     12  C   UNL     1      -0.866  11.623  21.914  0.00  0.00    +0.000 A 
ATOM     13  C   UNL     1      -0.925  10.861  23.092  0.00  0.00    +0.000 A 
ATOM     14  C   UNL     1      -0.323   9.599  23.171  0.00  0.00    +0.000 A 
ATOM     15  C   UNL     1       0.332   9.162  22.023  0.00  0.00    +0.000 A 
ATOM     16  N   UNL     1       1.197   8.125  21.790  0.00  0.00    +0.000 N 
ATOM     17  H   UNL     1       1.589   7.524  22.496  0.00  0.00    +0.000 HD
BRANCH  12  18
ATOM     18  C   UNL     1      -1.139  13.088  21.886  0.00  0.00    +0.000 C 
ATOM     19  N   UNL     1      -1.624  13.642  20.734  0.00  0.00    +0.000 N 
ATOM     20  O   UNL     1      -1.033  13.780  22.890  0.00  0.00    +0.000 OA
ATOM     21  H   UNL     1      -1.853  13.133  19.896  0.00  0.00    +0.000 HD
ATOM     22  H   UNL     1      -1.973  14.588  20.817  0.00  0.00    +0.000 HD
ENDBRANCH  12  18
ENDBRANCH   4   8
BRANCH   1  23
ATOM     23  O   UNL     1       4.533   4.110  17.811  0.00  0.00    +0.000 OA
BRANCH  23  30
ATOM     24  C   UNL     1       6.755   4.575  16.853  0.00  0.00    +0.000 A 
ATOM     25  C   UNL     1       7.503   4.750  15.680  0.00  0.00    +0.000 A 
ATOM     26  C   UNL     1       6.890   4.726  14.418  0.00  0.00    +0.000 A 
ATOM     27  C   UNL     1       7.708   4.895  13.172  0.00  0.00    +0.000 C 
ATOM     28  C   UNL     1       5.513   4.523  14.338  0.00  0.00    +0.000 A 
ATOM     29  C   UNL     1       4.757   4.332  15.497  0.00  0.00    +0.000 A 
ATOM     30  C   UNL     1       5.372   4.375  16.752  0.00  0.00    +0.000 A 
BRANCH  24  32
ATOM     31  C   UNL     1       7.594   5.812  18.678  0.00  0.00    +0.000 C 
ATOM     32  O   UNL     1       7.335   4.534  18.095  0.00  0.00    +0.000 OA
ENDBRANCH  24  32
ENDBRANCH  23  30
ENDBRANCH   1  23
TORSDOF 5
ENDMDL
MODEL 2
REMARK VINA RESULT:      -8.4      1.463      1.989
REMARK  Name = 
REMARK  7 active torsions:
REMARK  status: ('A' for Active; 'I' for Inactive)
REMARK    1  A    between atoms: C_1  and  O_2
REMARK    2  A    between atoms: O_2  and  C_3
REMARK    3  A    between atoms: C_5  and  C_6
REMARK    4  A    between atoms: C_9  and  O_10
REMARK    5  A    between atoms: O_10  and  C_11
REMARK    6  A    between atoms: C_14  and  C_15
REMARK    7  A    between atoms: C_19  and  C_20
REMARK                            x       y       z     vdW  Elec       q    Type
REMARK                         _______ _______ _______ _____ _____    ______ ____
ROOT
ATOM      1  C   UNL     1       3.051   5.745  19.270  0.00  0.00    +0.000 A 
ATOM      2  C   UNL     1       2.990   6.948  18.561  0.00  0.00    +0.000 A 
ATOM      3  C   UNL     1       2.243   8.018  19.060  0.00  0.00    +0.000 A 
ATOM      4  C   UNL     1       1.491   7.890  20.236  0.00  0.00    +0.000 A 
ATOM      5  C   UNL     1       1.534   6.676  20.929  0.00  0.00    +0.000 A 
ATOM      6  C   UNL     1       2.308   5.615  20.447  0.00  0.00    +0.000 A 
ATOM      7 CL   UNL     1       2.290   4.136  21.346  0.00  0.00    +0.000 Cl
ENDROOT
BRANCH   4   8
ATOM      8  C   UNL     1       0.666   9.018  20.669  0.00  0.00    +0.000 A 
ATOM      9  N   UNL     1       0.411   9.345  21.923  0.00  0.00    +0.000 NA
ATOM     10  C   UNL     1      -0.389  10.453  21.872  0.00  0.00    +0.000 A 
ATOM     11  C   UNL     1      -1.070  11.107  22.900  0.00  0.00    +0.000 A 
ATOM     12  C   UNL     1      -1.937  12.158  22.554  0.00  0.00    +0.000 A 
ATOM     13  C   UNL     1      -1.938  12.679  21.250  0.00  0.00    +0.000 A 
ATOM     14  C   UNL     1      -1.230  12.050  20.218  0.00  0.00    +0.000 A 
ATOM     15  C   UNL     1      -0.543  10.891  20.566  0.00  0.00    +0.000 A 
ATOM     16  N   UNL     1       0.054   9.911  19.818  0.00  0.00    +0.000 N 
ATOM     17  H   UNL     1       0.005   9.832  18.816  0.00  0.00    +0.000 HD
BRANCH  12  18
ATOM     18  C   UNL     1      -2.949  12.545  23.579  0.00  0.00    +0.000 C 
ATOM     19  N   UNL     1      -3.081  13.866  23.904  0.00  0.00    +0.000 N 
ATOM     20  O   UNL     1      -3.722  11.725  24.057  0.00  0.00    +0.000 OA
ATOM     21  H   UNL     1      -2.572  14.622  23.478  0.00  0.00    +0.000 HD
ATOM     22  H   UNL     1      -3.898  14.102  24.451  0.00  0.00    +0.000 HD
ENDBRANCH  12  18
ENDBRANCH   4   8
BRANCH   1  23
ATOM     23  O   UNL     1       3.756   4.639  18.848  0.00  0.00    +0.000 OA
BRANCH  23  30
ATOM     24  C   UNL     1       6.005   5.143  17.976  0.00  0.00    +0.000 A 
ATOM     25  C   UNL     1       6.856   5.107  16.862  0.00  0.00    +0.000 A 
ATOM     26  C   UNL     1       6.396   4.668  15.612  0.00  0.00    +0.000 A 
ATOM     27  C   UNL     1       7.324   4.617  14.434  0.00  0.00    +0.000 C 
ATOM     28  C   UNL     1       5.068   4.261  15.483  0.00  0.00    +0.000 A 
ATOM     29  C   UNL     1       4.213   4.277  16.587  0.00  0.00    +0.000 A 
ATOM     30  C   UNL     1       4.673   4.732  17.826  0.00  0.00    +0.000 A 
BRANCH  24  32
ATOM     31  C   UNL     1       7.835   5.813  19.305  0.00  0.00    +0.000 C 
ATOM     32  O   UNL     1       6.442   5.510  19.223  0.00  0.00    +0.000 OA
ENDBRANCH  24  32
ENDBRANCH  23  30
ENDBRANCH   1  23
TORSDOF 5
ENDMDL
MODEL 3
REMARK VINA RESULT:      -8.4      3.272      9.918
REMARK  Name = 
REMARK  7 active torsions:
REMARK  status: ('A' for Active; 'I' for Inactive)
REMARK    1  A    between atoms: C_1  and  O_2
REMARK    2  A    between atoms: O_2  and  C_3
REMARK    3  A    between atoms: C_5  and  C_6
REMARK    4  A    between atoms: C_9  and  O_10
REMARK    5  A    between atoms: O_10  and  C_11
REMARK    6  A    between atoms: C_14  and  C_15
REMARK    7  A    between atoms: C_19  and  C_20
REMARK                            x       y       z     vdW  Elec       q    Type
REMARK                         _______ _______ _______ _____ _____    ______ ____
ROOT
ATOM      1  C   UNL     1       0.389   9.967  19.962  0.00  0.00    +0.000 A 
ATOM      2  C   UNL     1       0.624  10.005  18.585  0.00  0.00    +0.000 A 
ATOM      3  C   UNL     1       1.427   9.033  17.985  0.00  0.00    +0.000 A 
ATOM      4  C   UNL     1       2.063   8.045  18.748  0.00  0.00    +0.000 A 
ATOM      5  C   UNL     1       1.846   8.025  20.130  0.00  0.00    +0.000 A 
ATOM      6  C   UNL     1       1.015   8.979  20.728  0.00  0.00    +0.000 A 
ATOM      7 CL   UNL     1       0.815   8.904  22.446  0.00  0.00    +0.000 Cl
ENDROOT
BRANCH   4   8
ATOM      8  C   UNL     1       2.954   7.101  18.075  0.00  0.00    +0.000 A 
ATOM      9  N   UNL     1       4.060   7.420  17.426  0.00  0.00    +0.000 NA
ATOM     10  C   UNL     1       4.578   6.243  16.959  0.00  0.00    +0.000 A 
ATOM     11  C   UNL     1       5.645   6.026  16.084  0.00  0.00    +0.000 A 
ATOM     12  C   UNL     1       5.893   4.709  15.660  0.00  0.00    +0.000 A 
ATOM     13  C   UNL     1       5.239   3.629  16.274  0.00  0.00    +0.000 A 
ATOM     14  C   UNL     1       4.191   3.836  17.180  0.00  0.00    +0.000 A 
ATOM     15  C   UNL     1       3.844   5.162  17.420  0.00  0.00    +0.000 A 
ATOM     16  N   UNL     1       2.768   5.738  18.042  0.00  0.00    +0.000 N 
ATOM     17  H   UNL     1       1.954   5.246  18.371  0.00  0.00    +0.000 HD
BRANCH  12  18
ATOM     18  C   UNL     1       6.728   4.556  14.433  0.00  0.00    +0.000 C 
ATOM     19  N   UNL     1       6.383   3.598  13.521  0.00  0.00    +0.000 N 
ATOM     20  O   UNL     1       7.646   5.326  14.183  0.00  0.00    +0.000 OA
ATOM     21  H   UNL     1       5.577   2.999  13.586  0.00  0.00    +0.000 HD
ATOM     22  H   UNL     1       6.852   3.657  12.627  0.00  0.00    +0.000 HD
ENDBRANCH  12  18
ENDBRANCH   4   8
BRANCH   1  23
ATOM     23  O   UNL     1      -0.383  10.887  20.637  0.00  0.00    +0.000 OA
BRANCH  23  30
ATOM     24  C   UNL     1      -1.249  13.067  19.882  0.00  0.00    +0.000 A 
ATOM     25  C   UNL     1      -1.002  14.442  19.771  0.00  0.00    +0.000 A 
ATOM     26  C   UNL     1       0.226  14.992  20.167  0.00  0.00    +0.000 A 
ATOM     27  C   UNL     1       0.468  16.469  20.060  0.00  0.00    +0.000 C 
ATOM     28  C   UNL     1       1.212  14.150  20.681  0.00  0.00    +0.000 A 
ATOM     29  C   UNL     1       0.974  12.780  20.812  0.00  0.00    +0.000 A 
ATOM     30  C   UNL     1      -0.246  12.236  20.398  0.00  0.00    +0.000 A 
BRANCH  24  32
ATOM     31  C   UNL     1      -2.505  11.873  18.280  0.00  0.00    +0.000 C 
ATOM     32  O   UNL     1      -2.461  12.509  19.558  0.00  0.00    +0.000 OA
ENDBRANCH  24  32
ENDBRANCH  23  30
ENDBRANCH   1  23
TORSDOF 5
ENDMDL
MODEL 4
REMARK VINA RESULT:      -8.3      3.364     10.106
REMARK  Name = 
REMARK  7 active torsions:
REMARK  status: ('A' for Active; 'I' for Inactive)
REMARK    1  A    between atoms: C_1  and  O_2
REMARK    2  A    between atoms: O_2  and  C_3
REMARK    3  A    between atoms: C_5  and  C_6
REMARK    4  A    between atoms: C_9  and  O_10
REMARK    5  A    between atoms: O_10  and  C_11
REMARK    6  A    between atoms: C_14  and  C_15
REMARK    7  A    between atoms: C_19  and  C_20
REMARK                            x       y       z     vdW  Elec       q    Type
REMARK                         _______ _______ _______ _____ _____    ______ ____
ROOT
ATOM      1  C   UNL     1       0.513  10.378  19.740  0.00  0.00    +0.000 A 
ATOM      2  C   UNL     1       1.070  10.543  18.468  0.00  0.00    +0.000 A 
ATOM      3  C   UNL     1       1.833   9.520  17.900  0.00  0.00    +0.000 A 
ATOM      4  C   UNL     1       2.112   8.344  18.610  0.00  0.00    +0.000 A 
ATOM      5  C   UNL     1       1.574   8.193  19.893  0.00  0.00    +0.000 A 
ATOM      6  C   UNL     1       0.783   9.204  20.449  0.00  0.00    +0.000 A 
ATOM      7 CL   UNL     1       0.174   8.956  22.051  0.00  0.00    +0.000 Cl
ENDROOT
BRANCH   4   8
ATOM      8  C   UNL     1       2.981   7.342  17.995  0.00  0.00    +0.000 A 
ATOM      9  N   UNL     1       4.100   7.595  17.340  0.00  0.00    +0.000 NA
ATOM     10  C   UNL     1       4.589   6.381  16.940  0.00  0.00    +0.000 A 
ATOM     11  C   UNL     1       5.655   6.089  16.086  0.00  0.00    +0.000 A 
ATOM     12  C   UNL     1       5.870   4.745  15.735  0.00  0.00    +0.000 A 
ATOM     13  C   UNL     1       5.181   3.717  16.401  0.00  0.00    +0.000 A 
ATOM     14  C   UNL     1       4.134   4.001  17.285  0.00  0.00    +0.000 A 
ATOM     15  C   UNL     1       3.821   5.347  17.451  0.00  0.00    +0.000 A 
ATOM     16  N   UNL     1       2.758   5.984  18.034  0.00  0.00    +0.000 N 
ATOM     17  H   UNL     1       1.928   5.533  18.382  0.00  0.00    +0.000 HD
BRANCH  12  18
ATOM     18  C   UNL     1       6.708   4.504  14.525  0.00  0.00    +0.000 C 
ATOM     19  N   UNL     1       6.340   3.512  13.660  0.00  0.00    +0.000 N 
ATOM     20  O   UNL     1       7.652   5.231  14.245  0.00  0.00    +0.000 OA
ATOM     21  H   UNL     1       5.515   2.943  13.747  0.00  0.00    +0.000 HD
ATOM     22  H   UNL     1       6.817   3.511  12.768  0.00  0.00    +0.000 HD
ENDBRANCH  12  18
ENDBRANCH   4   8
BRANCH   1  23
ATOM     23  O   UNL     1      -0.245  11.335  20.377  0.00  0.00    +0.000 OA
BRANCH  23  30
ATOM     24  C   UNL     1      -2.425  12.451  20.646  0.00  0.00    +0.000 A 
ATOM     25  C   UNL     1      -3.692  12.679  20.090  0.00  0.00    +0.000 A 
ATOM     26  C   UNL     1      -4.083  12.056  18.896  0.00  0.00    +0.000 A 
ATOM     27  C   UNL     1      -5.435  12.325  18.304  0.00  0.00    +0.000 C 
ATOM     28  C   UNL     1      -3.189  11.198  18.255  0.00  0.00    +0.000 A 
ATOM     29  C   UNL     1      -1.918  10.974  18.789  0.00  0.00    +0.000 A 
ATOM     30  C   UNL     1      -1.542  11.584  19.989  0.00  0.00    +0.000 A 
BRANCH  24  32
ATOM     31  C   UNL     1      -2.660  14.323  22.063  0.00  0.00    +0.000 C 
ATOM     32  O   UNL     1      -1.994  13.092  21.780  0.00  0.00    +0.000 OA
ENDBRANCH  24  32
ENDBRANCH  23  30
ENDBRANCH   1  23
TORSDOF 5
ENDMDL
MODEL 5
REMARK VINA RESULT:      -8.2      5.908      8.044
REMARK  Name = 
REMARK  7 active torsions:
REMARK  status: ('A' for Active; 'I' for Inactive)
REMARK    1  A    between atoms: C_1  and  O_2
REMARK    2  A    between atoms: O_2  and  C_3
REMARK    3  A    between atoms: C_5  and  C_6
REMARK    4  A    between atoms: C_9  and  O_10
REMARK    5  A    between atoms: O_10  and  C_11
REMARK    6  A    between atoms: C_14  and  C_15
REMARK    7  A    between atoms: C_19  and  C_20
REMARK                            x       y       z     vdW  Elec       q    Type
REMARK                         _______ _______ _______ _____ _____    ______ ____
ROOT
ATOM      1  C   UNL     1       7.348   6.004  18.039  0.00  0.00    +0.000 A 
ATOM      2  C   UNL     1       7.081   7.009  17.105  0.00  0.00    +0.000 A 
ATOM      3  C   UNL     1       7.629   8.283  17.270  0.00  0.00    +0.000 A 
ATOM      4  C   UNL     1       8.396   8.601  18.398  0.00  0.00    +0.000 A 
ATOM      5  C   UNL     1       8.641   7.600  19.345  0.00  0.00    +0.000 A 
ATOM      6  C   UNL     1       8.119   6.314  19.163  0.00  0.00    +0.000 A 
ATOM      7 CL   UNL     1       8.443   5.137  20.390  0.00  0.00    +0.000 Cl
ENDROOT
BRANCH   4   8
ATOM      8  C   UNL     1       8.879   9.972  18.557  0.00  0.00    +0.000 A 
ATOM      9  N   UNL     1       8.718  10.947  17.681  0.00  0.00    +0.000 NA
ATOM     10  C   UNL     1       9.315  12.051  18.226  0.00  0.00    +0.000 A 
ATOM     11  C   UNL     1       9.570  13.299  17.654  0.00  0.00    +0.000 A 
ATOM     12  C   UNL     1      10.322  14.225  18.398  0.00  0.00    +0.000 A 
ATOM     13  C   UNL     1      10.606  13.985  19.753  0.00  0.00    +0.000 A 
ATOM     14  C   UNL     1      10.323  12.749  20.345  0.00  0.00    +0.000 A 
ATOM     15  C   UNL     1       9.758  11.787  19.512  0.00  0.00    +0.000 A 
ATOM     16  N   UNL     1       9.555  10.440  19.660  0.00  0.00    +0.000 N 
ATOM     17  H   UNL     1       9.895   9.881  20.425  0.00  0.00    +0.000 HD
BRANCH  12  18
ATOM     18  C   UNL     1      10.933  15.348  17.631  0.00  0.00    +0.000 C 
ATOM     19  N   UNL     1      10.869  15.321  16.266  0.00  0.00    +0.000 N 
ATOM     20  O   UNL     1      11.398  16.330  18.195  0.00  0.00    +0.000 OA
ATOM     21  H   UNL     1      10.404  14.614  15.721  0.00  0.00    +0.000 HD
ATOM     22  H   UNL     1      11.120  16.182  15.799  0.00  0.00    +0.000 HD
ENDBRANCH  12  18
ENDBRANCH   4   8
BRANCH   1  23
ATOM     23  O   UNL     1       6.844   4.725  17.958  0.00  0.00    +0.000 OA
BRANCH  23  30
ATOM     24  C   UNL     1       4.797   3.924  16.845  0.00  0.00    +0.000 A 
ATOM     25  C   UNL     1       3.424   3.671  16.976  0.00  0.00    +0.000 A 
ATOM     26  C   UNL     1       2.739   3.984  18.160  0.00  0.00    +0.000 A 
ATOM     27  C   UNL     1       1.274   3.690  18.291  0.00  0.00    +0.000 C 
ATOM     28  C   UNL     1       3.443   4.555  19.220  0.00  0.00    +0.000 A 
ATOM     29  C   UNL     1       4.814   4.797  19.109  0.00  0.00    +0.000 A 
ATOM     30  C   UNL     1       5.487   4.499  17.920  0.00  0.00    +0.000 A 
BRANCH  24  32
ATOM     31  C   UNL     1       5.512   4.558  14.689  0.00  0.00    +0.000 C 
ATOM     32  O   UNL     1       5.505   3.574  15.723  0.00  0.00    +0.000 OA
ENDBRANCH  24  32
ENDBRANCH  23  30
ENDBRANCH   1  23
TORSDOF 5
ENDMDL
MODEL 6
REMARK VINA RESULT:      -8.1      3.223      9.822
REMARK  Name = 
REMARK  7 active torsions:
REMARK  status: ('A' for Active; 'I' for Inactive)
REMARK    1  A    between atoms: C_1  and  O_2
REMARK    2  A    between atoms: O_2  and  C_3
REMARK    3  A    between atoms: C_5  and  C_6
REMARK    4  A    between atoms: C_9  and  O_10
REMARK    5  A    between atoms: O_10  and  C_11
REMARK    6  A    between atoms: C_14  and  C_15
REMARK    7  A    between atoms: C_19  and  C_20
REMARK                            x       y       z     vdW  Elec       q    Type
REMARK                         _______ _______ _______ _____ _____    ______ ____
ROOT
ATOM      1  C   UNL     1       0.191  10.055  19.777  0.00  0.00    +0.000 A 
ATOM      2  C   UNL     1       0.442  10.036  18.402  0.00  0.00    +0.000 A 
ATOM      3  C   UNL     1       1.276   9.058  17.856  0.00  0.00    +0.000 A 
ATOM      4  C   UNL     1       1.927   8.123  18.671  0.00  0.00    +0.000 A 
ATOM      5  C   UNL     1       1.694   8.160  20.050  0.00  0.00    +0.000 A 
ATOM      6  C   UNL     1       0.833   9.119  20.594  0.00  0.00    +0.000 A 
ATOM      7 CL   UNL     1       0.614   9.119  22.311  0.00  0.00    +0.000 Cl
ENDROOT
BRANCH   4   8
ATOM      8  C   UNL     1       2.850   7.172  18.052  0.00  0.00    +0.000 A 
ATOM      9  N   UNL     1       3.964   7.487  17.417  0.00  0.00    +0.000 NA
ATOM     10  C   UNL     1       4.514   6.304  17.004  0.00  0.00    +0.000 A 
ATOM     11  C   UNL     1       5.603   6.075  16.161  0.00  0.00    +0.000 A 
ATOM     12  C   UNL     1       5.884   4.749  15.790  0.00  0.00    +0.000 A 
ATOM     13  C   UNL     1       5.235   3.680  16.429  0.00  0.00    +0.000 A 
ATOM     14  C   UNL     1       4.165   3.900  17.304  0.00  0.00    +0.000 A 
ATOM     15  C   UNL     1       3.788   5.227  17.488  0.00  0.00    +0.000 A 
ATOM     16  N   UNL     1       2.689   5.805  18.065  0.00  0.00    +0.000 N 
ATOM     17  H   UNL     1       1.876   5.310  18.395  0.00  0.00    +0.000 HD
BRANCH  12  18
ATOM     18  C   UNL     1       6.749   4.567  14.589  0.00  0.00    +0.000 C 
ATOM     19  N   UNL     1       6.470   3.541  13.730  0.00  0.00    +0.000 N 
ATOM     20  O   UNL     1       7.632   5.367  14.308  0.00  0.00    +0.000 OA
ATOM     21  H   UNL     1       5.694   2.906  13.817  0.00  0.00    +0.000 HD
ATOM     22  H   UNL     1       6.953   3.572  12.841  0.00  0.00    +0.000 HD
ENDBRANCH  12  18
ENDBRANCH   4   8
BRANCH   1  23
ATOM     23  O   UNL     1      -0.611  10.985  20.400  0.00  0.00    +0.000 OA
BRANCH  23  30
ATOM     24  C   UNL     1      -0.183  13.316  21.074  0.00  0.00    +0.000 A 
ATOM     25  C   UNL     1       0.008  14.637  20.642  0.00  0.00    +0.000 A 
ATOM     26  C   UNL     1      -0.093  14.977  19.285  0.00  0.00    +0.000 A 
ATOM     27  C   UNL     1       0.133  16.390  18.836  0.00  0.00    +0.000 C 
ATOM     28  C   UNL     1      -0.387  13.979  18.356  0.00  0.00    +0.000 A 
ATOM     29  C   UNL     1      -0.564  12.658  18.770  0.00  0.00    +0.000 A 
ATOM     30  C   UNL     1      -0.480  12.328  20.126  0.00  0.00    +0.000 A 
BRANCH  24  32
ATOM     31  C   UNL     1      -1.236  12.958  23.155  0.00  0.00    +0.000 C 
ATOM     32  O   UNL     1      -0.033  12.943  22.386  0.00  0.00    +0.000 OA
ENDBRANCH  24  32
ENDBRANCH  23  30
ENDBRANCH   1  23
TORSDOF 5
ENDMDL
MODEL 7
REMARK VINA RESULT:      -8.1      3.136      9.871
REMARK  Name = 
REMARK  7 active torsions:
REMARK  status: ('A' for Active; 'I' for Inactive)
REMARK    1  A    between atoms: C_1  and  O_2
REMARK    2  A    between atoms: O_2  and  C_3
REMARK    3  A    between atoms: C_5  and  C_6
REMARK    4  A    between atoms: C_9  and  O_10
REMARK    5  A    between atoms: O_10  and  C_11
REMARK    6  A    between atoms: C_14  and  C_15
REMARK    7  A    between atoms: C_19  and  C_20
REMARK                            x       y       z     vdW  Elec       q    Type
REMARK                         _______ _______ _______ _____ _____    ______ ____
ROOT
ATOM      1  C   UNL     1       0.151  10.120  19.835  0.00  0.00    +0.000 A 
ATOM      2  C   UNL     1       0.364  10.085  18.455  0.00  0.00    +0.000 A 
ATOM      3  C   UNL     1       1.195   9.110  17.898  0.00  0.00    +0.000 A 
ATOM      4  C   UNL     1       1.880   8.194  18.707  0.00  0.00    +0.000 A 
ATOM      5  C   UNL     1       1.685   8.248  20.092  0.00  0.00    +0.000 A 
ATOM      6  C   UNL     1       0.828   9.204  20.647  0.00  0.00    +0.000 A 
ATOM      7 CL   UNL     1       0.657   9.225  22.370  0.00  0.00    +0.000 Cl
ENDROOT
BRANCH   4   8
ATOM      8  C   UNL     1       2.797   7.246  18.075  0.00  0.00    +0.000 A 
ATOM      9  N   UNL     1       3.890   7.566  17.406  0.00  0.00    +0.000 NA
ATOM     10  C   UNL     1       4.442   6.385  16.993  0.00  0.00    +0.000 A 
ATOM     11  C   UNL     1       5.511   6.158  16.124  0.00  0.00    +0.000 A 
ATOM     12  C   UNL     1       5.798   4.830  15.762  0.00  0.00    +0.000 A 
ATOM     13  C   UNL     1       5.179   3.762  16.431  0.00  0.00    +0.000 A 
ATOM     14  C   UNL     1       4.129   3.980  17.331  0.00  0.00    +0.000 A 
ATOM     15  C   UNL     1       3.742   5.306  17.509  0.00  0.00    +0.000 A 
ATOM     16  N   UNL     1       2.652   5.878  18.109  0.00  0.00    +0.000 N 
ATOM     17  H   UNL     1       1.855   5.378  18.466  0.00  0.00    +0.000 HD
BRANCH  12  18
ATOM     18  C   UNL     1       6.632   4.644  14.540  0.00  0.00    +0.000 C 
ATOM     19  N   UNL     1       7.750   5.414  14.386  0.00  0.00    +0.000 N 
ATOM     20  O   UNL     1       6.392   3.758  13.730  0.00  0.00    +0.000 OA
ATOM     21  H   UNL     1       8.090   6.085  15.055  0.00  0.00    +0.000 HD
ATOM     22  H   UNL     1       8.382   5.125  13.651  0.00  0.00    +0.000 HD
ENDBRANCH  12  18
ENDBRANCH   4   8
BRANCH   1  23
ATOM     23  O   UNL     1      -0.645  11.049  20.468  0.00  0.00    +0.000 OA
BRANCH  23  30
ATOM     24  C   UNL     1      -0.172  12.980  21.923  0.00  0.00    +0.000 A 
ATOM     25  C   UNL     1       0.390  14.262  22.010  0.00  0.00    +0.000 A 
ATOM     26  C   UNL     1       0.918  14.900  20.878  0.00  0.00    +0.000 A 
ATOM     27  C   UNL     1       1.533  16.264  20.990  0.00  0.00    +0.000 C 
ATOM     28  C   UNL     1       0.883  14.240  19.649  0.00  0.00    +0.000 A 
ATOM     29  C   UNL     1       0.342  12.957  19.552  0.00  0.00    +0.000 A 
ATOM     30  C   UNL     1      -0.200  12.334  20.680  0.00  0.00    +0.000 A 
BRANCH  24  32
ATOM     31  C   UNL     1      -2.045  12.446  23.254  0.00  0.00    +0.000 C 
ATOM     32  O   UNL     1      -0.642  12.308  23.023  0.00  0.00    +0.000 OA
ENDBRANCH  24  32
ENDBRANCH  23  30
ENDBRANCH   1  23
TORSDOF 5
ENDMDL
MODEL 8
REMARK VINA RESULT:      -8.0      1.107      1.650
REMARK  Name = 
REMARK  7 active torsions:
REMARK  status: ('A' for Active; 'I' for Inactive)
REMARK    1  A    between atoms: C_1  and  O_2
REMARK    2  A    between atoms: O_2  and  C_3
REMARK    3  A    between atoms: C_5  and  C_6
REMARK    4  A    between atoms: C_9  and  O_10
REMARK    5  A    between atoms: O_10  and  C_11
REMARK    6  A    between atoms: C_14  and  C_15
REMARK    7  A    between atoms: C_19  and  C_20
REMARK                            x       y       z     vdW  Elec       q    Type
REMARK                         _______ _______ _______ _____ _____    ______ ____
ROOT
ATOM      1  C   UNL     1       3.779   5.694  18.432  0.00  0.00    +0.000 A 
ATOM      2  C   UNL     1       3.714   6.902  17.734  0.00  0.00    +0.000 A 
ATOM      3  C   UNL     1       2.914   7.943  18.209  0.00  0.00    +0.000 A 
ATOM      4  C   UNL     1       2.113   7.780  19.348  0.00  0.00    +0.000 A 
ATOM      5  C   UNL     1       2.161   6.559  20.030  0.00  0.00    +0.000 A 
ATOM      6  C   UNL     1       2.988   5.528  19.572  0.00  0.00    +0.000 A 
ATOM      7 CL   UNL     1       2.974   4.038  20.454  0.00  0.00    +0.000 Cl
ENDROOT
BRANCH   4   8
ATOM      8  C   UNL     1       1.236   8.878  19.754  0.00  0.00    +0.000 A 
ATOM      9  N   UNL     1       0.978   9.232  21.000  0.00  0.00    +0.000 NA
ATOM     10  C   UNL     1       0.121  10.296  20.923  0.00  0.00    +0.000 A 
ATOM     11  C   UNL     1      -0.581  10.948  21.938  0.00  0.00    +0.000 A 
ATOM     12  C   UNL     1      -1.505  11.942  21.569  0.00  0.00    +0.000 A 
ATOM     13  C   UNL     1      -1.547  12.418  20.248  0.00  0.00    +0.000 A 
ATOM     14  C   UNL     1      -0.819  11.793  19.229  0.00  0.00    +0.000 A 
ATOM     15  C   UNL     1      -0.069  10.682  19.605  0.00  0.00    +0.000 A 
ATOM     16  N   UNL     1       0.570   9.710  18.882  0.00  0.00    +0.000 N 
ATOM     17  H   UNL     1       0.515   9.595  17.884  0.00  0.00    +0.000 HD
BRANCH  12  18
ATOM     18  C   UNL     1      -2.524  12.309  22.593  0.00  0.00    +0.000 C 
ATOM     19  N   UNL     1      -3.228  13.470  22.430  0.00  0.00    +0.000 N 
ATOM     20  O   UNL     1      -2.809  11.554  23.514  0.00  0.00    +0.000 OA
ATOM     21  H   UNL     1      -3.145  14.093  21.644  0.00  0.00    +0.000 HD
ATOM     22  H   UNL     1      -4.032  13.582  23.033  0.00  0.00    +0.000 HD
ENDBRANCH  12  18
ENDBRANCH   4   8
BRANCH   1  23
ATOM     23  O   UNL     1       4.536   4.614  18.032  0.00  0.00    +0.000 OA
BRANCH  23  30
ATOM     24  C   UNL     1       6.685   4.882  16.857  0.00  0.00    +0.000 A 
ATOM     25  C   UNL     1       7.353   4.828  15.626  0.00  0.00    +0.000 A 
ATOM     26  C   UNL     1       6.659   4.567  14.435  0.00  0.00    +0.000 A 
ATOM     27  C   UNL     1       7.390   4.494  13.128  0.00  0.00    +0.000 C 
ATOM     28  C   UNL     1       5.281   4.356  14.486  0.00  0.00    +0.000 A 
ATOM     29  C   UNL     1       4.605   4.391  15.708  0.00  0.00    +0.000 A 
ATOM     30  C   UNL     1       5.300   4.670  16.889  0.00  0.00    +0.000 A 
BRANCH  24  32
ATOM     31  C   UNL     1       7.599   6.444  18.371  0.00  0.00    +0.000 C 
ATOM     32  O   UNL     1       7.346   5.077  18.044  0.00  0.00    +0.000 OA
ENDBRANCH  24  32
ENDBRANCH  23  30
ENDBRANCH   1  23
TORSDOF 5
ENDMDL
MODEL 9
REMARK VINA RESULT:      -8.0      1.209      1.463
REMARK  Name = 
REMARK  7 active torsions:
REMARK  status: ('A' for Active; 'I' for Inactive)
REMARK    1  A    between atoms: C_1  and  O_2
REMARK    2  A    between atoms: O_2  and  C_3
REMARK    3  A    between atoms: C_5  and  C_6
REMARK    4  A    between atoms: C_9  and  O_10
REMARK    5  A    between atoms: O_10  and  C_11
REMARK    6  A    between atoms: C_14  and  C_15
REMARK    7  A    between atoms: C_19  and  C_20
REMARK                            x       y       z     vdW  Elec       q    Type
REMARK                         _______ _______ _______ _____ _____    ______ ____
ROOT
ATOM      1  C   UNL     1       3.034   5.825  19.218  0.00  0.00    +0.000 A 
ATOM      2  C   UNL     1       2.963   7.030  18.514  0.00  0.00    +0.000 A 
ATOM      3  C   UNL     1       2.208   8.092  19.018  0.00  0.00    +0.000 A 
ATOM      4  C   UNL     1       1.458   7.954  20.193  0.00  0.00    +0.000 A 
ATOM      5  C   UNL     1       1.511   6.738  20.882  0.00  0.00    +0.000 A 
ATOM      6  C   UNL     1       2.293   5.685  20.396  0.00  0.00    +0.000 A 
ATOM      7 CL   UNL     1       2.288   4.202  21.289  0.00  0.00    +0.000 Cl
ENDROOT
BRANCH   4   8
ATOM      8  C   UNL     1       0.625   9.074  20.631  0.00  0.00    +0.000 A 
ATOM      9  N   UNL     1      -0.030   9.899  19.835  0.00  0.00    +0.000 NA
ATOM     10  C   UNL     1      -0.675  10.785  20.653  0.00  0.00    +0.000 A 
ATOM     11  C   UNL     1      -1.375  11.950  20.329  0.00  0.00    +0.000 A 
ATOM     12  C   UNL     1      -1.839  12.756  21.383  0.00  0.00    +0.000 A 
ATOM     13  C   UNL     1      -1.800  12.288  22.707  0.00  0.00    +0.000 A 
ATOM     14  C   UNL     1      -1.131  11.104  23.037  0.00  0.00    +0.000 A 
ATOM     15  C   UNL     1      -0.511  10.437  21.984  0.00  0.00    +0.000 A 
ATOM     16  N   UNL     1       0.393   9.409  21.946  0.00  0.00    +0.000 N 
ATOM     17  H   UNL     1       0.851   9.005  22.746  0.00  0.00    +0.000 HD
BRANCH  12  18
ATOM     18  C   UNL     1      -2.189  14.163  21.033  0.00  0.00    +0.000 C 
ATOM     19  N   UNL     1      -1.650  14.711  19.903  0.00  0.00    +0.000 N 
ATOM     20  O   UNL     1      -3.015  14.796  21.677  0.00  0.00    +0.000 OA
ATOM     21  H   UNL     1      -1.055  14.228  19.250  0.00  0.00    +0.000 HD
ATOM     22  H   UNL     1      -2.060  15.586  19.604  0.00  0.00    +0.000 HD
ENDBRANCH  12  18
ENDBRANCH   4   8
BRANCH   1  23
ATOM     23  O   UNL     1       3.747   4.726  18.792  0.00  0.00    +0.000 OA
BRANCH  23  30
ATOM     24  C   UNL     1       5.954   5.307  17.863  0.00  0.00    +0.000 A 
ATOM     25  C   UNL     1       6.790   5.269  16.738  0.00  0.00    +0.000 A 
ATOM     26  C   UNL     1       6.334   4.758  15.513  0.00  0.00    +0.000 A 
ATOM     27  C   UNL     1       7.246   4.707  14.324  0.00  0.00    +0.000 C 
ATOM     28  C   UNL     1       5.027   4.280  15.423  0.00  0.00    +0.000 A 
ATOM     29  C   UNL     1       4.189   4.297  16.540  0.00  0.00    +0.000 A 
ATOM     30  C   UNL     1       4.644   4.824  17.752  0.00  0.00    +0.000 A 
BRANCH  24  32
ATOM     31  C   UNL     1       7.806   5.698  19.272  0.00  0.00    +0.000 C 
ATOM     32  O   UNL     1       6.390   5.745  19.088  0.00  0.00    +0.000 OA
ENDBRANCH  24  32
ENDBRANCH  23  30
ENDBRANCH   1  23
TORSDOF 5
ENDMDL
