MODEL 1
REMARK VINA RESULT:      -8.6      0.000      0.000
REMARK  Name = 
REMARK  7 active torsions:
REMARK  status: ('A' for Active; 'I' for Inactive)
REMARK    1  A    between atoms: C_1  and  N_2
REMARK    2  A    between atoms: C_3  and  C_4
REMARK    3  A    between atoms: C_10  and  C_12
REMARK    4  A    between atoms: C_15  and  C_16
REMARK    5  A    between atoms: C_16  and  C_17
REMARK    6  A    between atoms: C_16  and  C_18
REMARK    7  A    between atoms: C_16  and  C_19
REMARK                            x       y       z     vdW  Elec       q    Type
REMARK                         _______ _______ _______ _____ _____    ______ ____
ROOT
ATOM      1  C   UNL     1      -0.888  11.668  20.555  0.00  0.00    +0.000 A 
ATOM      2  N   UNL     1      -1.021  12.633  21.472  0.00  0.00    +0.000 NA
ATOM      3  O   UNL     1      -0.194  12.260  22.515  0.00  0.00    +0.000 OA
ATOM      4  N   UNL     1       0.453  11.078  22.233  0.00  0.00    +0.000 NA
ATOM      5  C   UNL     1       0.030  10.694  21.024  0.00  0.00    +0.000 A 
ATOM      6  N   UNL     1       0.455   9.543  20.362  0.00  0.00    +0.000 N 
ATOM      7  C   UNL     1       1.200   8.580  21.003  0.00  0.00    +0.000 C 
ATOM      8  O   UNL     1       1.434   8.552  22.209  0.00  0.00    +0.000 OA
ATOM      9  H   UNL     1       0.156   9.458  19.399  0.00  0.00    +0.000 HD
ENDROOT
BRANCH   1  12
ATOM     10  C   UNL     1      -3.882  12.663  20.076  0.00  0.00    +0.000 C 
ATOM     11  N   UNL     1      -3.003  12.013  19.133  0.00  0.00    +0.000 N 
ATOM     12  C   UNL     1      -1.683  11.641  19.290  0.00  0.00    +0.000 A 
ATOM     13  N   UNL     1      -1.199  11.157  18.157  0.00  0.00    +0.000 NA
ATOM     14  C   UNL     1      -2.276  11.066  17.303  0.00  0.00    +0.000 A 
ATOM     15  C   UNL     1      -2.363  10.515  16.016  0.00  0.00    +0.000 A 
ATOM     16  C   UNL     1      -3.610  10.489  15.373  0.00  0.00    +0.000 A 
ATOM     17  C   UNL     1      -4.743  11.027  15.986  0.00  0.00    +0.000 A 
ATOM     18  C   UNL     1      -4.669  11.604  17.257  0.00  0.00    +0.000 A 
ATOM     19  C   UNL     1      -3.421  11.592  17.890  0.00  0.00    +0.000 A 
ENDBRANCH   1  12
BRANCH   7  20
ATOM     20  C   UNL     1       1.755   7.453  20.193  0.00  0.00    +0.000 A 
ATOM     21  C   UNL     1       2.302   7.792  18.948  0.00  0.00    +0.000 A 
ATOM     22  C   UNL     1       2.938   6.839  18.151  0.00  0.00    +0.000 A 
ATOM     23  C   UNL     1       3.059   5.510  18.574  0.00  0.00    +0.000 A 
ATOM     24  C   UNL     1       2.451   5.165  19.801  0.00  0.00    +0.000 A 
ATOM     25  C   UNL     1       1.810   6.122  20.607  0.00  0.00    +0.000 A 
BRANCH  23  26
ATOM     26  C   UNL     1       3.878   4.478  17.776  0.00  0.00    +0.000 C 
ATOM     27  C   UNL     1       4.687   5.101  16.613  0.00  0.00    +0.000 C 
ATOM     28  C   UNL     1       4.897   3.804  18.723  0.00  0.00    +0.000 C 
ATOM     29  C   UNL     1       2.957   3.402  17.171  0.00  0.00    +0.000 C 
ENDBRANCH  23  26
ENDBRANCH   7  20
TORSDOF 3
ENDMDL
MODEL 2
REMARK VINA RESULT:      -8.5      0.416      1.305
REMARK  Name = 
REMARK  7 active torsions:
REMARK  status: ('A' for Active; 'I' for Inactive)
REMARK    1  A    between atoms: C_1  and  N_2
REMARK    2  A    between atoms: C_3  and  C_4
REMARK    3  A    between atoms: C_10  and  C_12
REMARK    4  A    between atoms: C_15  and  C_16
REMARK    5  A    between atoms: C_16  and  C_17
REMARK    6  A    between atoms: C_16  and  C_18
REMARK    7  A    between atoms: C_16  and  C_19
REMARK                            x       y       z     vdW  Elec       q    Type
REMARK                         _______ _______ _______ _____ _____    ______ ____
ROOT
ATOM      1  C   UNL     1      -1.014  11.621  20.796  0.00  0.00    +0.000 A 
ATOM      2  N   UNL     1      -1.234  12.520  21.761  0.00  0.00    +0.000 NA
ATOM      3  O   UNL     1      -0.437  12.122  22.818  0.00  0.00    +0.000 OA
ATOM      4  N   UNL     1       0.279  10.991  22.497  0.00  0.00    +0.000 NA
ATOM      5  C   UNL     1      -0.072  10.663  21.249  0.00  0.00    +0.000 A 
ATOM      6  N   UNL     1       0.438   9.575  20.540  0.00  0.00    +0.000 N 
ATOM      7  C   UNL     1       1.200   8.610  21.158  0.00  0.00    +0.000 C 
ATOM      8  O   UNL     1       1.382   8.519  22.370  0.00  0.00    +0.000 OA
ATOM      9  H   UNL     1       0.186   9.535  19.562  0.00  0.00    +0.000 HD
ENDROOT
BRANCH   1  12
ATOM     10  C   UNL     1      -3.966  12.679  20.202  0.00  0.00    +0.000 C 
ATOM     11  N   UNL     1      -3.056  12.034  19.287  0.00  0.00    +0.000 N 
ATOM     12  C   UNL     1      -1.751  11.634  19.496  0.00  0.00    +0.000 A 
ATOM     13  N   UNL     1      -1.224  11.165  18.375  0.00  0.00    +0.000 NA
ATOM     14  C   UNL     1      -2.262  11.112  17.471  0.00  0.00    +0.000 A 
ATOM     15  C   UNL     1      -2.299  10.589  16.171  0.00  0.00    +0.000 A 
ATOM     16  C   UNL     1      -3.515  10.600  15.471  0.00  0.00    +0.000 A 
ATOM     17  C   UNL     1      -4.666  11.145  16.043  0.00  0.00    +0.000 A 
ATOM     18  C   UNL     1      -4.641  11.694  17.328  0.00  0.00    +0.000 A 
ATOM     19  C   UNL     1      -3.423  11.646  18.017  0.00  0.00    +0.000 A 
ENDBRANCH   1  12
BRANCH   7  20
ATOM     20  C   UNL     1       1.845   7.561  20.310  0.00  0.00    +0.000 A 
ATOM     21  C   UNL     1       1.934   6.278  20.868  0.00  0.00    +0.000 A 
ATOM     22  C   UNL     1       2.424   5.199  20.131  0.00  0.00    +0.000 A 
ATOM     23  C   UNL     1       2.839   5.362  18.804  0.00  0.00    +0.000 A 
ATOM     24  C   UNL     1       2.804   6.669  18.272  0.00  0.00    +0.000 A 
ATOM     25  C   UNL     1       2.309   7.759  19.010  0.00  0.00    +0.000 A 
BRANCH  23  26
ATOM     26  C   UNL     1       3.249   4.160  17.932  0.00  0.00    +0.000 C 
ATOM     27  C   UNL     1       3.973   3.043  18.722  0.00  0.00    +0.000 C 
ATOM     28  C   UNL     1       1.981   3.528  17.317  0.00  0.00    +0.000 C 
ATOM     29  C   UNL     1       4.194   4.607  16.800  0.00  0.00    +0.000 C 
ENDBRANCH  23  26
ENDBRANCH   7  20
TORSDOF 3
ENDMDL
MODEL 3
REMARK VINA RESULT:      -8.3      0.701      1.053
REMARK  Name = 
REMARK  7 active torsions:
REMARK  status: ('A' for Active; 'I' for Inactive)
REMARK    1  A    between atoms: C_1  and  N_2
REMARK    2  A    between atoms: C_3  and  C_4
REMARK    3  A    between atoms: C_10  and  C_12
REMARK    4  A    between atoms: C_15  and  C_16
REMARK    5  A    between atoms: C_16  and  C_17
REMARK    6  A    between atoms: C_16  and  C_18
REMARK    7  A    between atoms: C_16  and  C_19
REMARK                            x       y       z     vdW  Elec       q    Type
REMARK                         _______ _______ _______ _____ _____    ______ ____
ROOT
ATOM      1  C   UNL     1      -0.907  11.117  20.777  0.00  0.00    +0.000 A 
ATOM      2  N   UNL     1      -1.185  11.879  21.840  0.00  0.00    +0.000 NA
ATOM      3  O   UNL     1      -0.376  11.400  22.854  0.00  0.00    +0.000 OA
ATOM      4  N   UNL     1       0.404  10.356  22.410  0.00  0.00    +0.000 NA
ATOM      5  C   UNL     1       0.084  10.164  21.126  0.00  0.00    +0.000 A 
ATOM      6  N   UNL     1       0.659   9.200  20.299  0.00  0.00    +0.000 N 
ATOM      7  C   UNL     1       1.468   8.210  20.807  0.00  0.00    +0.000 C 
ATOM      8  O   UNL     1       1.645   7.982  22.002  0.00  0.00    +0.000 OA
ATOM      9  H   UNL     1       0.418   9.265  19.319  0.00  0.00    +0.000 HD
ENDROOT
BRANCH   1  12
ATOM     10  C   UNL     1      -3.626  12.676  20.173  0.00  0.00    +0.000 C 
ATOM     11  N   UNL     1      -2.846  11.871  19.265  0.00  0.00    +0.000 N 
ATOM     12  C   UNL     1      -1.632  11.249  19.477  0.00  0.00    +0.000 A 
ATOM     13  N   UNL     1      -1.199  10.682  18.361  0.00  0.00    +0.000 NA
ATOM     14  C   UNL     1      -2.232  10.805  17.458  0.00  0.00    +0.000 A 
ATOM     15  C   UNL     1      -2.363  10.285  16.162  0.00  0.00    +0.000 A 
ATOM     16  C   UNL     1      -3.559  10.504  15.463  0.00  0.00    +0.000 A 
ATOM     17  C   UNL     1      -4.594  11.250  16.030  0.00  0.00    +0.000 A 
ATOM     18  C   UNL     1      -4.470  11.798  17.309  0.00  0.00    +0.000 A 
ATOM     19  C   UNL     1      -3.278  11.543  17.999  0.00  0.00    +0.000 A 
ENDBRANCH   1  12
BRANCH   7  20
ATOM     20  C   UNL     1       2.178   7.308  19.848  0.00  0.00    +0.000 A 
ATOM     21  C   UNL     1       2.688   7.910  18.689  0.00  0.00    +0.000 A 
ATOM     22  C   UNL     1       3.454   7.188  17.774  0.00  0.00    +0.000 A 
ATOM     23  C   UNL     1       3.746   5.835  17.987  0.00  0.00    +0.000 A 
ATOM     24  C   UNL     1       3.177   5.223  19.124  0.00  0.00    +0.000 A 
ATOM     25  C   UNL     1       2.405   5.947  20.050  0.00  0.00    +0.000 A 
BRANCH  23  26
ATOM     26  C   UNL     1       4.705   5.060  17.063  0.00  0.00    +0.000 C 
ATOM     27  C   UNL     1       6.023   4.639  17.757  0.00  0.00    +0.000 C 
ATOM     28  C   UNL     1       4.010   3.763  16.591  0.00  0.00    +0.000 C 
ATOM     29  C   UNL     1       5.083   5.910  15.836  0.00  0.00    +0.000 C 
ENDBRANCH  23  26
ENDBRANCH   7  20
TORSDOF 3
ENDMDL
MODEL 4
REMARK VINA RESULT:      -8.3      0.803      1.566
REMARK  Name = 
REMARK  7 active torsions:
REMARK  status: ('A' for Active; 'I' for Inactive)
REMARK    1  A    between atoms: C_1  and  N_2
REMARK    2  A    between atoms: C_3  and  C_4
REMARK    3  A    between atoms: C_10  and  C_12
REMARK    4  A    between atoms: C_15  and  C_16
REMARK    5  A    between atoms: C_16  and  C_17
REMARK    6  A    between atoms: C_16  and  C_18
REMARK    7  A    between atoms: C_16  and  C_19
REMARK                            x       y       z     vdW  Elec       q    Type
REMARK                         _______ _______ _______ _____ _____    ______ ____
ROOT
ATOM      1  C   UNL     1      -0.576  11.696  20.248  0.00  0.00    +0.000 A 
ATOM      2  N   UNL     1      -0.588  12.778  21.033  0.00  0.00    +0.000 NA
ATOM      3  O   UNL     1       0.264  12.478  22.080  0.00  0.00    +0.000 OA
ATOM      4  N   UNL     1       0.805  11.221  21.930  0.00  0.00    +0.000 NA
ATOM      5  C   UNL     1       0.291  10.720  20.803  0.00  0.00    +0.000 A 
ATOM      6  N   UNL     1       0.594   9.462  20.281  0.00  0.00    +0.000 N 
ATOM      7  C   UNL     1       1.298   8.534  21.012  0.00  0.00    +0.000 C 
ATOM      8  O   UNL     1       1.595   8.643  22.200  0.00  0.00    +0.000 OA
ATOM      9  H   UNL     1       0.238   9.277  19.353  0.00  0.00    +0.000 HD
ENDROOT
BRANCH   1  12
ATOM     10  C   UNL     1      -3.594  12.657  19.852  0.00  0.00    +0.000 C 
ATOM     11  N   UNL     1      -2.765  11.931  18.919  0.00  0.00    +0.000 N 
ATOM     12  C   UNL     1      -1.438  11.569  19.034  0.00  0.00    +0.000 A 
ATOM     13  N   UNL     1      -1.015  10.993  17.920  0.00  0.00    +0.000 NA
ATOM     14  C   UNL     1      -2.137  10.837  17.135  0.00  0.00    +0.000 A 
ATOM     15  C   UNL     1      -2.292  10.185  15.903  0.00  0.00    +0.000 A 
ATOM     16  C   UNL     1      -3.571  10.111  15.332  0.00  0.00    +0.000 A 
ATOM     17  C   UNL     1      -4.670  10.700  15.959  0.00  0.00    +0.000 A 
ATOM     18  C   UNL     1      -4.529  11.377  17.174  0.00  0.00    +0.000 A 
ATOM     19  C   UNL     1      -3.248  11.412  17.738  0.00  0.00    +0.000 A 
ENDBRANCH   1  12
BRANCH   7  20
ATOM     20  C   UNL     1       1.725   7.270  20.336  0.00  0.00    +0.000 A 
ATOM     21  C   UNL     1       1.494   6.079  21.040  0.00  0.00    +0.000 A 
ATOM     22  C   UNL     1       1.758   4.835  20.467  0.00  0.00    +0.000 A 
ATOM     23  C   UNL     1       2.258   4.734  19.163  0.00  0.00    +0.000 A 
ATOM     24  C   UNL     1       2.546   5.938  18.486  0.00  0.00    +0.000 A 
ATOM     25  C   UNL     1       2.280   7.195  19.059  0.00  0.00    +0.000 A 
BRANCH  23  26
ATOM     26  C   UNL     1       2.423   3.371  18.464  0.00  0.00    +0.000 C 
ATOM     27  C   UNL     1       1.163   2.477  18.552  0.00  0.00    +0.000 C 
ATOM     28  C   UNL     1       2.704   3.606  16.963  0.00  0.00    +0.000 C 
ATOM     29  C   UNL     1       3.591   2.580  19.082  0.00  0.00    +0.000 C 
ENDBRANCH  23  26
ENDBRANCH   7  20
TORSDOF 3
ENDMDL
MODEL 5
REMARK VINA RESULT:      -8.3      3.904      8.858
REMARK  Name = 
REMARK  7 active torsions:
REMARK  status: ('A' for Active; 'I' for Inactive)
REMARK    1  A    between atoms: C_1  and  N_2
REMARK    2  A    between atoms: C_3  and  C_4
REMARK    3  A    between atoms: C_10  and  C_12
REMARK    4  A    between atoms: C_15  and  C_16
REMARK    5  A    between atoms: C_16  and  C_17
REMARK    6  A    between atoms: C_16  and  C_18
REMARK    7  A    between atoms: C_16  and  C_19
REMARK                            x       y       z     vdW  Elec       q    Type
REMARK                         _______ _______ _______ _____ _____    ______ ____
ROOT
ATOM      1  C   UNL     1       3.288   3.679  19.195  0.00  0.00    +0.000 A 
ATOM      2  N   UNL     1       3.069   2.492  19.772  0.00  0.00    +0.000 NA
ATOM      3  O   UNL     1       2.122   2.732  20.750  0.00  0.00    +0.000 OA
ATOM      4  N   UNL     1       1.752   4.058  20.763  0.00  0.00    +0.000 NA
ATOM      5  C   UNL     1       2.469   4.661  19.809  0.00  0.00    +0.000 A 
ATOM      6  N   UNL     1       2.385   6.015  19.487  0.00  0.00    +0.000 N 
ATOM      7  C   UNL     1       1.697   6.900  20.285  0.00  0.00    +0.000 C 
ATOM      8  O   UNL     1       1.231   6.642  21.392  0.00  0.00    +0.000 OA
ATOM      9  H   UNL     1       2.883   6.297  18.654  0.00  0.00    +0.000 HD
ENDROOT
BRANCH   1  12
ATOM     10  C   UNL     1       6.045   5.276  19.382  0.00  0.00    +0.000 C 
ATOM     11  N   UNL     1       5.466   4.640  18.223  0.00  0.00    +0.000 N 
ATOM     12  C   UNL     1       4.316   3.881  18.130  0.00  0.00    +0.000 A 
ATOM     13  N   UNL     1       4.177   3.396  16.906  0.00  0.00    +0.000 NA
ATOM     14  C   UNL     1       5.171   3.987  16.158  0.00  0.00    +0.000 A 
ATOM     15  C   UNL     1       5.420   3.925  14.779  0.00  0.00    +0.000 A 
ATOM     16  C   UNL     1       6.474   4.682  14.246  0.00  0.00    +0.000 A 
ATOM     17  C   UNL     1       7.284   5.463  15.072  0.00  0.00    +0.000 A 
ATOM     18  C   UNL     1       7.067   5.516  16.452  0.00  0.00    +0.000 A 
ATOM     19  C   UNL     1       5.991   4.775  16.956  0.00  0.00    +0.000 A 
ENDBRANCH   1  12
BRANCH   7  20
ATOM     20  C   UNL     1       1.513   8.302  19.799  0.00  0.00    +0.000 A 
ATOM     21  C   UNL     1       0.912   9.197  20.694  0.00  0.00    +0.000 A 
ATOM     22  C   UNL     1       0.781  10.552  20.388  0.00  0.00    +0.000 A 
ATOM     23  C   UNL     1       1.253  11.065  19.174  0.00  0.00    +0.000 A 
ATOM     24  C   UNL     1       1.800  10.146  18.253  0.00  0.00    +0.000 A 
ATOM     25  C   UNL     1       1.936   8.780  18.559  0.00  0.00    +0.000 A 
BRANCH  23  26
ATOM     26  C   UNL     1       1.246  12.577  18.877  0.00  0.00    +0.000 C 
ATOM     27  C   UNL     1      -0.075  13.073  18.241  0.00  0.00    +0.000 C 
ATOM     28  C   UNL     1       1.427  13.351  20.202  0.00  0.00    +0.000 C 
ATOM     29  C   UNL     1       2.388  12.947  17.912  0.00  0.00    +0.000 C 
ENDBRANCH  23  26
ENDBRANCH   7  20
TORSDOF 3
ENDMDL
MODEL 6
REMARK VINA RESULT:      -7.8      2.769      4.358
REMARK  Name = 
REMARK  7 active torsions:
REMARK  status: ('A' for Active; 'I' for Inactive)
REMARK    1  A    between atoms: C_1  and  N_2
REMARK    2  A    between atoms: C_3  and  C_4
REMARK    3  A    between atoms: C_10  and  C_12
REMARK    4  A    between atoms: C_15  and  C_16
REMARK    5  A    between atoms: C_16  and  C_17
REMARK    6  A    between atoms: C_16  and  C_18
REMARK    7  A    between atoms: C_16  and  C_19
REMARK                            x       y       z     vdW  Elec       q    Type
REMARK                         _______ _______ _______ _____ _____    ______ ____
ROOT
ATOM      1  C   UNL     1       0.186  12.109  21.952  0.00  0.00    +0.000 A 
ATOM      2  N   UNL     1      -0.660  12.598  22.866  0.00  0.00    +0.000 NA
ATOM      3  O   UNL     1      -1.283  11.492  23.414  0.00  0.00    +0.000 OA
ATOM      4  N   UNL     1      -0.812  10.329  22.846  0.00  0.00    +0.000 NA
ATOM      5  C   UNL     1       0.095  10.694  21.934  0.00  0.00    +0.000 A 
ATOM      6  N   UNL     1       0.822   9.810  21.138  0.00  0.00    +0.000 N 
ATOM      7  C   UNL     1       0.504   8.472  21.077  0.00  0.00    +0.000 C 
ATOM      8  O   UNL     1      -0.497   7.959  21.572  0.00  0.00    +0.000 OA
ATOM      9  H   UNL     1       1.569  10.223  20.596  0.00  0.00    +0.000 HD
ENDROOT
BRANCH   1  12
ATOM     10  C   UNL     1      -0.125  12.582  18.811  0.00  0.00    +0.000 C 
ATOM     11  N   UNL     1       0.890  13.111  19.691  0.00  0.00    +0.000 N 
ATOM     12  C   UNL     1       1.005  12.985  21.061  0.00  0.00    +0.000 A 
ATOM     13  N   UNL     1       2.026  13.698  21.508  0.00  0.00    +0.000 NA
ATOM     14  C   UNL     1       2.676  14.161  20.386  0.00  0.00    +0.000 A 
ATOM     15  C   UNL     1       3.881  14.869  20.268  0.00  0.00    +0.000 A 
ATOM     16  C   UNL     1       4.367  15.172  18.988  0.00  0.00    +0.000 A 
ATOM     17  C   UNL     1       3.654  14.804  17.845  0.00  0.00    +0.000 A 
ATOM     18  C   UNL     1       2.438  14.121  17.945  0.00  0.00    +0.000 A 
ATOM     19  C   UNL     1       1.988  13.805  19.232  0.00  0.00    +0.000 A 
ENDBRANCH   1  12
BRANCH   7  20
ATOM     20  C   UNL     1       1.419   7.556  20.331  0.00  0.00    +0.000 A 
ATOM     21  C   UNL     1       1.517   6.244  20.816  0.00  0.00    +0.000 A 
ATOM     22  C   UNL     1       2.261   5.275  20.143  0.00  0.00    +0.000 A 
ATOM     23  C   UNL     1       2.933   5.580  18.952  0.00  0.00    +0.000 A 
ATOM     24  C   UNL     1       2.879   6.918  18.505  0.00  0.00    +0.000 A 
ATOM     25  C   UNL     1       2.129   7.897  19.180  0.00  0.00    +0.000 A 
BRANCH  23  26
ATOM     26  C   UNL     1       3.641   4.493  18.122  0.00  0.00    +0.000 C 
ATOM     27  C   UNL     1       2.664   3.535  17.399  0.00  0.00    +0.000 C 
ATOM     28  C   UNL     1       4.497   5.172  17.029  0.00  0.00    +0.000 C 
ATOM     29  C   UNL     1       4.550   3.631  19.017  0.00  0.00    +0.000 C 
ENDBRANCH  23  26
ENDBRANCH   7  20
TORSDOF 3
ENDMDL
MODEL 7
REMARK VINA RESULT:      -7.7      2.868      4.330
REMARK  Name = 
REMARK  7 active torsions:
REMARK  status: ('A' for Active; 'I' for Inactive)
REMARK    1  A    between atoms: C_1  and  N_2
REMARK    2  A    between atoms: C_3  and  C_4
REMARK    3  A    between atoms: C_10  and  C_12
REMARK    4  A    between atoms: C_15  and  C_16
REMARK    5  A    between atoms: C_16  and  C_17
REMARK    6  A    between atoms: C_16  and  C_18
REMARK    7  A    between atoms: C_16  and  C_19
REMARK                            x       y       z     vdW  Elec       q    Type
REMARK                         _______ _______ _______ _____ _____    ______ ____
ROOT
ATOM      1  C   UNL     1       0.410  10.222  21.445  0.00  0.00    +0.000 A 
ATOM      2  N   UNL     1      -0.540  10.313  22.382  0.00  0.00    +0.000 NA
ATOM      3  O   UNL     1      -0.790   9.011  22.776  0.00  0.00    +0.000 OA
ATOM      4  N   UNL     1       0.014   8.127  22.092  0.00  0.00    +0.000 NA
ATOM      5  C   UNL     1       0.760   8.860  21.258  0.00  0.00    +0.000 A 
ATOM      6  N   UNL     1       1.720   8.344  20.389  0.00  0.00    +0.000 N 
ATOM      7  C   UNL     1       1.829   6.991  20.162  0.00  0.00    +0.000 C 
ATOM      8  O   UNL     1       1.038   6.140  20.561  0.00  0.00    +0.000 OA
ATOM      9  H   UNL     1       2.301   9.029  19.924  0.00  0.00    +0.000 HD
ENDROOT
BRANCH   1  12
ATOM     10  C   UNL     1       0.422  10.702  18.289  0.00  0.00    +0.000 C 
ATOM     11  N   UNL     1       0.972  11.553  19.317  0.00  0.00    +0.000 N 
ATOM     12  C   UNL     1       0.915  11.407  20.689  0.00  0.00    +0.000 A 
ATOM     13  N   UNL     1       1.461  12.453  21.290  0.00  0.00    +0.000 NA
ATOM     14  C   UNL     1       2.023  13.207  20.283  0.00  0.00    +0.000 A 
ATOM     15  C   UNL     1       2.824  14.357  20.357  0.00  0.00    +0.000 A 
ATOM     16  C   UNL     1       3.330  14.906  19.170  0.00  0.00    +0.000 A 
ATOM     17  C   UNL     1       3.024  14.341  17.931  0.00  0.00    +0.000 A 
ATOM     18  C   UNL     1       2.206  13.212  17.837  0.00  0.00    +0.000 A 
ATOM     19  C   UNL     1       1.736  12.664  19.037  0.00  0.00    +0.000 A 
ENDBRANCH   1  12
BRANCH   7  20
ATOM     20  C   UNL     1       2.979   6.497  19.344  0.00  0.00    +0.000 A 
ATOM     21  C   UNL     1       3.245   7.195  18.158  0.00  0.00    +0.000 A 
ATOM     22  C   UNL     1       4.352   6.887  17.367  0.00  0.00    +0.000 A 
ATOM     23  C   UNL     1       5.242   5.871  17.737  0.00  0.00    +0.000 A 
ATOM     24  C   UNL     1       4.932   5.133  18.899  0.00  0.00    +0.000 A 
ATOM     25  C   UNL     1       3.817   5.441  19.700  0.00  0.00    +0.000 A 
BRANCH  23  26
ATOM     26  C   UNL     1       6.543   5.611  16.955  0.00  0.00    +0.000 C 
ATOM     27  C   UNL     1       6.315   5.360  15.445  0.00  0.00    +0.000 C 
ATOM     28  C   UNL     1       7.458   6.850  17.073  0.00  0.00    +0.000 C 
ATOM     29  C   UNL     1       7.280   4.381  17.518  0.00  0.00    +0.000 C 
ENDBRANCH  23  26
ENDBRANCH   7  20
TORSDOF 3
ENDMDL
MODEL 8
REMARK VINA RESULT:      -7.7      1.233      1.480
REMARK  Name = 
REMARK  7 active torsions:
REMARK  status: ('A' for Active; 'I' for Inactive)
REMARK    1  A    between atoms: C_1  and  N_2
REMARK    2  A    between atoms: C_3  and  C_4
REMARK    3  A    between atoms: C_10  and  C_12
REMARK    4  A    between atoms: C_15  and  C_16
REMARK    5  A    between atoms: C_16  and  C_17
REMARK    6  A    between atoms: C_16  and  C_18
REMARK    7  A    between atoms: C_16  and  C_19
REMARK                            x       y       z     vdW  Elec       q    Type
REMARK                         _______ _______ _______ _____ _____    ______ ____
ROOT
ATOM      1  C   UNL     1      -1.800  12.399  21.529  0.00  0.00    +0.000 A 
ATOM      2  N   UNL     1      -1.975  13.316  22.488  0.00  0.00    +0.000 NA
ATOM      3  O   UNL     1      -1.084  12.972  23.488  0.00  0.00    +0.000 OA
ATOM      4  N   UNL     1      -0.358  11.856  23.138  0.00  0.00    +0.000 NA
ATOM      5  C   UNL     1      -0.793  11.484  21.929  0.00  0.00    +0.000 A 
ATOM      6  N   UNL     1      -0.303  10.396  21.208  0.00  0.00    +0.000 N 
ATOM      7  C   UNL     1       0.537   9.473  21.786  0.00  0.00    +0.000 C 
ATOM      8  O   UNL     1       0.817   9.419  22.981  0.00  0.00    +0.000 OA
ATOM      9  H   UNL     1      -0.629  10.323  20.253  0.00  0.00    +0.000 HD
ENDROOT
BRANCH   1  12
ATOM     10  C   UNL     1      -4.894  13.114  21.202  0.00  0.00    +0.000 C 
ATOM     11  N   UNL     1      -3.992  12.602  20.198  0.00  0.00    +0.000 N 
ATOM     12  C   UNL     1      -2.636  12.356  20.292  0.00  0.00    +0.000 A 
ATOM     13  N   UNL     1      -2.151  11.978  19.119  0.00  0.00    +0.000 NA
ATOM     14  C   UNL     1      -3.246  11.822  18.298  0.00  0.00    +0.000 A 
ATOM     15  C   UNL     1      -3.327  11.329  16.987  0.00  0.00    +0.000 A 
ATOM     16  C   UNL     1      -4.589  11.211  16.385  0.00  0.00    +0.000 A 
ATOM     17  C   UNL     1      -5.745  11.603  17.062  0.00  0.00    +0.000 A 
ATOM     18  C   UNL     1      -5.680  12.121  18.358  0.00  0.00    +0.000 A 
ATOM     19  C   UNL     1      -4.413  12.203  18.949  0.00  0.00    +0.000 A 
ENDBRANCH   1  12
BRANCH   7  20
ATOM     20  C   UNL     1       1.149   8.423  20.914  0.00  0.00    +0.000 A 
ATOM     21  C   UNL     1       1.588   8.843  19.650  0.00  0.00    +0.000 A 
ATOM     22  C   UNL     1       2.265   7.975  18.793  0.00  0.00    +0.000 A 
ATOM     23  C   UNL     1       2.535   6.654  19.169  0.00  0.00    +0.000 A 
ATOM     24  C   UNL     1       2.035   6.224  20.417  0.00  0.00    +0.000 A 
ATOM     25  C   UNL     1       1.354   7.095  21.286  0.00  0.00    +0.000 A 
BRANCH  23  26
ATOM     26  C   UNL     1       3.402   5.726  18.298  0.00  0.00    +0.000 C 
ATOM     27  C   UNL     1       4.144   6.465  17.159  0.00  0.00    +0.000 C 
ATOM     28  C   UNL     1       4.481   5.064  19.185  0.00  0.00    +0.000 C 
ATOM     29  C   UNL     1       2.538   4.629  17.646  0.00  0.00    +0.000 C 
ENDBRANCH  23  26
ENDBRANCH   7  20
TORSDOF 3
ENDMDL
MODEL 9
REMARK VINA RESULT:      -7.7      3.060      4.474
REMARK  Name = 
REMARK  7 active torsions:
REMARK  status: ('A' for Active; 'I' for Inactive)
REMARK    1  A    between atoms: C_1  and  N_2
REMARK    2  A    between atoms: C_3  and  C_4
REMARK    3  A    between atoms: C_10  and  C_12
REMARK    4  A    between atoms: C_15  and  C_16
REMARK    5  A    between atoms: C_16  and  C_17
REMARK    6  A    between atoms: C_16  and  C_18
REMARK    7  A    between atoms: C_16  and  C_19
REMARK                            x       y       z     vdW  Elec       q    Type
REMARK                         _______ _______ _______ _____ _____    ______ ____
ROOT
ATOM      1  C   UNL     1       0.397  12.524  21.739  0.00  0.00    +0.000 A 
ATOM      2  N   UNL     1      -0.445  13.019  22.653  0.00  0.00    +0.000 NA
ATOM      3  O   UNL     1      -1.121  11.923  23.157  0.00  0.00    +0.000 OA
ATOM      4  N   UNL     1      -0.685  10.760  22.563  0.00  0.00    +0.000 NA
ATOM      5  C   UNL     1       0.252  11.114  21.677  0.00  0.00    +0.000 A 
ATOM      6  N   UNL     1       0.958  10.225  20.868  0.00  0.00    +0.000 N 
ATOM      7  C   UNL     1       0.589   8.904  20.762  0.00  0.00    +0.000 C 
ATOM      8  O   UNL     1      -0.440   8.416  21.224  0.00  0.00    +0.000 OA
ATOM      9  H   UNL     1       1.731  10.624  20.351  0.00  0.00    +0.000 HD
ENDROOT
BRANCH   1  12
ATOM     10  C   UNL     1      -0.108  13.504  18.744  0.00  0.00    +0.000 C 
ATOM     11  N   UNL     1       1.053  13.738  19.569  0.00  0.00    +0.000 N 
ATOM     12  C   UNL     1       1.266  13.392  20.888  0.00  0.00    +0.000 A 
ATOM     13  N   UNL     1       2.426  13.870  21.312  0.00  0.00    +0.000 NA
ATOM     14  C   UNL     1       3.041  14.395  20.196  0.00  0.00    +0.000 A 
ATOM     15  C   UNL     1       4.330  14.925  20.042  0.00  0.00    +0.000 A 
ATOM     16  C   UNL     1       4.743  15.341  18.768  0.00  0.00    +0.000 A 
ATOM     17  C   UNL     1       3.882  15.259  17.673  0.00  0.00    +0.000 A 
ATOM     18  C   UNL     1       2.585  14.758  17.814  0.00  0.00    +0.000 A 
ATOM     19  C   UNL     1       2.204  14.322  19.089  0.00  0.00    +0.000 A 
ENDBRANCH   1  12
BRANCH   7  20
ATOM     20  C   UNL     1       1.481   7.974  20.004  0.00  0.00    +0.000 A 
ATOM     21  C   UNL     1       1.956   8.435  18.769  0.00  0.00    +0.000 A 
ATOM     22  C   UNL     1       2.874   7.696  18.023  0.00  0.00    +0.000 A 
ATOM     23  C   UNL     1       3.359   6.467  18.488  0.00  0.00    +0.000 A 
ATOM     24  C   UNL     1       2.828   5.982  19.702  0.00  0.00    +0.000 A 
ATOM     25  C   UNL     1       1.903   6.725  20.458  0.00  0.00    +0.000 A 
BRANCH  23  26
ATOM     26  C   UNL     1       4.475   5.706  17.749  0.00  0.00    +0.000 C 
ATOM     27  C   UNL     1       4.000   4.377  17.114  0.00  0.00    +0.000 C 
ATOM     28  C   UNL     1       5.011   6.588  16.599  0.00  0.00    +0.000 C 
ATOM     29  C   UNL     1       5.631   5.368  18.710  0.00  0.00    +0.000 C 
ENDBRANCH  23  26
ENDBRANCH   7  20
TORSDOF 3
ENDMDL
