MODEL 1
REMARK VINA RESULT:      -8.3      0.000      0.000
REMARK  Name = 
REMARK  6 active torsions:
REMARK  status: ('A' for Active; 'I' for Inactive)
REMARK    1  A    between atoms: C_2  and  C_26
REMARK    2  A    between atoms: N_3  and  C_4
REMARK    3  A    between atoms: C_4  and  C_5
REMARK    4  A    between atoms: C_8  and  O_9
REMARK    5  A    between atoms: C_12  and  C_14
REMARK    6  A    between atoms: C_19  and  C_20
REMARK                            x       y       z     vdW  Elec       q    Type
REMARK                         _______ _______ _______ _____ _____    ______ ____
ROOT
ATOM      1  C   UNL     1       3.275   5.932  17.863  0.00  0.00    +0.000 C 
ATOM      2  C   UNL     1       1.808   5.470  17.890  0.00  0.00    +0.000 C 
ATOM      3  C   UNL     1       1.279   5.289  19.313  0.00  0.00    +0.000 C 
ATOM      4  C   UNL     1       2.180   4.363  20.126  0.00  0.00    +0.000 C 
ATOM      5  C   UNL     1       3.650   4.820  20.080  0.00  0.00    +0.000 C 
ATOM      6  N   UNL     1       4.104   5.005  18.688  0.00  0.00    +0.000 N 
ATOM      7  C   UNL     1       5.219   4.253  18.257  0.00  0.00    +0.000 C 
ATOM      8  O   UNL     1       5.829   3.509  19.025  0.00  0.00    +0.000 OA
ENDROOT
BRANCH   7   9
ATOM      9  C   UNL     1       5.716   4.328  16.849  0.00  0.00    +0.000 A 
ATOM     10  C   UNL     1       5.136   3.421  15.942  0.00  0.00    +0.000 A 
ATOM     11  C   UNL     1       5.507   3.403  14.603  0.00  0.00    +0.000 A 
ATOM     12  C   UNL     1       6.419   4.332  14.135  0.00  0.00    +0.000 A 
ATOM     13  C   UNL     1       6.965   5.275  15.012  0.00  0.00    +0.000 A 
ATOM     14  C   UNL     1       6.640   5.315  16.389  0.00  0.00    +0.000 A 
BRANCH  14  15
ATOM     15  C   UNL     1       7.272   6.390  17.225  0.00  0.00    +0.000 A 
ATOM     16  C   UNL     1       7.915   6.092  18.448  0.00  0.00    +0.000 A 
ATOM     17  C   UNL     1       8.507   7.087  19.241  0.00  0.00    +0.000 A 
ATOM     18  C   UNL     1       8.502   8.410  18.813  0.00  0.00    +0.000 A 
ATOM     19  C   UNL     1       7.872   8.737  17.621  0.00  0.00    +0.000 A 
ATOM     20  C   UNL     1       7.242   7.740  16.861  0.00  0.00    +0.000 A 
ENDBRANCH  14  15
ENDBRANCH   7   9
BRANCH   4  21
ATOM     21  O   UNL     1       2.055   3.038  19.607  0.00  0.00    +0.000 OA
ATOM     22  H   UNL     1       2.228   2.437  20.352  0.00  0.00    +0.000 HD
ENDBRANCH   4  21
BRANCH   1  23
ATOM     23  C   UNL     1       3.411   7.418  18.316  0.00  0.00    +0.000 C 
BRANCH  23  26
ATOM     24  O   UNL     1       2.306   9.850  17.446  0.00  0.00    +0.000 OA
ATOM     25  C   UNL     1       1.719   9.233  18.332  0.00  0.00    +0.000 C 
ATOM     26  N   UNL     1       2.167   8.013  18.781  0.00  0.00    +0.000 N 
ATOM     27  H   UNL     1       1.662   7.591  19.561  0.00  0.00    +0.000 HD
BRANCH  25  28
ATOM     28  C   UNL     1       0.501   9.825  18.971  0.00  0.00    +0.000 A 
ATOM     29  C   UNL     1      -0.386  10.493  18.101  0.00  0.00    +0.000 A 
ATOM     30  C   UNL     1      -1.481  11.186  18.597  0.00  0.00    +0.000 A 
ATOM     31  C   UNL     1      -1.674  11.251  19.968  0.00  0.00    +0.000 A 
ATOM     32  C   UNL     1      -0.803  10.585  20.845  0.00  0.00    +0.000 A 
ATOM     33  C   UNL     1      -0.982  10.707  22.229  0.00  0.00    +0.000 A 
ATOM     34  C   UNL     1      -0.152  10.019  23.103  0.00  0.00    +0.000 A 
ATOM     35  C   UNL     1       0.821   9.210  22.558  0.00  0.00    +0.000 A 
ATOM     36  N   UNL     1       1.059   9.106  21.229  0.00  0.00    +0.000 NA
ATOM     37  C   UNL     1       0.278   9.806  20.361  0.00  0.00    +0.000 A 
ENDBRANCH  25  28
ENDBRANCH  23  26
ENDBRANCH   1  23
TORSDOF 6
ENDMDL
MODEL 2
REMARK VINA RESULT:      -8.2      0.837      1.002
REMARK  Name = 
REMARK  6 active torsions:
REMARK  status: ('A' for Active; 'I' for Inactive)
REMARK    1  A    between atoms: C_2  and  C_26
REMARK    2  A    between atoms: N_3  and  C_4
REMARK    3  A    between atoms: C_4  and  C_5
REMARK    4  A    between atoms: C_8  and  O_9
REMARK    5  A    between atoms: C_12  and  C_14
REMARK    6  A    between atoms: C_19  and  C_20
REMARK                            x       y       z     vdW  Elec       q    Type
REMARK                         _______ _______ _______ _____ _____    ______ ____
ROOT
ATOM      1  C   UNL     1       3.144   5.851  17.885  0.00  0.00    +0.000 C 
ATOM      2  C   UNL     1       1.728   5.252  17.935  0.00  0.00    +0.000 C 
ATOM      3  C   UNL     1       1.224   5.061  19.366  0.00  0.00    +0.000 C 
ATOM      4  C   UNL     1       2.214   4.248  20.198  0.00  0.00    +0.000 C 
ATOM      5  C   UNL     1       3.633   4.842  20.129  0.00  0.00    +0.000 C 
ATOM      6  N   UNL     1       4.061   5.031  18.729  0.00  0.00    +0.000 N 
ATOM      7  C   UNL     1       5.241   4.376  18.311  0.00  0.00    +0.000 C 
ATOM      8  O   UNL     1       5.923   3.715  19.095  0.00  0.00    +0.000 OA
ENDROOT
BRANCH   7   9
ATOM      9  C   UNL     1       5.722   4.459  16.898  0.00  0.00    +0.000 A 
ATOM     10  C   UNL     1       5.131   3.557  15.993  0.00  0.00    +0.000 A 
ATOM     11  C   UNL     1       5.488   3.546  14.650  0.00  0.00    +0.000 A 
ATOM     12  C   UNL     1       6.395   4.478  14.177  0.00  0.00    +0.000 A 
ATOM     13  C   UNL     1       6.950   5.416  15.052  0.00  0.00    +0.000 A 
ATOM     14  C   UNL     1       6.641   5.448  16.433  0.00  0.00    +0.000 A 
BRANCH  14  15
ATOM     15  C   UNL     1       7.282   6.518  17.268  0.00  0.00    +0.000 A 
ATOM     16  C   UNL     1       7.944   6.213  18.479  0.00  0.00    +0.000 A 
ATOM     17  C   UNL     1       8.545   7.204  19.271  0.00  0.00    +0.000 A 
ATOM     18  C   UNL     1       8.531   8.529  18.854  0.00  0.00    +0.000 A 
ATOM     19  C   UNL     1       7.882   8.864  17.673  0.00  0.00    +0.000 A 
ATOM     20  C   UNL     1       7.243   7.871  16.915  0.00  0.00    +0.000 A 
ENDBRANCH  14  15
ENDBRANCH   7   9
BRANCH   4  21
ATOM     21  O   UNL     1       2.213   2.903  19.716  0.00  0.00    +0.000 OA
ATOM     22  H   UNL     1       1.527   2.434  20.221  0.00  0.00    +0.000 HD
ENDBRANCH   4  21
BRANCH   1  23
ATOM     23  C   UNL     1       3.139   7.355  18.297  0.00  0.00    +0.000 C 
BRANCH  23  26
ATOM     24  O   UNL     1       2.337   9.878  17.357  0.00  0.00    +0.000 OA
ATOM     25  C   UNL     1       1.512   9.199  17.963  0.00  0.00    +0.000 C 
ATOM     26  N   UNL     1       1.810   7.934  18.414  0.00  0.00    +0.000 N 
ATOM     27  H   UNL     1       1.093   7.456  18.962  0.00  0.00    +0.000 HD
BRANCH  25  28
ATOM     28  C   UNL     1       0.154   9.759  18.253  0.00  0.00    +0.000 A 
ATOM     29  C   UNL     1      -0.813   9.577  17.243  0.00  0.00    +0.000 A 
ATOM     30  C   UNL     1      -2.068  10.162  17.347  0.00  0.00    +0.000 A 
ATOM     31  C   UNL     1      -2.350  10.966  18.441  0.00  0.00    +0.000 A 
ATOM     32  C   UNL     1      -1.397  11.149  19.457  0.00  0.00    +0.000 A 
ATOM     33  C   UNL     1      -1.680  12.008  20.528  0.00  0.00    +0.000 A 
ATOM     34  C   UNL     1      -0.763  12.163  21.557  0.00  0.00    +0.000 A 
ATOM     35  C   UNL     1       0.404  11.433  21.491  0.00  0.00    +0.000 A 
ATOM     36  N   UNL     1       0.735  10.634  20.450  0.00  0.00    +0.000 NA
ATOM     37  C   UNL     1      -0.137  10.501  19.413  0.00  0.00    +0.000 A 
ENDBRANCH  25  28
ENDBRANCH  23  26
ENDBRANCH   1  23
TORSDOF 6
ENDMDL
MODEL 3
REMARK VINA RESULT:      -8.2      8.260     11.807
REMARK  Name = 
REMARK  6 active torsions:
REMARK  status: ('A' for Active; 'I' for Inactive)
REMARK    1  A    between atoms: C_2  and  C_26
REMARK    2  A    between atoms: N_3  and  C_4
REMARK    3  A    between atoms: C_4  and  C_5
REMARK    4  A    between atoms: C_8  and  O_9
REMARK    5  A    between atoms: C_12  and  C_14
REMARK    6  A    between atoms: C_19  and  C_20
REMARK                            x       y       z     vdW  Elec       q    Type
REMARK                         _______ _______ _______ _____ _____    ______ ____
ROOT
ATOM      1  C   UNL     1      -3.711  10.745  18.280  0.00  0.00    +0.000 C 
ATOM      2  C   UNL     1      -3.033   9.626  17.470  0.00  0.00    +0.000 C 
ATOM      3  C   UNL     1      -2.440  10.135  16.156  0.00  0.00    +0.000 C 
ATOM      4  C   UNL     1      -3.485  10.881  15.328  0.00  0.00    +0.000 C 
ATOM      5  C   UNL     1      -4.173  11.987  16.151  0.00  0.00    +0.000 C 
ATOM      6  N   UNL     1      -4.704  11.451  17.419  0.00  0.00    +0.000 N 
ATOM      7  C   UNL     1      -6.087  11.597  17.664  0.00  0.00    +0.000 C 
ATOM      8  O   UNL     1      -6.820  12.198  16.877  0.00  0.00    +0.000 OA
ENDROOT
BRANCH   7   9
ATOM      9  C   UNL     1      -6.727  11.036  18.893  0.00  0.00    +0.000 A 
ATOM     10  C   UNL     1      -6.796   9.632  18.963  0.00  0.00    +0.000 A 
ATOM     11  C   UNL     1      -7.358   8.992  20.062  0.00  0.00    +0.000 A 
ATOM     12  C   UNL     1      -7.805   9.743  21.134  0.00  0.00    +0.000 A 
ATOM     13  C   UNL     1      -7.694  11.137  21.103  0.00  0.00    +0.000 A 
ATOM     14  C   UNL     1      -7.157  11.835  19.995  0.00  0.00    +0.000 A 
BRANCH  14  15
ATOM     15  C   UNL     1      -7.068  13.331  20.089  0.00  0.00    +0.000 A 
ATOM     16  C   UNL     1      -6.096  14.060  19.366  0.00  0.00    +0.000 A 
ATOM     17  C   UNL     1      -6.000  15.457  19.446  0.00  0.00    +0.000 A 
ATOM     18  C   UNL     1      -6.899  16.171  20.229  0.00  0.00    +0.000 A 
ATOM     19  C   UNL     1      -7.860  15.485  20.958  0.00  0.00    +0.000 A 
ATOM     20  C   UNL     1      -7.916  14.084  20.907  0.00  0.00    +0.000 A 
ENDBRANCH  14  15
ENDBRANCH   7   9
BRANCH   4  21
ATOM     21  O   UNL     1      -4.449   9.938  14.858  0.00  0.00    +0.000 OA
ATOM     22  H   UNL     1      -4.036   9.061  14.944  0.00  0.00    +0.000 HD
ENDBRANCH   4  21
BRANCH   1  23
ATOM     23  C   UNL     1      -2.659  11.716  18.899  0.00  0.00    +0.000 C 
BRANCH  23  26
ATOM     24  O   UNL     1      -2.078  11.915  21.640  0.00  0.00    +0.000 OA
ATOM     25  C   UNL     1      -2.913  12.684  21.170  0.00  0.00    +0.000 C 
ATOM     26  N   UNL     1      -3.220  12.684  19.828  0.00  0.00    +0.000 N 
ATOM     27  H   UNL     1      -3.967  13.309  19.523  0.00  0.00    +0.000 HD
BRANCH  25  28
ATOM     28  C   UNL     1      -3.645  13.630  22.069  0.00  0.00    +0.000 A 
ATOM     29  C   UNL     1      -4.614  13.050  22.913  0.00  0.00    +0.000 A 
ATOM     30  C   UNL     1      -5.440  13.843  23.697  0.00  0.00    +0.000 A 
ATOM     31  C   UNL     1      -5.332  15.223  23.612  0.00  0.00    +0.000 A 
ATOM     32  C   UNL     1      -4.367  15.813  22.780  0.00  0.00    +0.000 A 
ATOM     33  C   UNL     1      -4.308  17.208  22.665  0.00  0.00    +0.000 A 
ATOM     34  C   UNL     1      -3.332  17.802  21.879  0.00  0.00    +0.000 A 
ATOM     35  C   UNL     1      -2.427  16.976  21.248  0.00  0.00    +0.000 A 
ATOM     36  N   UNL     1      -2.482  15.624  21.292  0.00  0.00    +0.000 NA
ATOM     37  C   UNL     1      -3.459  15.025  22.028  0.00  0.00    +0.000 A 
ENDBRANCH  25  28
ENDBRANCH  23  26
ENDBRANCH   1  23
TORSDOF 6
ENDMDL
MODEL 4
REMARK VINA RESULT:      -8.0      6.226      8.844
REMARK  Name = 
REMARK  6 active torsions:
REMARK  status: ('A' for Active; 'I' for Inactive)
REMARK    1  A    between atoms: C_2  and  C_26
REMARK    2  A    between atoms: N_3  and  C_4
REMARK    3  A    between atoms: C_4  and  C_5
REMARK    4  A    between atoms: C_8  and  O_9
REMARK    5  A    between atoms: C_12  and  C_14
REMARK    6  A    between atoms: C_19  and  C_20
REMARK                            x       y       z     vdW  Elec       q    Type
REMARK                         _______ _______ _______ _____ _____    ______ ____
ROOT
ATOM      1  C   UNL     1       6.747  14.833  18.973  0.00  0.00    +0.000 C 
ATOM      2  C   UNL     1       6.291  15.775  20.101  0.00  0.00    +0.000 C 
ATOM      3  C   UNL     1       6.357  17.247  19.694  0.00  0.00    +0.000 C 
ATOM      4  C   UNL     1       7.745  17.617  19.173  0.00  0.00    +0.000 C 
ATOM      5  C   UNL     1       8.204  16.658  18.059  0.00  0.00    +0.000 C 
ATOM      6  N   UNL     1       8.096  15.251  18.491  0.00  0.00    +0.000 N 
ATOM      7  C   UNL     1       9.270  14.467  18.469  0.00  0.00    +0.000 C 
ATOM      8  O   UNL     1      10.339  14.919  18.054  0.00  0.00    +0.000 OA
ENDROOT
BRANCH   7   9
ATOM      9  C   UNL     1       9.273  13.050  18.944  0.00  0.00    +0.000 A 
ATOM     10  C   UNL     1       9.371  12.066  17.943  0.00  0.00    +0.000 A 
ATOM     11  C   UNL     1       9.395  10.713  18.261  0.00  0.00    +0.000 A 
ATOM     12  C   UNL     1       9.383  10.324  19.589  0.00  0.00    +0.000 A 
ATOM     13  C   UNL     1       9.340  11.291  20.598  0.00  0.00    +0.000 A 
ATOM     14  C   UNL     1       9.285  12.679  20.323  0.00  0.00    +0.000 A 
BRANCH  14  15
ATOM     15  C   UNL     1       9.267  13.622  21.491  0.00  0.00    +0.000 A 
ATOM     16  C   UNL     1       8.289  13.520  22.507  0.00  0.00    +0.000 A 
ATOM     17  C   UNL     1       8.258  14.397  23.602  0.00  0.00    +0.000 A 
ATOM     18  C   UNL     1       9.229  15.382  23.731  0.00  0.00    +0.000 A 
ATOM     19  C   UNL     1      10.199  15.514  22.746  0.00  0.00    +0.000 A 
ATOM     20  C   UNL     1      10.191  14.662  21.631  0.00  0.00    +0.000 A 
ENDBRANCH  14  15
ENDBRANCH   7   9
BRANCH   4  21
ATOM     21  O   UNL     1       8.663  17.583  20.267  0.00  0.00    +0.000 OA
ATOM     22  H   UNL     1       9.546  17.725  19.885  0.00  0.00    +0.000 HD
ENDBRANCH   4  21
BRANCH   1  23
ATOM     23  C   UNL     1       5.695  14.770  17.825  0.00  0.00    +0.000 C 
BRANCH  23  26
ATOM     24  O   UNL     1       3.354  16.172  17.158  0.00  0.00    +0.000 OA
ATOM     25  C   UNL     1       3.257  15.222  17.931  0.00  0.00    +0.000 C 
ATOM     26  N   UNL     1       4.347  14.454  18.271  0.00  0.00    +0.000 N 
ATOM     27  H   UNL     1       4.200  13.721  18.966  0.00  0.00    +0.000 HD
BRANCH  25  28
ATOM     28  C   UNL     1       1.934  14.897  18.552  0.00  0.00    +0.000 A 
ATOM     29  C   UNL     1       1.181  16.000  19.005  0.00  0.00    +0.000 A 
ATOM     30  C   UNL     1      -0.001  15.813  19.708  0.00  0.00    +0.000 A 
ATOM     31  C   UNL     1      -0.417  14.523  19.998  0.00  0.00    +0.000 A 
ATOM     32  C   UNL     1       0.321  13.416  19.548  0.00  0.00    +0.000 A 
ATOM     33  C   UNL     1      -0.085  12.121  19.897  0.00  0.00    +0.000 A 
ATOM     34  C   UNL     1       0.612  11.020  19.421  0.00  0.00    +0.000 A 
ATOM     35  C   UNL     1       1.686  11.253  18.589  0.00  0.00    +0.000 A 
ATOM     36  N   UNL     1       2.139  12.487  18.270  0.00  0.00    +0.000 NA
ATOM     37  C   UNL     1       1.489  13.578  18.761  0.00  0.00    +0.000 A 
ENDBRANCH  25  28
ENDBRANCH  23  26
ENDBRANCH   1  23
TORSDOF 6
ENDMDL
MODEL 5
REMARK VINA RESULT:      -8.0      8.266     11.767
REMARK  Name = 
REMARK  6 active torsions:
REMARK  status: ('A' for Active; 'I' for Inactive)
REMARK    1  A    between atoms: C_2  and  C_26
REMARK    2  A    between atoms: N_3  and  C_4
REMARK    3  A    between atoms: C_4  and  C_5
REMARK    4  A    between atoms: C_8  and  O_9
REMARK    5  A    between atoms: C_12  and  C_14
REMARK    6  A    between atoms: C_19  and  C_20
REMARK                            x       y       z     vdW  Elec       q    Type
REMARK                         _______ _______ _______ _____ _____    ______ ____
ROOT
ATOM      1  C   UNL     1      -3.711  10.684  18.274  0.00  0.00    +0.000 C 
ATOM      2  C   UNL     1      -3.040   9.534  17.504  0.00  0.00    +0.000 C 
ATOM      3  C   UNL     1      -2.405  10.001  16.193  0.00  0.00    +0.000 C 
ATOM      4  C   UNL     1      -3.413  10.752  15.326  0.00  0.00    +0.000 C 
ATOM      5  C   UNL     1      -4.096  11.890  16.108  0.00  0.00    +0.000 C 
ATOM      6  N   UNL     1      -4.668  11.394  17.375  0.00  0.00    +0.000 N 
ATOM      7  C   UNL     1      -6.052  11.575  17.583  0.00  0.00    +0.000 C 
ATOM      8  O   UNL     1      -6.754  12.174  16.767  0.00  0.00    +0.000 OA
ENDROOT
BRANCH   7   9
ATOM      9  C   UNL     1      -6.733  11.055  18.808  0.00  0.00    +0.000 A 
ATOM     10  C   UNL     1      -6.787   9.654  18.933  0.00  0.00    +0.000 A 
ATOM     11  C   UNL     1      -7.384   9.051  20.034  0.00  0.00    +0.000 A 
ATOM     12  C   UNL     1      -7.882   9.838  21.057  0.00  0.00    +0.000 A 
ATOM     13  C   UNL     1      -7.788  11.230  20.973  0.00  0.00    +0.000 A 
ATOM     14  C   UNL     1      -7.216  11.891  19.860  0.00  0.00    +0.000 A 
BRANCH  14  15
ATOM     15  C   UNL     1      -7.150  13.390  19.895  0.00  0.00    +0.000 A 
ATOM     16  C   UNL     1      -7.917  14.142  20.815  0.00  0.00    +0.000 A 
ATOM     17  C   UNL     1      -7.867  15.544  20.857  0.00  0.00    +0.000 A 
ATOM     18  C   UNL     1      -7.020  16.235  20.000  0.00  0.00    +0.000 A 
ATOM     19  C   UNL     1      -6.260  15.527  19.079  0.00  0.00    +0.000 A 
ATOM     20  C   UNL     1      -6.354  14.129  19.014  0.00  0.00    +0.000 A 
ENDBRANCH  14  15
ENDBRANCH   7   9
BRANCH   4  21
ATOM     21  O   UNL     1      -4.387   9.820  14.853  0.00  0.00    +0.000 OA
ATOM     22  H   UNL     1      -4.045   8.936  15.069  0.00  0.00    +0.000 HD
ENDBRANCH   4  21
BRANCH   1  23
ATOM     23  C   UNL     1      -2.652  11.645  18.896  0.00  0.00    +0.000 C 
BRANCH  23  26
ATOM     24  O   UNL     1      -1.444  13.217  20.887  0.00  0.00    +0.000 OA
ATOM     25  C   UNL     1      -2.577  13.519  20.521  0.00  0.00    +0.000 C 
ATOM     26  N   UNL     1      -3.220  12.831  19.518  0.00  0.00    +0.000 N 
ATOM     27  H   UNL     1      -4.183  13.103  19.312  0.00  0.00    +0.000 HD
BRANCH  25  28
ATOM     28  C   UNL     1      -3.302  14.644  21.193  0.00  0.00    +0.000 A 
ATOM     29  C   UNL     1      -2.841  15.941  20.887  0.00  0.00    +0.000 A 
ATOM     30  C   UNL     1      -3.353  17.051  21.545  0.00  0.00    +0.000 A 
ATOM     31  C   UNL     1      -4.300  16.868  22.542  0.00  0.00    +0.000 A 
ATOM     32  C   UNL     1      -4.772  15.582  22.851  0.00  0.00    +0.000 A 
ATOM     33  C   UNL     1      -5.687  15.411  23.897  0.00  0.00    +0.000 A 
ATOM     34  C   UNL     1      -6.192  14.150  24.183  0.00  0.00    +0.000 A 
ATOM     35  C   UNL     1      -5.777  13.101  23.393  0.00  0.00    +0.000 A 
ATOM     36  N   UNL     1      -4.856  13.216  22.408  0.00  0.00    +0.000 NA
ATOM     37  C   UNL     1      -4.322  14.440  22.141  0.00  0.00    +0.000 A 
ENDBRANCH  25  28
ENDBRANCH  23  26
ENDBRANCH   1  23
TORSDOF 6
ENDMDL
MODEL 6
REMARK VINA RESULT:      -7.9      3.891      9.394
REMARK  Name = 
REMARK  6 active torsions:
REMARK  status: ('A' for Active; 'I' for Inactive)
REMARK    1  A    between atoms: C_2  and  C_26
REMARK    2  A    between atoms: N_3  and  C_4
REMARK    3  A    between atoms: C_4  and  C_5
REMARK    4  A    between atoms: C_8  and  O_9
REMARK    5  A    between atoms: C_12  and  C_14
REMARK    6  A    between atoms: C_19  and  C_20
REMARK                            x       y       z     vdW  Elec       q    Type
REMARK                         _______ _______ _______ _____ _____    ______ ____
ROOT
ATOM      1  C   UNL     1      -0.304  12.519  21.224  0.00  0.00    +0.000 C 
ATOM      2  C   UNL     1      -1.273  13.202  22.204  0.00  0.00    +0.000 C 
ATOM      3  C   UNL     1      -2.674  12.590  22.163  0.00  0.00    +0.000 C 
ATOM      4  C   UNL     1      -3.228  12.568  20.740  0.00  0.00    +0.000 C 
ATOM      5  C   UNL     1      -2.245  11.900  19.760  0.00  0.00    +0.000 C 
ATOM      6  N   UNL     1      -0.904  12.508  19.857  0.00  0.00    +0.000 N 
ATOM      7  C   UNL     1      -0.353  13.070  18.685  0.00  0.00    +0.000 C 
ATOM      8  O   UNL     1      -0.941  13.010  17.604  0.00  0.00    +0.000 OA
ENDROOT
BRANCH   7   9
ATOM      9  C   UNL     1       0.973  13.760  18.697  0.00  0.00    +0.000 A 
ATOM     10  C   UNL     1       2.091  12.948  18.429  0.00  0.00    +0.000 A 
ATOM     11  C   UNL     1       3.376  13.478  18.401  0.00  0.00    +0.000 A 
ATOM     12  C   UNL     1       3.558  14.838  18.579  0.00  0.00    +0.000 A 
ATOM     13  C   UNL     1       2.452  15.666  18.793  0.00  0.00    +0.000 A 
ATOM     14  C   UNL     1       1.128  15.170  18.859  0.00  0.00    +0.000 A 
BRANCH  14  15
ATOM     15  C   UNL     1       0.021  16.162  19.069  0.00  0.00    +0.000 A 
ATOM     16  C   UNL     1      -0.355  17.075  18.057  0.00  0.00    +0.000 A 
ATOM     17  C   UNL     1      -1.386  18.009  18.241  0.00  0.00    +0.000 A 
ATOM     18  C   UNL     1      -2.097  18.033  19.434  0.00  0.00    +0.000 A 
ATOM     19  C   UNL     1      -1.747  17.155  20.451  0.00  0.00    +0.000 A 
ATOM     20  C   UNL     1      -0.683  16.258  20.274  0.00  0.00    +0.000 A 
ENDBRANCH  14  15
ENDBRANCH   7   9
BRANCH   4  21
ATOM     21  O   UNL     1      -3.495  13.912  20.337  0.00  0.00    +0.000 OA
ATOM     22  H   UNL     1      -3.610  13.889  19.371  0.00  0.00    +0.000 HD
ENDBRANCH   4  21
BRANCH   1  23
ATOM     23  C   UNL     1       0.088  11.092  21.715  0.00  0.00    +0.000 C 
BRANCH  23  26
ATOM     24  O   UNL     1       0.012   8.299  21.416  0.00  0.00    +0.000 OA
ATOM     25  C   UNL     1       0.768   8.938  20.687  0.00  0.00    +0.000 C 
ATOM     26  N   UNL     1       0.830  10.311  20.737  0.00  0.00    +0.000 N 
ATOM     27  H   UNL     1       1.526  10.766  20.145  0.00  0.00    +0.000 HD
BRANCH  25  28
ATOM     28  C   UNL     1       1.674   8.217  19.738  0.00  0.00    +0.000 A 
ATOM     29  C   UNL     1       2.091   8.951  18.609  0.00  0.00    +0.000 A 
ATOM     30  C   UNL     1       2.827   8.347  17.600  0.00  0.00    +0.000 A 
ATOM     31  C   UNL     1       3.117   6.994  17.692  0.00  0.00    +0.000 A 
ATOM     32  C   UNL     1       2.713   6.252  18.814  0.00  0.00    +0.000 A 
ATOM     33  C   UNL     1       2.966   4.876  18.865  0.00  0.00    +0.000 A 
ATOM     34  C   UNL     1       2.609   4.142  19.986  0.00  0.00    +0.000 A 
ATOM     35  C   UNL     1       2.026   4.819  21.035  0.00  0.00    +0.000 A 
ATOM     36  N   UNL     1       1.718   6.137  21.004  0.00  0.00    +0.000 NA
ATOM     37  C   UNL     1       2.027   6.863  19.894  0.00  0.00    +0.000 A 
ENDBRANCH  25  28
ENDBRANCH  23  26
ENDBRANCH   1  23
TORSDOF 6
ENDMDL
MODEL 7
REMARK VINA RESULT:      -7.8      5.661     11.339
REMARK  Name = 
REMARK  6 active torsions:
REMARK  status: ('A' for Active; 'I' for Inactive)
REMARK    1  A    between atoms: C_2  and  C_26
REMARK    2  A    between atoms: N_3  and  C_4
REMARK    3  A    between atoms: C_4  and  C_5
REMARK    4  A    between atoms: C_8  and  O_9
REMARK    5  A    between atoms: C_12  and  C_14
REMARK    6  A    between atoms: C_19  and  C_20
REMARK                            x       y       z     vdW  Elec       q    Type
REMARK                         _______ _______ _______ _____ _____    ______ ____
ROOT
ATOM      1  C   UNL     1      -1.777  15.117  21.321  0.00  0.00    +0.000 C 
ATOM      2  C   UNL     1      -2.117  16.500  21.902  0.00  0.00    +0.000 C 
ATOM      3  C   UNL     1      -1.395  16.773  23.222  0.00  0.00    +0.000 C 
ATOM      4  C   UNL     1      -1.648  15.656  24.233  0.00  0.00    +0.000 C 
ATOM      5  C   UNL     1      -1.325  14.272  23.640  0.00  0.00    +0.000 C 
ATOM      6  N   UNL     1      -2.023  14.069  22.355  0.00  0.00    +0.000 N 
ATOM      7  C   UNL     1      -2.892  12.961  22.251  0.00  0.00    +0.000 C 
ATOM      8  O   UNL     1      -3.025  12.158  23.174  0.00  0.00    +0.000 OA
ENDROOT
BRANCH   7   9
ATOM      9  C   UNL     1      -3.688  12.707  21.011  0.00  0.00    +0.000 A 
ATOM     10  C   UNL     1      -2.978  12.163  19.924  0.00  0.00    +0.000 A 
ATOM     11  C   UNL     1      -3.611  11.871  18.723  0.00  0.00    +0.000 A 
ATOM     12  C   UNL     1      -4.977  12.062  18.607  0.00  0.00    +0.000 A 
ATOM     13  C   UNL     1      -5.707  12.550  19.695  0.00  0.00    +0.000 A 
ATOM     14  C   UNL     1      -5.102  12.889  20.929  0.00  0.00    +0.000 A 
BRANCH  14  15
ATOM     15  C   UNL     1      -5.994  13.381  22.032  0.00  0.00    +0.000 A 
ATOM     16  C   UNL     1      -5.891  14.700  22.532  0.00  0.00    +0.000 A 
ATOM     17  C   UNL     1      -6.716  15.172  23.564  0.00  0.00    +0.000 A 
ATOM     18  C   UNL     1      -7.694  14.346  24.104  0.00  0.00    +0.000 A 
ATOM     19  C   UNL     1      -7.816  13.043  23.641  0.00  0.00    +0.000 A 
ATOM     20  C   UNL     1      -6.953  12.567  22.643  0.00  0.00    +0.000 A 
ENDBRANCH  14  15
ENDBRANCH   7   9
BRANCH   4  21
ATOM     21  O   UNL     1      -3.016  15.715  24.641  0.00  0.00    +0.000 OA
ATOM     22  H   UNL     1      -3.397  14.843  24.439  0.00  0.00    +0.000 HD
ENDBRANCH   4  21
BRANCH   1  23
ATOM     23  C   UNL     1      -0.322  15.076  20.765  0.00  0.00    +0.000 C 
BRANCH  23  26
ATOM     24  O   UNL     1       0.034  13.585  18.410  0.00  0.00    +0.000 OA
ATOM     25  C   UNL     1       0.339  13.060  19.478  0.00  0.00    +0.000 C 
ATOM     26  N   UNL     1       0.241  13.738  20.671  0.00  0.00    +0.000 N 
ATOM     27  H   UNL     1       0.454  13.215  21.522  0.00  0.00    +0.000 HD
BRANCH  25  28
ATOM     28  C   UNL     1       0.804  11.636  19.503  0.00  0.00    +0.000 A 
ATOM     29  C   UNL     1       1.429  11.173  18.327  0.00  0.00    +0.000 A 
ATOM     30  C   UNL     1       1.786   9.840  18.190  0.00  0.00    +0.000 A 
ATOM     31  C   UNL     1       1.484   8.951  19.210  0.00  0.00    +0.000 A 
ATOM     32  C   UNL     1       0.867   9.400  20.389  0.00  0.00    +0.000 A 
ATOM     33  C   UNL     1       0.520   8.479  21.386  0.00  0.00    +0.000 A 
ATOM     34  C   UNL     1      -0.052   8.918  22.572  0.00  0.00    +0.000 A 
ATOM     35  C   UNL     1      -0.237  10.274  22.730  0.00  0.00    +0.000 A 
ATOM     36  N   UNL     1       0.038  11.190  21.772  0.00  0.00    +0.000 NA
ATOM     37  C   UNL     1       0.562  10.770  20.587  0.00  0.00    +0.000 A 
ENDBRANCH  25  28
ENDBRANCH  23  26
ENDBRANCH   1  23
TORSDOF 6
ENDMDL
MODEL 8
REMARK VINA RESULT:      -7.8      4.452      8.329
REMARK  Name = 
REMARK  6 active torsions:
REMARK  status: ('A' for Active; 'I' for Inactive)
REMARK    1  A    between atoms: C_2  and  C_26
REMARK    2  A    between atoms: N_3  and  C_4
REMARK    3  A    between atoms: C_4  and  C_5
REMARK    4  A    between atoms: C_8  and  O_9
REMARK    5  A    between atoms: C_12  and  C_14
REMARK    6  A    between atoms: C_19  and  C_20
REMARK                            x       y       z     vdW  Elec       q    Type
REMARK                         _______ _______ _______ _____ _____    ______ ____
ROOT
ATOM      1  C   UNL     1       1.399  13.436  20.760  0.00  0.00    +0.000 C 
ATOM      2  C   UNL     1       2.837  13.612  20.245  0.00  0.00    +0.000 C 
ATOM      3  C   UNL     1       2.895  14.384  18.926  0.00  0.00    +0.000 C 
ATOM      4  C   UNL     1       1.990  13.749  17.873  0.00  0.00    +0.000 C 
ATOM      5  C   UNL     1       0.556  13.557  18.401  0.00  0.00    +0.000 C 
ATOM      6  N   UNL     1       0.556  12.832  19.686  0.00  0.00    +0.000 N 
ATOM      7  C   UNL     1      -0.173  11.625  19.758  0.00  0.00    +0.000 C 
ATOM      8  O   UNL     1      -0.833  11.214  18.802  0.00  0.00    +0.000 OA
ENDROOT
BRANCH   7   9
ATOM      9  C   UNL     1      -0.183  10.790  20.998  0.00  0.00    +0.000 A 
ATOM     10  C   UNL     1      -0.971  11.275  22.059  0.00  0.00    +0.000 A 
ATOM     11  C   UNL     1      -1.071  10.581  23.259  0.00  0.00    +0.000 A 
ATOM     12  C   UNL     1      -0.433   9.361  23.396  0.00  0.00    +0.000 A 
ATOM     13  C   UNL     1       0.309   8.839  22.332  0.00  0.00    +0.000 A 
ATOM     14  C   UNL     1       0.464   9.522  21.102  0.00  0.00    +0.000 A 
BRANCH  14  15
ATOM     15  C   UNL     1       1.265   8.849  20.026  0.00  0.00    +0.000 A 
ATOM     16  C   UNL     1       1.464   9.456  18.764  0.00  0.00    +0.000 A 
ATOM     17  C   UNL     1       2.208   8.837  17.748  0.00  0.00    +0.000 A 
ATOM     18  C   UNL     1       2.806   7.604  17.978  0.00  0.00    +0.000 A 
ATOM     19  C   UNL     1       2.623   6.977  19.203  0.00  0.00    +0.000 A 
ATOM     20  C   UNL     1       1.837   7.584  20.194  0.00  0.00    +0.000 A 
ENDBRANCH  14  15
ENDBRANCH   7   9
BRANCH   4  21
ATOM     21  O   UNL     1       2.551  12.492  17.490  0.00  0.00    +0.000 OA
ATOM     22  H   UNL     1       2.965  12.633  16.621  0.00  0.00    +0.000 HD
ENDBRANCH   4  21
BRANCH   1  23
ATOM     23  C   UNL     1       0.816  14.781  21.290  0.00  0.00    +0.000 C 
BRANCH  23  26
ATOM     24  O   UNL     1      -0.555  14.676  23.741  0.00  0.00    +0.000 OA
ATOM     25  C   UNL     1      -1.219  14.676  22.707  0.00  0.00    +0.000 C 
ATOM     26  N   UNL     1      -0.628  14.773  21.469  0.00  0.00    +0.000 N 
ATOM     27  H   UNL     1      -1.240  14.705  20.655  0.00  0.00    +0.000 HD
BRANCH  25  28
ATOM     28  C   UNL     1      -2.708  14.537  22.778  0.00  0.00    +0.000 A 
ATOM     29  C   UNL     1      -3.316  15.033  23.950  0.00  0.00    +0.000 A 
ATOM     30  C   UNL     1      -4.672  14.845  24.180  0.00  0.00    +0.000 A 
ATOM     31  C   UNL     1      -5.421  14.125  23.262  0.00  0.00    +0.000 A 
ATOM     32  C   UNL     1      -4.828  13.631  22.088  0.00  0.00    +0.000 A 
ATOM     33  C   UNL     1      -5.587  12.860  21.198  0.00  0.00    +0.000 A 
ATOM     34  C   UNL     1      -5.023  12.403  20.016  0.00  0.00    +0.000 A 
ATOM     35  C   UNL     1      -3.717  12.755  19.752  0.00  0.00    +0.000 A 
ATOM     36  N   UNL     1      -2.936  13.454  20.608  0.00  0.00    +0.000 NA
ATOM     37  C   UNL     1      -3.464  13.875  21.791  0.00  0.00    +0.000 A 
ENDBRANCH  25  28
ENDBRANCH  23  26
ENDBRANCH   1  23
TORSDOF 6
ENDMDL
MODEL 9
REMARK VINA RESULT:      -7.7      7.253      9.579
REMARK  Name = 
REMARK  6 active torsions:
REMARK  status: ('A' for Active; 'I' for Inactive)
REMARK    1  A    between atoms: C_2  and  C_26
REMARK    2  A    between atoms: N_3  and  C_4
REMARK    3  A    between atoms: C_4  and  C_5
REMARK    4  A    between atoms: C_8  and  O_9
REMARK    5  A    between atoms: C_12  and  C_14
REMARK    6  A    between atoms: C_19  and  C_20
REMARK                            x       y       z     vdW  Elec       q    Type
REMARK                         _______ _______ _______ _____ _____    ______ ____
ROOT
ATOM      1  C   UNL     1       0.367  13.744  18.538  0.00  0.00    +0.000 C 
ATOM      2  C   UNL     1       1.586  12.817  18.687  0.00  0.00    +0.000 C 
ATOM      3  C   UNL     1       1.522  11.969  19.958  0.00  0.00    +0.000 C 
ATOM      4  C   UNL     1       1.317  12.839  21.196  0.00  0.00    +0.000 C 
ATOM      5  C   UNL     1       0.107  13.779  21.033  0.00  0.00    +0.000 C 
ATOM      6  N   UNL     1       0.203  14.554  19.781  0.00  0.00    +0.000 N 
ATOM      7  C   UNL     1       0.197  15.963  19.880  0.00  0.00    +0.000 C 
ATOM      8  O   UNL     1       0.061  16.531  20.965  0.00  0.00    +0.000 OA
ENDROOT
BRANCH   7   9
ATOM      9  C   UNL     1       0.349  16.833  18.674  0.00  0.00    +0.000 A 
ATOM     10  C   UNL     1      -0.805  17.530  18.270  0.00  0.00    +0.000 A 
ATOM     11  C   UNL     1      -0.785  18.379  17.170  0.00  0.00    +0.000 A 
ATOM     12  C   UNL     1       0.403  18.592  16.493  0.00  0.00    +0.000 A 
ATOM     13  C   UNL     1       1.570  17.949  16.915  0.00  0.00    +0.000 A 
ATOM     14  C   UNL     1       1.594  17.053  18.011  0.00  0.00    +0.000 A 
BRANCH  14  15
ATOM     15  C   UNL     1       2.913  16.441  18.384  0.00  0.00    +0.000 A 
ATOM     16  C   UNL     1       3.603  15.578  17.503  0.00  0.00    +0.000 A 
ATOM     17  C   UNL     1       4.835  14.997  17.840  0.00  0.00    +0.000 A 
ATOM     18  C   UNL     1       5.431  15.291  19.060  0.00  0.00    +0.000 A 
ATOM     19  C   UNL     1       4.776  16.129  19.952  0.00  0.00    +0.000 A 
ATOM     20  C   UNL     1       3.521  16.666  19.624  0.00  0.00    +0.000 A 
ENDBRANCH  14  15
ENDBRANCH   7   9
BRANCH   4  21
ATOM     21  O   UNL     1       2.507  13.596  21.420  0.00  0.00    +0.000 OA
ATOM     22  H   UNL     1       2.331  14.157  22.195  0.00  0.00    +0.000 HD
ENDBRANCH   4  21
BRANCH   1  23
ATOM     23  C   UNL     1      -0.918  12.940  18.176  0.00  0.00    +0.000 C 
BRANCH  23  26
ATOM     24  O   UNL     1      -3.126  11.228  18.477  0.00  0.00    +0.000 OA
ATOM     25  C   UNL     1      -3.075  12.234  19.180  0.00  0.00    +0.000 C 
ATOM     26  N   UNL     1      -2.006  13.098  19.129  0.00  0.00    +0.000 N 
ATOM     27  H   UNL     1      -2.064  13.944  19.698  0.00  0.00    +0.000 HD
BRANCH  25  28
ATOM     28  C   UNL     1      -4.211  12.559  20.100  0.00  0.00    +0.000 A 
ATOM     29  C   UNL     1      -5.434  12.882  19.476  0.00  0.00    +0.000 A 
ATOM     30  C   UNL     1      -6.518  13.321  20.222  0.00  0.00    +0.000 A 
ATOM     31  C   UNL     1      -6.377  13.479  21.592  0.00  0.00    +0.000 A 
ATOM     32  C   UNL     1      -5.166  13.155  22.227  0.00  0.00    +0.000 A 
ATOM     33  C   UNL     1      -5.024  13.372  23.603  0.00  0.00    +0.000 A 
ATOM     34  C   UNL     1      -3.848  13.016  24.247  0.00  0.00    +0.000 A 
ATOM     35  C   UNL     1      -2.856  12.430  23.490  0.00  0.00    +0.000 A 
ATOM     36  N   UNL     1      -2.936  12.250  22.151  0.00  0.00    +0.000 NA
ATOM     37  C   UNL     1      -4.069  12.631  21.499  0.00  0.00    +0.000 A 
ENDBRANCH  25  28
ENDBRANCH  23  26
ENDBRANCH   1  23
TORSDOF 6
ENDMDL
