MODEL 1
REMARK VINA RESULT:      -6.8      0.000      0.000
REMARK  Name = 
REMARK  5 active torsions:
REMARK  status: ('A' for Active; 'I' for Inactive)
REMARK    1  A    between atoms: C_7  and  C_8
REMARK    2  A    between atoms: C_11  and  O_12
REMARK    3  A    between atoms: O_12  and  C_13
REMARK    4  A    between atoms: C_13  and  C_14
REMARK    5  A    between atoms: C_14  and  O_16
REMARK                            x       y       z     vdW  Elec       q    Type
REMARK                         _______ _______ _______ _____ _____    ______ ____
ROOT
ATOM      1  C   UNL     1       3.925   3.617  17.014  0.00  0.00    +0.000 A 
ATOM      2  C   UNL     1       2.779   4.384  17.237  0.00  0.00    +0.000 A 
ATOM      3  C   UNL     1       1.744   3.889  18.039  0.00  0.00    +0.000 A 
ATOM      4  C   UNL     1       1.833   2.618  18.609  0.00  0.00    +0.000 A 
ATOM      5  C   UNL     1       2.986   1.859  18.406  0.00  0.00    +0.000 A 
ATOM      6  C   UNL     1       4.030   2.358  17.614  0.00  0.00    +0.000 A 
ENDROOT
BRANCH   1  13
ATOM      7  N   UNL     1       8.070   7.515  18.329  0.00  0.00    +0.000 N 
ATOM      8  C   UNL     1       7.471   6.653  17.480  0.00  0.00    +0.000 C 
ATOM      9  N   UNL     1       7.788   6.474  16.245  0.00  0.00    +0.000 NA
ATOM     10  C   UNL     1       6.980   5.544  15.620  0.00  0.00    +0.000 C 
ATOM     11  O   UNL     1       7.077   5.202  14.451  0.00  0.00    +0.000 OA
ATOM     12  C   UNL     1       5.943   5.002  16.555  0.00  0.00    +0.000 C 
ATOM     13  C   UNL     1       4.998   4.138  16.164  0.00  0.00    +0.000 C 
ATOM     14  S   UNL     1       6.163   5.692  18.113  0.00  0.00    +0.000 S 
ATOM     15  H   UNL     1       8.981   7.850  18.034  0.00  0.00    +0.000 HD
ATOM     16  H   UNL     1       7.981   7.316  19.317  0.00  0.00    +0.000 HD
ENDBRANCH   1  13
BRANCH   4  17
ATOM     17  O   UNL     1       0.763   2.248  19.381  0.00  0.00    +0.000 OA
BRANCH  17  18
ATOM     18  C   UNL     1       0.419   3.152  20.436  0.00  0.00    +0.000 C 
BRANCH  18  19
ATOM     19  C   UNL     1       1.513   3.134  21.493  0.00  0.00    +0.000 C 
ATOM     20  O   UNL     1       1.729   2.184  22.233  0.00  0.00    +0.000 OA
BRANCH  19  21
ATOM     21  O   UNL     1       2.250   4.271  21.537  0.00  0.00    +0.000 OA
ATOM     22  H   UNL     1       2.854   4.247  22.310  0.00  0.00    +0.000 HD
ENDBRANCH  19  21
ENDBRANCH  18  19
ENDBRANCH  17  18
ENDBRANCH   4  17
TORSDOF 5
ENDMDL
MODEL 2
REMARK VINA RESULT:      -6.7      0.357      1.162
REMARK  Name = 
REMARK  5 active torsions:
REMARK  status: ('A' for Active; 'I' for Inactive)
REMARK    1  A    between atoms: C_7  and  C_8
REMARK    2  A    between atoms: C_11  and  O_12
REMARK    3  A    between atoms: O_12  and  C_13
REMARK    4  A    between atoms: C_13  and  C_14
REMARK    5  A    between atoms: C_14  and  O_16
REMARK                            x       y       z     vdW  Elec       q    Type
REMARK                         _______ _______ _______ _____ _____    ______ ____
ROOT
ATOM      1  C   UNL     1       3.907   3.676  17.111  0.00  0.00    +0.000 A 
ATOM      2  C   UNL     1       4.051   2.441  17.750  0.00  0.00    +0.000 A 
ATOM      3  C   UNL     1       3.055   1.974  18.614  0.00  0.00    +0.000 A 
ATOM      4  C   UNL     1       1.915   2.740  18.866  0.00  0.00    +0.000 A 
ATOM      5  C   UNL     1       1.759   3.964  18.212  0.00  0.00    +0.000 A 
ATOM      6  C   UNL     1       2.750   4.428  17.336  0.00  0.00    +0.000 A 
ENDROOT
BRANCH   1  13
ATOM      7  N   UNL     1       8.093   7.605  18.184  0.00  0.00    +0.000 N 
ATOM      8  C   UNL     1       7.470   6.715  17.381  0.00  0.00    +0.000 C 
ATOM      9  N   UNL     1       7.755   6.492  16.145  0.00  0.00    +0.000 NA
ATOM     10  C   UNL     1       6.930   5.544  15.573  0.00  0.00    +0.000 C 
ATOM     11  O   UNL     1       6.996   5.161  14.416  0.00  0.00    +0.000 OA
ATOM     12  C   UNL     1       5.916   5.037  16.553  0.00  0.00    +0.000 C 
ATOM     13  C   UNL     1       4.960   4.163  16.217  0.00  0.00    +0.000 C 
ATOM     14  S   UNL     1       6.177   5.781  18.080  0.00  0.00    +0.000 S 
ATOM     15  H   UNL     1       8.996   7.927  17.854  0.00  0.00    +0.000 HD
ATOM     16  H   UNL     1       8.029   7.440  19.180  0.00  0.00    +0.000 HD
ENDBRANCH   1  13
BRANCH   4  17
ATOM     17  O   UNL     1       1.007   2.173  19.720  0.00  0.00    +0.000 OA
BRANCH  17  18
ATOM     18  C   UNL     1       0.736   2.912  20.916  0.00  0.00    +0.000 C 
BRANCH  18  19
ATOM     19  C   UNL     1       2.047   3.229  21.622  0.00  0.00    +0.000 C 
ATOM     20  O   UNL     1       2.767   2.382  22.132  0.00  0.00    +0.000 OA
BRANCH  19  21
ATOM     21  O   UNL     1       2.360   4.548  21.624  0.00  0.00    +0.000 OA
ATOM     22  H   UNL     1       3.258   4.675  22.000  0.00  0.00    +0.000 HD
ENDBRANCH  19  21
ENDBRANCH  18  19
ENDBRANCH  17  18
ENDBRANCH   4  17
TORSDOF 5
ENDMDL
MODEL 3
REMARK VINA RESULT:      -6.7      2.772      3.663
REMARK  Name = 
REMARK  5 active torsions:
REMARK  status: ('A' for Active; 'I' for Inactive)
REMARK    1  A    between atoms: C_7  and  C_8
REMARK    2  A    between atoms: C_11  and  O_12
REMARK    3  A    between atoms: O_12  and  C_13
REMARK    4  A    between atoms: C_13  and  C_14
REMARK    5  A    between atoms: C_14  and  O_16
REMARK                            x       y       z     vdW  Elec       q    Type
REMARK                         _______ _______ _______ _____ _____    ______ ____
ROOT
ATOM      1  C   UNL     1       5.915   5.524  16.891  0.00  0.00    +0.000 A 
ATOM      2  C   UNL     1       4.721   6.247  16.960  0.00  0.00    +0.000 A 
ATOM      3  C   UNL     1       3.880   6.113  18.071  0.00  0.00    +0.000 A 
ATOM      4  C   UNL     1       4.210   5.244  19.113  0.00  0.00    +0.000 A 
ATOM      5  C   UNL     1       5.412   4.538  19.056  0.00  0.00    +0.000 A 
ATOM      6  C   UNL     1       6.263   4.680  17.950  0.00  0.00    +0.000 A 
ENDROOT
BRANCH   1  13
ATOM      7  N   UNL     1       5.786   2.544  11.870  0.00  0.00    +0.000 N 
ATOM      8  C   UNL     1       6.293   3.502  12.675  0.00  0.00    +0.000 C 
ATOM      9  N   UNL     1       7.324   4.229  12.418  0.00  0.00    +0.000 NA
ATOM     10  C   UNL     1       7.622   5.108  13.441  0.00  0.00    +0.000 C 
ATOM     11  O   UNL     1       8.552   5.900  13.439  0.00  0.00    +0.000 OA
ATOM     12  C   UNL     1       6.662   4.965  14.582  0.00  0.00    +0.000 C 
ATOM     13  C   UNL     1       6.784   5.660  15.720  0.00  0.00    +0.000 C 
ATOM     14  S   UNL     1       5.477   3.786  14.187  0.00  0.00    +0.000 S 
ATOM     15  H   UNL     1       6.092   2.584  10.904  0.00  0.00    +0.000 HD
ATOM     16  H   UNL     1       4.812   2.305  12.006  0.00  0.00    +0.000 HD
ENDBRANCH   1  13
BRANCH   4  17
ATOM     17  O   UNL     1       3.314   5.208  20.148  0.00  0.00    +0.000 OA
BRANCH  17  18
ATOM     18  C   UNL     1       2.052   4.599  19.855  0.00  0.00    +0.000 C 
BRANCH  18  19
ATOM     19  C   UNL     1       1.670   3.659  20.989  0.00  0.00    +0.000 C 
ATOM     20  O   UNL     1       2.306   3.552  22.028  0.00  0.00    +0.000 OA
BRANCH  19  21
ATOM     21  O   UNL     1       0.540   2.948  20.752  0.00  0.00    +0.000 OA
ATOM     22  H   UNL     1       0.655   2.401  19.945  0.00  0.00    +0.000 HD
ENDBRANCH  19  21
ENDBRANCH  18  19
ENDBRANCH  17  18
ENDBRANCH   4  17
TORSDOF 5
ENDMDL
MODEL 4
REMARK VINA RESULT:      -6.7      5.781      6.872
REMARK  Name = 
REMARK  5 active torsions:
REMARK  status: ('A' for Active; 'I' for Inactive)
REMARK    1  A    between atoms: C_7  and  C_8
REMARK    2  A    between atoms: C_11  and  O_12
REMARK    3  A    between atoms: O_12  and  C_13
REMARK    4  A    between atoms: C_13  and  C_14
REMARK    5  A    between atoms: C_14  and  O_16
REMARK                            x       y       z     vdW  Elec       q    Type
REMARK                         _______ _______ _______ _____ _____    ______ ____
ROOT
ATOM      1  C   UNL     1       2.689   7.249  19.080  0.00  0.00    +0.000 A 
ATOM      2  C   UNL     1       2.550   7.953  17.881  0.00  0.00    +0.000 A 
ATOM      3  C   UNL     1       1.693   9.056  17.808  0.00  0.00    +0.000 A 
ATOM      4  C   UNL     1       0.953   9.458  18.921  0.00  0.00    +0.000 A 
ATOM      5  C   UNL     1       1.108   8.770  20.126  0.00  0.00    +0.000 A 
ATOM      6  C   UNL     1       1.975   7.671  20.205  0.00  0.00    +0.000 A 
ENDROOT
BRANCH   1  13
ATOM      7  N   UNL     1       1.356   1.584  18.593  0.00  0.00    +0.000 N 
ATOM      8  C   UNL     1       2.242   2.591  18.751  0.00  0.00    +0.000 C 
ATOM      9  N   UNL     1       3.502   2.453  18.978  0.00  0.00    +0.000 NA
ATOM     10  C   UNL     1       4.151   3.663  19.119  0.00  0.00    +0.000 C 
ATOM     11  O   UNL     1       5.344   3.799  19.341  0.00  0.00    +0.000 OA
ATOM     12  C   UNL     1       3.201   4.814  18.979  0.00  0.00    +0.000 C 
ATOM     13  C   UNL     1       3.579   6.087  19.146  0.00  0.00    +0.000 C 
ATOM     14  S   UNL     1       1.629   4.217  18.628  0.00  0.00    +0.000 S 
ATOM     15  H   UNL     1       1.763   0.677  18.394  0.00  0.00    +0.000 HD
ATOM     16  H   UNL     1       0.508   1.800  18.084  0.00  0.00    +0.000 HD
ENDBRANCH   1  13
BRANCH   4  17
ATOM     17  O   UNL     1       0.159  10.557  18.729  0.00  0.00    +0.000 OA
BRANCH  17  18
ATOM     18  C   UNL     1      -1.247  10.298  18.641  0.00  0.00    +0.000 C 
BRANCH  18  19
ATOM     19  C   UNL     1      -1.786  10.877  17.341  0.00  0.00    +0.000 C 
ATOM     20  O   UNL     1      -2.313  10.206  16.465  0.00  0.00    +0.000 OA
BRANCH  19  21
ATOM     21  O   UNL     1      -1.642  12.221  17.241  0.00  0.00    +0.000 OA
ATOM     22  H   UNL     1      -2.361  12.670  17.739  0.00  0.00    +0.000 HD
ENDBRANCH  19  21
ENDBRANCH  18  19
ENDBRANCH  17  18
ENDBRANCH   4  17
TORSDOF 5
ENDMDL
MODEL 5
REMARK VINA RESULT:      -6.7      2.715      3.693
REMARK  Name = 
REMARK  5 active torsions:
REMARK  status: ('A' for Active; 'I' for Inactive)
REMARK    1  A    between atoms: C_7  and  C_8
REMARK    2  A    between atoms: C_11  and  O_12
REMARK    3  A    between atoms: O_12  and  C_13
REMARK    4  A    between atoms: C_13  and  C_14
REMARK    5  A    between atoms: C_14  and  O_16
REMARK                            x       y       z     vdW  Elec       q    Type
REMARK                         _______ _______ _______ _____ _____    ______ ____
ROOT
ATOM      1  C   UNL     1       5.617   5.379  16.884  0.00  0.00    +0.000 A 
ATOM      2  C   UNL     1       5.792   4.335  17.797  0.00  0.00    +0.000 A 
ATOM      3  C   UNL     1       4.906   4.181  18.869  0.00  0.00    +0.000 A 
ATOM      4  C   UNL     1       3.850   5.076  19.054  0.00  0.00    +0.000 A 
ATOM      5  C   UNL     1       3.660   6.105  18.130  0.00  0.00    +0.000 A 
ATOM      6  C   UNL     1       4.539   6.254  17.048  0.00  0.00    +0.000 A 
ENDROOT
BRANCH   1  13
ATOM      7  N   UNL     1       5.791   2.515  11.797  0.00  0.00    +0.000 N 
ATOM      8  C   UNL     1       6.249   3.453  12.654  0.00  0.00    +0.000 C 
ATOM      9  N   UNL     1       7.294   4.185  12.476  0.00  0.00    +0.000 NA
ATOM     10  C   UNL     1       7.529   5.040  13.534  0.00  0.00    +0.000 C 
ATOM     11  O   UNL     1       8.457   5.831  13.606  0.00  0.00    +0.000 OA
ATOM     12  C   UNL     1       6.502   4.873  14.613  0.00  0.00    +0.000 C 
ATOM     13  C   UNL     1       6.555   5.540  15.771  0.00  0.00    +0.000 C 
ATOM     14  S   UNL     1       5.343   3.704  14.120  0.00  0.00    +0.000 S 
ATOM     15  H   UNL     1       6.155   2.576  10.853  0.00  0.00    +0.000 HD
ATOM     16  H   UNL     1       4.811   2.273  11.869  0.00  0.00    +0.000 HD
ENDBRANCH   1  13
BRANCH   4  17
ATOM     17  O   UNL     1       3.045   4.815  20.131  0.00  0.00    +0.000 OA
BRANCH  17  18
ATOM     18  C   UNL     1       2.975   3.443  20.534  0.00  0.00    +0.000 C 
BRANCH  18  19
ATOM     19  C   UNL     1       1.603   3.163  21.131  0.00  0.00    +0.000 C 
ATOM     20  O   UNL     1       1.426   2.529  22.161  0.00  0.00    +0.000 OA
BRANCH  19  21
ATOM     21  O   UNL     1       0.579   3.695  20.420  0.00  0.00    +0.000 OA
ATOM     22  H   UNL     1       0.553   4.668  20.552  0.00  0.00    +0.000 HD
ENDBRANCH  19  21
ENDBRANCH  18  19
ENDBRANCH  17  18
ENDBRANCH   4  17
TORSDOF 5
ENDMDL
MODEL 6
REMARK VINA RESULT:      -6.5      5.807      6.767
REMARK  Name = 
REMARK  5 active torsions:
REMARK  status: ('A' for Active; 'I' for Inactive)
REMARK    1  A    between atoms: C_7  and  C_8
REMARK    2  A    between atoms: C_11  and  O_12
REMARK    3  A    between atoms: O_12  and  C_13
REMARK    4  A    between atoms: C_13  and  C_14
REMARK    5  A    between atoms: C_14  and  O_16
REMARK                            x       y       z     vdW  Elec       q    Type
REMARK                         _______ _______ _______ _____ _____    ______ ____
ROOT
ATOM      1  C   UNL     1       2.618   7.514  18.525  0.00  0.00    +0.000 A 
ATOM      2  C   UNL     1       2.160   8.517  17.666  0.00  0.00    +0.000 A 
ATOM      3  C   UNL     1       1.273   9.493  18.133  0.00  0.00    +0.000 A 
ATOM      4  C   UNL     1       0.818   9.469  19.453  0.00  0.00    +0.000 A 
ATOM      5  C   UNL     1       1.291   8.481  20.318  0.00  0.00    +0.000 A 
ATOM      6  C   UNL     1       2.191   7.510  19.856  0.00  0.00    +0.000 A 
ENDROOT
BRANCH   1  13
ATOM      7  N   UNL     1       1.846   1.733  18.235  0.00  0.00    +0.000 N 
ATOM      8  C   UNL     1       2.574   2.851  18.024  0.00  0.00    +0.000 C 
ATOM      9  N   UNL     1       3.780   2.887  17.574  0.00  0.00    +0.000 NA
ATOM     10  C   UNL     1       4.275   4.173  17.486  0.00  0.00    +0.000 C 
ATOM     11  O   UNL     1       5.392   4.471  17.093  0.00  0.00    +0.000 OA
ATOM     12  C   UNL     1       3.268   5.180  17.951  0.00  0.00    +0.000 C 
ATOM     13  C   UNL     1       3.537   6.490  18.026  0.00  0.00    +0.000 C 
ATOM     14  S   UNL     1       1.812   4.376  18.379  0.00  0.00    +0.000 S 
ATOM     15  H   UNL     1       2.191   0.898  17.774  0.00  0.00    +0.000 HD
ATOM     16  H   UNL     1       0.840   1.840  18.243  0.00  0.00    +0.000 HD
ENDBRANCH   1  13
BRANCH   4  17
ATOM     17  O   UNL     1      -0.038  10.482  19.795  0.00  0.00    +0.000 OA
BRANCH  17  18
ATOM     18  C   UNL     1       0.067  11.674  19.009  0.00  0.00    +0.000 C 
BRANCH  18  19
ATOM     19  C   UNL     1      -1.314  12.078  18.517  0.00  0.00    +0.000 C 
ATOM     20  O   UNL     1      -2.333  11.976  19.186  0.00  0.00    +0.000 OA
BRANCH  19  21
ATOM     21  O   UNL     1      -1.319  12.582  17.258  0.00  0.00    +0.000 OA
ATOM     22  H   UNL     1      -0.529  12.264  16.770  0.00  0.00    +0.000 HD
ENDBRANCH  19  21
ENDBRANCH  18  19
ENDBRANCH  17  18
ENDBRANCH   4  17
TORSDOF 5
ENDMDL
MODEL 7
REMARK VINA RESULT:      -6.5      6.000      7.106
REMARK  Name = 
REMARK  5 active torsions:
REMARK  status: ('A' for Active; 'I' for Inactive)
REMARK    1  A    between atoms: C_7  and  C_8
REMARK    2  A    between atoms: C_11  and  O_12
REMARK    3  A    between atoms: O_12  and  C_13
REMARK    4  A    between atoms: C_13  and  C_14
REMARK    5  A    between atoms: C_14  and  O_16
REMARK                            x       y       z     vdW  Elec       q    Type
REMARK                         _______ _______ _______ _____ _____    ______ ____
ROOT
ATOM      1  C   UNL     1       2.663   7.228  19.147  0.00  0.00    +0.000 A 
ATOM      2  C   UNL     1       1.971   7.568  20.312  0.00  0.00    +0.000 A 
ATOM      3  C   UNL     1       1.098   8.661  20.320  0.00  0.00    +0.000 A 
ATOM      4  C   UNL     1       0.921   9.439  19.174  0.00  0.00    +0.000 A 
ATOM      5  C   UNL     1       1.594   9.088  18.002  0.00  0.00    +0.000 A 
ATOM      6  C   UNL     1       2.459   7.984  17.988  0.00  0.00    +0.000 A 
ENDROOT
BRANCH   1  13
ATOM      7  N   UNL     1       1.450   1.541  18.599  0.00  0.00    +0.000 N 
ATOM      8  C   UNL     1       2.317   2.567  18.740  0.00  0.00    +0.000 C 
ATOM      9  N   UNL     1       3.589   2.457  18.908  0.00  0.00    +0.000 NA
ATOM     10  C   UNL     1       4.213   3.681  19.047  0.00  0.00    +0.000 C 
ATOM     11  O   UNL     1       5.411   3.843  19.220  0.00  0.00    +0.000 OA
ATOM     12  C   UNL     1       3.230   4.809  18.973  0.00  0.00    +0.000 C 
ATOM     13  C   UNL     1       3.583   6.088  19.150  0.00  0.00    +0.000 C 
ATOM     14  S   UNL     1       1.659   4.179  18.677  0.00  0.00    +0.000 S 
ATOM     15  H   UNL     1       1.871   0.649  18.363  0.00  0.00    +0.000 HD
ATOM     16  H   UNL     1       0.576   1.745  18.132  0.00  0.00    +0.000 HD
ENDBRANCH   1  13
BRANCH   4  17
ATOM     17  O   UNL     1       0.035  10.475  19.302  0.00  0.00    +0.000 OA
BRANCH  17  18
ATOM     18  C   UNL     1       0.474  11.734  18.780  0.00  0.00    +0.000 C 
BRANCH  18  19
ATOM     19  C   UNL     1      -0.730  12.642  18.576  0.00  0.00    +0.000 C 
ATOM     20  O   UNL     1      -1.248  13.297  19.469  0.00  0.00    +0.000 OA
BRANCH  19  21
ATOM     21  O   UNL     1      -1.177  12.675  17.296  0.00  0.00    +0.000 OA
ATOM     22  H   UNL     1      -0.417  12.747  16.680  0.00  0.00    +0.000 HD
ENDBRANCH  19  21
ENDBRANCH  18  19
ENDBRANCH  17  18
ENDBRANCH   4  17
TORSDOF 5
ENDMDL
MODEL 8
REMARK VINA RESULT:      -6.5      5.293      6.122
REMARK  Name = 
REMARK  5 active torsions:
REMARK  status: ('A' for Active; 'I' for Inactive)
REMARK    1  A    between atoms: C_7  and  C_8
REMARK    2  A    between atoms: C_11  and  O_12
REMARK    3  A    between atoms: O_12  and  C_13
REMARK    4  A    between atoms: C_13  and  C_14
REMARK    5  A    between atoms: C_14  and  O_16
REMARK                            x       y       z     vdW  Elec       q    Type
REMARK                         _______ _______ _______ _____ _____    ______ ____
ROOT
ATOM      1  C   UNL     1       2.499   7.670  18.603  0.00  0.00    +0.000 A 
ATOM      2  C   UNL     1       1.875   8.706  17.904  0.00  0.00    +0.000 A 
ATOM      3  C   UNL     1       0.948   9.533  18.548  0.00  0.00    +0.000 A 
ATOM      4  C   UNL     1       0.620   9.323  19.889  0.00  0.00    +0.000 A 
ATOM      5  C   UNL     1       1.259   8.303  20.596  0.00  0.00    +0.000 A 
ATOM      6  C   UNL     1       2.198   7.481  19.955  0.00  0.00    +0.000 A 
ENDROOT
BRANCH   1  13
ATOM      7  N   UNL     1       2.274   1.891  17.786  0.00  0.00    +0.000 N 
ATOM      8  C   UNL     1       2.863   3.096  17.626  0.00  0.00    +0.000 C 
ATOM      9  N   UNL     1       4.008   3.304  17.074  0.00  0.00    +0.000 NA
ATOM     10  C   UNL     1       4.363   4.639  17.075  0.00  0.00    +0.000 C 
ATOM     11  O   UNL     1       5.399   5.091  16.614  0.00  0.00    +0.000 OA
ATOM     12  C   UNL     1       3.314   5.484  17.732  0.00  0.00    +0.000 C 
ATOM     13  C   UNL     1       3.459   6.801  17.918  0.00  0.00    +0.000 C 
ATOM     14  S   UNL     1       1.995   4.490  18.206  0.00  0.00    +0.000 S 
ATOM     15  H   UNL     1       2.651   1.146  17.210  0.00  0.00    +0.000 HD
ATOM     16  H   UNL     1       1.268   1.888  17.896  0.00  0.00    +0.000 HD
ENDBRANCH   1  13
BRANCH   4  17
ATOM     17  O   UNL     1      -0.290  10.203  20.412  0.00  0.00    +0.000 OA
BRANCH  17  18
ATOM     18  C   UNL     1       0.195  11.047  21.461  0.00  0.00    +0.000 C 
BRANCH  18  19
ATOM     19  C   UNL     1      -0.533  10.714  22.755  0.00  0.00    +0.000 C 
ATOM     20  O   UNL     1      -1.660  11.107  23.022  0.00  0.00    +0.000 OA
BRANCH  19  21
ATOM     21  O   UNL     1       0.179   9.922  23.593  0.00  0.00    +0.000 OA
ATOM     22  H   UNL     1      -0.329   9.773  24.421  0.00  0.00    +0.000 HD
ENDBRANCH  19  21
ENDBRANCH  18  19
ENDBRANCH  17  18
ENDBRANCH   4  17
TORSDOF 5
ENDMDL
MODEL 9
REMARK VINA RESULT:      -6.5      5.238      6.112
REMARK  Name = 
REMARK  5 active torsions:
REMARK  status: ('A' for Active; 'I' for Inactive)
REMARK    1  A    between atoms: C_7  and  C_8
REMARK    2  A    between atoms: C_11  and  O_12
REMARK    3  A    between atoms: O_12  and  C_13
REMARK    4  A    between atoms: C_13  and  C_14
REMARK    5  A    between atoms: C_14  and  O_16
REMARK                            x       y       z     vdW  Elec       q    Type
REMARK                         _______ _______ _______ _____ _____    ______ ____
ROOT
ATOM      1  C   UNL     1       2.521   7.679  18.527  0.00  0.00    +0.000 A 
ATOM      2  C   UNL     1       2.181   7.508  19.871  0.00  0.00    +0.000 A 
ATOM      3  C   UNL     1       1.236   8.346  20.471  0.00  0.00    +0.000 A 
ATOM      4  C   UNL     1       0.635   9.376  19.744  0.00  0.00    +0.000 A 
ATOM      5  C   UNL     1       0.956   9.534  18.395  0.00  0.00    +0.000 A 
ATOM      6  C   UNL     1       1.894   8.687  17.788  0.00  0.00    +0.000 A 
ENDROOT
BRANCH   1  13
ATOM      7  N   UNL     1       2.345   1.892  17.755  0.00  0.00    +0.000 N 
ATOM      8  C   UNL     1       2.942   3.096  17.619  0.00  0.00    +0.000 C 
ATOM      9  N   UNL     1       4.118   3.299  17.134  0.00  0.00    +0.000 NA
ATOM     10  C   UNL     1       4.472   4.633  17.143  0.00  0.00    +0.000 C 
ATOM     11  O   UNL     1       5.534   5.081  16.740  0.00  0.00    +0.000 OA
ATOM     12  C   UNL     1       3.386   5.484  17.728  0.00  0.00    +0.000 C 
ATOM     13  C   UNL     1       3.520   6.804  17.909  0.00  0.00    +0.000 C 
ATOM     14  S   UNL     1       2.041   4.495  18.132  0.00  0.00    +0.000 S 
ATOM     15  H   UNL     1       2.755   1.142  17.211  0.00  0.00    +0.000 HD
ATOM     16  H   UNL     1       1.334   1.890  17.806  0.00  0.00    +0.000 HD
ENDBRANCH   1  13
BRANCH   4  17
ATOM     17  O   UNL     1      -0.281  10.122  20.436  0.00  0.00    +0.000 OA
BRANCH  17  18
ATOM     18  C   UNL     1       0.251  10.939  21.485  0.00  0.00    +0.000 C 
BRANCH  18  19
ATOM     19  C   UNL     1      -0.377  10.530  22.810  0.00  0.00    +0.000 C 
ATOM     20  O   UNL     1       0.172   9.806  23.628  0.00  0.00    +0.000 OA
BRANCH  19  21
ATOM     21  O   UNL     1      -1.609  11.057  23.015  0.00  0.00    +0.000 OA
ATOM     22  H   UNL     1      -1.690  11.360  23.946  0.00  0.00    +0.000 HD
ENDBRANCH  19  21
ENDBRANCH  18  19
ENDBRANCH  17  18
ENDBRANCH   4  17
TORSDOF 5
ENDMDL
