MODEL 1
REMARK VINA RESULT:      -8.2      0.000      0.000
REMARK  Name = 
REMARK  8 active torsions:
REMARK  status: ('A' for Active; 'I' for Inactive)
REMARK    1  A    between atoms: C_1  and  C_2
REMARK    2  A    between atoms: C_2  and  C_3
REMARK    3  A    between atoms: C_2  and  C_25
REMARK    4  A    between atoms: C_3  and  N_4
REMARK    5  A    between atoms: C_5  and  C_7
REMARK    6  A    between atoms: C_7  and  N_8
REMARK    7  A    between atoms: C_13  and  S_14
REMARK    8  A    between atoms: S_14  and  N_17
REMARK                            x       y       z     vdW  Elec       q    Type
REMARK                         _______ _______ _______ _____ _____    ______ ____
ROOT
ATOM      1  N   UNL     1       0.725  10.371  20.108  0.00  0.00    +0.000 N 
ATOM      2  C   UNL     1       0.197  10.006  21.320  0.00  0.00    +0.000 A 
ATOM      3  C   UNL     1       0.584   8.708  21.573  0.00  0.00    +0.000 A 
ATOM      4  C   UNL     1       1.362   8.260  20.470  0.00  0.00    +0.000 A 
ATOM      5  C   UNL     1       2.053   7.064  20.185  0.00  0.00    +0.000 A 
ATOM      6  C   UNL     1       2.708   6.947  18.951  0.00  0.00    +0.000 A 
ATOM      7  C   UNL     1       2.643   7.959  17.993  0.00  0.00    +0.000 A 
ATOM      8  C   UNL     1       1.985   9.158  18.273  0.00  0.00    +0.000 A 
ATOM      9  C   UNL     1       1.376   9.298  19.531  0.00  0.00    +0.000 A 
ENDROOT
BRANCH   6  10
ATOM     10  S   UNL     1       3.639   5.478  18.597  0.00  0.00    +0.000 S 
ATOM     11  O   UNL     1       3.868   5.438  17.168  0.00  0.00    +0.000 OA
ATOM     12  O   UNL     1       4.746   5.405  19.529  0.00  0.00    +0.000 OA
BRANCH  10  13
ATOM     13  N   UNL     1       2.573   4.196  18.990  0.00  0.00    +0.000 NA
ATOM     14  C   UNL     1       3.112   3.096  19.826  0.00  0.00    +0.000 C 
ATOM     15  C   UNL     1       3.490   2.004  18.849  0.00  0.00    +0.000 C 
ATOM     16  C   UNL     1       2.425   2.098  17.776  0.00  0.00    +0.000 C 
ATOM     17  C   UNL     1       1.963   3.554  17.782  0.00  0.00    +0.000 C 
ENDBRANCH  10  13
ENDBRANCH   6  10
BRANCH   1  18
ATOM     18  C   UNL     1       0.724  11.732  19.594  0.00  0.00    +0.000 C 
BRANCH  18  20
ATOM     19  N   UNL     1      -0.963  11.341  17.880  0.00  0.00    +0.000 N 
ATOM     20  C   UNL     1      -0.598  12.112  18.970  0.00  0.00    +0.000 C 
ATOM     21  O   UNL     1      -1.312  13.003  19.429  0.00  0.00    +0.000 OA
ATOM     22  H   UNL     1      -0.234  10.841  17.384  0.00  0.00    +0.000 HD
BRANCH  19  23
ATOM     23  C   UNL     1      -2.164  11.655  17.122  0.00  0.00    +0.000 C 
BRANCH  23  25
ATOM     24  C   UNL     1      -3.245   9.720  15.882  0.00  0.00    +0.000 C 
ATOM     25  C   UNL     1      -3.246  10.558  17.168  0.00  0.00    +0.000 C 
BRANCH  25  26
ATOM     26  C   UNL     1      -4.626  11.074  17.558  0.00  0.00    +0.000 A 
ATOM     27  C   UNL     1      -5.382  10.358  18.502  0.00  0.00    +0.000 A 
ATOM     28  C   UNL     1      -6.694  10.733  18.802  0.00  0.00    +0.000 A 
ATOM     29  C   UNL     1      -7.267  11.836  18.174  0.00  0.00    +0.000 A 
ATOM     30  C   UNL     1      -6.520  12.578  17.265  0.00  0.00    +0.000 A 
ATOM     31  C   UNL     1      -5.206  12.207  16.967  0.00  0.00    +0.000 A 
ENDBRANCH  25  26
ENDBRANCH  23  25
ENDBRANCH  19  23
ENDBRANCH  18  20
ENDBRANCH   1  18
TORSDOF 7
ENDMDL
MODEL 2
REMARK VINA RESULT:      -8.0      1.968      2.249
REMARK  Name = 
REMARK  8 active torsions:
REMARK  status: ('A' for Active; 'I' for Inactive)
REMARK    1  A    between atoms: C_1  and  C_2
REMARK    2  A    between atoms: C_2  and  C_3
REMARK    3  A    between atoms: C_2  and  C_25
REMARK    4  A    between atoms: C_3  and  N_4
REMARK    5  A    between atoms: C_5  and  C_7
REMARK    6  A    between atoms: C_7  and  N_8
REMARK    7  A    between atoms: C_13  and  S_14
REMARK    8  A    between atoms: S_14  and  N_17
REMARK                            x       y       z     vdW  Elec       q    Type
REMARK                         _______ _______ _______ _____ _____    ______ ____
ROOT
ATOM      1  N   UNL     1       1.052   9.973  20.055  0.00  0.00    +0.000 N 
ATOM      2  C   UNL     1       0.576   9.554  21.271  0.00  0.00    +0.000 A 
ATOM      3  C   UNL     1       0.964   8.244  21.447  0.00  0.00    +0.000 A 
ATOM      4  C   UNL     1       1.688   7.843  20.290  0.00  0.00    +0.000 A 
ATOM      5  C   UNL     1       2.356   6.658  19.919  0.00  0.00    +0.000 A 
ATOM      6  C   UNL     1       2.954   6.594  18.653  0.00  0.00    +0.000 A 
ATOM      7  C   UNL     1       2.855   7.651  17.747  0.00  0.00    +0.000 A 
ATOM      8  C   UNL     1       2.219   8.839  18.111  0.00  0.00    +0.000 A 
ATOM      9  C   UNL     1       1.669   8.923  19.400  0.00  0.00    +0.000 A 
ENDROOT
BRANCH   6  10
ATOM     10  S   UNL     1       3.856   5.138  18.189  0.00  0.00    +0.000 S 
ATOM     11  O   UNL     1       4.376   4.539  19.400  0.00  0.00    +0.000 OA
ATOM     12  O   UNL     1       3.040   4.370  17.272  0.00  0.00    +0.000 OA
BRANCH  10  13
ATOM     13  N   UNL     1       5.187   5.734  17.290  0.00  0.00    +0.000 NA
ATOM     14  C   UNL     1       5.319   5.274  15.885  0.00  0.00    +0.000 C 
ATOM     15  C   UNL     1       6.319   4.139  15.932  0.00  0.00    +0.000 C 
ATOM     16  C   UNL     1       7.298   4.568  17.007  0.00  0.00    +0.000 C 
ATOM     17  C   UNL     1       6.504   5.467  17.951  0.00  0.00    +0.000 C 
ENDBRANCH  10  13
ENDBRANCH   6  10
BRANCH   1  18
ATOM     18  C   UNL     1       1.039  11.356  19.605  0.00  0.00    +0.000 C 
BRANCH  18  20
ATOM     19  N   UNL     1      -0.816  11.314  18.025  0.00  0.00    +0.000 N 
ATOM     20  C   UNL     1      -0.345  11.826  19.222  0.00  0.00    +0.000 C 
ATOM     21  O   UNL     1      -1.014  12.563  19.945  0.00  0.00    +0.000 OA
ATOM     22  H   UNL     1      -0.139  10.966  17.356  0.00  0.00    +0.000 HD
BRANCH  19  23
ATOM     23  C   UNL     1      -2.093  11.754  17.486  0.00  0.00    +0.000 C 
BRANCH  23  25
ATOM     24  C   UNL     1      -3.481   9.898  16.447  0.00  0.00    +0.000 C 
ATOM     25  C   UNL     1      -3.247  10.755  17.699  0.00  0.00    +0.000 C 
BRANCH  25  26
ATOM     26  C   UNL     1      -4.518  11.394  18.247  0.00  0.00    +0.000 A 
ATOM     27  C   UNL     1      -4.433  12.230  19.373  0.00  0.00    +0.000 A 
ATOM     28  C   UNL     1      -5.586  12.744  19.972  0.00  0.00    +0.000 A 
ATOM     29  C   UNL     1      -6.840  12.440  19.449  0.00  0.00    +0.000 A 
ATOM     30  C   UNL     1      -6.940  11.645  18.312  0.00  0.00    +0.000 A 
ATOM     31  C   UNL     1      -5.788  11.134  17.709  0.00  0.00    +0.000 A 
ENDBRANCH  25  26
ENDBRANCH  23  25
ENDBRANCH  19  23
ENDBRANCH  18  20
ENDBRANCH   1  18
TORSDOF 7
ENDMDL
MODEL 3
REMARK VINA RESULT:      -7.9      1.374      1.776
REMARK  Name = 
REMARK  8 active torsions:
REMARK  status: ('A' for Active; 'I' for Inactive)
REMARK    1  A    between atoms: C_1  and  C_2
REMARK    2  A    between atoms: C_2  and  C_3
REMARK    3  A    between atoms: C_2  and  C_25
REMARK    4  A    between atoms: C_3  and  N_4
REMARK    5  A    between atoms: C_5  and  C_7
REMARK    6  A    between atoms: C_7  and  N_8
REMARK    7  A    between atoms: C_13  and  S_14
REMARK    8  A    between atoms: S_14  and  N_17
REMARK                            x       y       z     vdW  Elec       q    Type
REMARK                         _______ _______ _______ _____ _____    ______ ____
ROOT
ATOM      1  N   UNL     1       1.564   9.055  19.208  0.00  0.00    +0.000 N 
ATOM      2  C   UNL     1       1.012   8.802  20.438  0.00  0.00    +0.000 A 
ATOM      3  C   UNL     1       1.460   7.568  20.855  0.00  0.00    +0.000 A 
ATOM      4  C   UNL     1       2.303   7.042  19.836  0.00  0.00    +0.000 A 
ATOM      5  C   UNL     1       3.068   5.863  19.717  0.00  0.00    +0.000 A 
ATOM      6  C   UNL     1       3.775   5.643  18.526  0.00  0.00    +0.000 A 
ATOM      7  C   UNL     1       3.691   6.532  17.454  0.00  0.00    +0.000 A 
ATOM      8  C   UNL     1       2.958   7.714  17.570  0.00  0.00    +0.000 A 
ATOM      9  C   UNL     1       2.295   7.962  18.783  0.00  0.00    +0.000 A 
ENDROOT
BRANCH   6  10
ATOM     10  S   UNL     1       4.798   4.201  18.377  0.00  0.00    +0.000 S 
ATOM     11  O   UNL     1       5.667   4.395  17.235  0.00  0.00    +0.000 OA
ATOM     12  O   UNL     1       5.346   3.893  19.683  0.00  0.00    +0.000 OA
BRANCH  10  13
ATOM     13  N   UNL     1       3.703   2.942  17.989  0.00  0.00    +0.000 NA
ATOM     14  C   UNL     1       2.500   3.306  17.201  0.00  0.00    +0.000 C 
ATOM     15  C   UNL     1       1.393   3.469  18.220  0.00  0.00    +0.000 C 
ATOM     16  C   UNL     1       1.702   2.409  19.258  0.00  0.00    +0.000 C 
ATOM     17  C   UNL     1       3.214   2.203  19.196  0.00  0.00    +0.000 C 
ENDBRANCH  10  13
ENDBRANCH   6  10
BRANCH   1  18
ATOM     18  C   UNL     1       1.508  10.345  18.537  0.00  0.00    +0.000 C 
BRANCH  18  20
ATOM     19  N   UNL     1      -0.746  10.940  17.829  0.00  0.00    +0.000 N 
ATOM     20  C   UNL     1       0.218  11.082  18.812  0.00  0.00    +0.000 C 
ATOM     21  O   UNL     1       0.029  11.714  19.850  0.00  0.00    +0.000 OA
ATOM     22  H   UNL     1      -0.445  10.669  16.900  0.00  0.00    +0.000 HD
BRANCH  19  23
ATOM     23  C   UNL     1      -2.001  11.671  17.915  0.00  0.00    +0.000 C 
BRANCH  23  25
ATOM     24  C   UNL     1      -3.402  10.374  16.240  0.00  0.00    +0.000 C 
ATOM     25  C   UNL     1      -3.255  10.800  17.707  0.00  0.00    +0.000 C 
BRANCH  25  26
ATOM     26  C   UNL     1      -4.525  11.404  18.296  0.00  0.00    +0.000 A 
ATOM     27  C   UNL     1      -4.426  12.250  19.413  0.00  0.00    +0.000 A 
ATOM     28  C   UNL     1      -5.573  12.732  20.050  0.00  0.00    +0.000 A 
ATOM     29  C   UNL     1      -6.834  12.386  19.575  0.00  0.00    +0.000 A 
ATOM     30  C   UNL     1      -6.950  11.580  18.447  0.00  0.00    +0.000 A 
ATOM     31  C   UNL     1      -5.805  11.101  17.806  0.00  0.00    +0.000 A 
ENDBRANCH  25  26
ENDBRANCH  23  25
ENDBRANCH  19  23
ENDBRANCH  18  20
ENDBRANCH   1  18
TORSDOF 7
ENDMDL
MODEL 4
REMARK VINA RESULT:      -7.9      3.427      9.575
REMARK  Name = 
REMARK  8 active torsions:
REMARK  status: ('A' for Active; 'I' for Inactive)
REMARK    1  A    between atoms: C_1  and  C_2
REMARK    2  A    between atoms: C_2  and  C_3
REMARK    3  A    between atoms: C_2  and  C_25
REMARK    4  A    between atoms: C_3  and  N_4
REMARK    5  A    between atoms: C_5  and  C_7
REMARK    6  A    between atoms: C_7  and  N_8
REMARK    7  A    between atoms: C_13  and  S_14
REMARK    8  A    between atoms: S_14  and  N_17
REMARK                            x       y       z     vdW  Elec       q    Type
REMARK                         _______ _______ _______ _____ _____    ______ ____
ROOT
ATOM      1  N   UNL     1       2.301   4.689  19.120  0.00  0.00    +0.000 N 
ATOM      2  C   UNL     1       2.115   4.189  20.383  0.00  0.00    +0.000 A 
ATOM      3  C   UNL     1       1.751   5.235  21.201  0.00  0.00    +0.000 A 
ATOM      4  C   UNL     1       1.731   6.420  20.414  0.00  0.00    +0.000 A 
ATOM      5  C   UNL     1       1.397   7.764  20.681  0.00  0.00    +0.000 A 
ATOM      6  C   UNL     1       1.525   8.703  19.649  0.00  0.00    +0.000 A 
ATOM      7  C   UNL     1       2.021   8.345  18.396  0.00  0.00    +0.000 A 
ATOM      8  C   UNL     1       2.330   7.014  18.110  0.00  0.00    +0.000 A 
ATOM      9  C   UNL     1       2.149   6.063  19.127  0.00  0.00    +0.000 A 
ENDROOT
BRANCH   6  10
ATOM     10  S   UNL     1       1.047  10.387  19.942  0.00  0.00    +0.000 S 
ATOM     11  O   UNL     1       1.325  10.687  21.331  0.00  0.00    +0.000 OA
ATOM     12  O   UNL     1       1.597  11.207  18.881  0.00  0.00    +0.000 OA
BRANCH  10  13
ATOM     13  N   UNL     1      -0.654  10.387  19.739  0.00  0.00    +0.000 NA
ATOM     14  C   UNL     1      -1.173  10.401  18.349  0.00  0.00    +0.000 C 
ATOM     15  C   UNL     1      -1.499  11.851  18.063  0.00  0.00    +0.000 C 
ATOM     16  C   UNL     1      -2.006  12.373  19.392  0.00  0.00    +0.000 C 
ATOM     17  C   UNL     1      -1.327  11.516  20.457  0.00  0.00    +0.000 C 
ENDBRANCH  10  13
ENDBRANCH   6  10
BRANCH   1  18
ATOM     18  C   UNL     1       2.477   3.866  17.933  0.00  0.00    +0.000 C 
BRANCH  18  20
ATOM     19  N   UNL     1       4.259   4.056  16.282  0.00  0.00    +0.000 N 
ATOM     20  C   UNL     1       3.932   3.678  17.572  0.00  0.00    +0.000 C 
ATOM     21  O   UNL     1       4.764   3.269  18.382  0.00  0.00    +0.000 OA
ATOM     22  H   UNL     1       3.514   4.102  15.595  0.00  0.00    +0.000 HD
BRANCH  19  23
ATOM     23  C   UNL     1       5.602   3.841  15.767  0.00  0.00    +0.000 C 
BRANCH  23  25
ATOM     24  C   UNL     1       7.402   4.933  14.345  0.00  0.00    +0.000 C 
ATOM     25  C   UNL     1       6.381   5.138  15.474  0.00  0.00    +0.000 C 
BRANCH  25  26
ATOM     26  C   UNL     1       6.972   5.793  16.717  0.00  0.00    +0.000 A 
ATOM     27  C   UNL     1       7.132   7.189  16.744  0.00  0.00    +0.000 A 
ATOM     28  C   UNL     1       7.771   7.816  17.817  0.00  0.00    +0.000 A 
ATOM     29  C   UNL     1       8.250   7.060  18.884  0.00  0.00    +0.000 A 
ATOM     30  C   UNL     1       8.066   5.682  18.891  0.00  0.00    +0.000 A 
ATOM     31  C   UNL     1       7.423   5.053  17.821  0.00  0.00    +0.000 A 
ENDBRANCH  25  26
ENDBRANCH  23  25
ENDBRANCH  19  23
ENDBRANCH  18  20
ENDBRANCH   1  18
TORSDOF 7
ENDMDL
MODEL 5
REMARK VINA RESULT:      -7.9      3.913      9.370
REMARK  Name = 
REMARK  8 active torsions:
REMARK  status: ('A' for Active; 'I' for Inactive)
REMARK    1  A    between atoms: C_1  and  C_2
REMARK    2  A    between atoms: C_2  and  C_3
REMARK    3  A    between atoms: C_2  and  C_25
REMARK    4  A    between atoms: C_3  and  N_4
REMARK    5  A    between atoms: C_5  and  C_7
REMARK    6  A    between atoms: C_7  and  N_8
REMARK    7  A    between atoms: C_13  and  S_14
REMARK    8  A    between atoms: S_14  and  N_17
REMARK                            x       y       z     vdW  Elec       q    Type
REMARK                         _______ _______ _______ _____ _____    ______ ____
ROOT
ATOM      1  N   UNL     1       0.232   9.832  20.037  0.00  0.00    +0.000 N 
ATOM      2  C   UNL     1       0.934   9.080  20.944  0.00  0.00    +0.000 A 
ATOM      3  C   UNL     1       0.500   9.426  22.204  0.00  0.00    +0.000 A 
ATOM      4  C   UNL     1      -0.490  10.438  22.063  0.00  0.00    +0.000 A 
ATOM      5  C   UNL     1      -1.308  11.136  22.976  0.00  0.00    +0.000 A 
ATOM      6  C   UNL     1      -2.176  12.119  22.480  0.00  0.00    +0.000 A 
ATOM      7  C   UNL     1      -2.203  12.450  21.125  0.00  0.00    +0.000 A 
ATOM      8  C   UNL     1      -1.418  11.749  20.208  0.00  0.00    +0.000 A 
ATOM      9  C   UNL     1      -0.590  10.726  20.697  0.00  0.00    +0.000 A 
ENDROOT
BRANCH   6  10
ATOM     10  S   UNL     1      -3.263  12.964  23.600  0.00  0.00    +0.000 S 
ATOM     11  O   UNL     1      -3.983  11.961  24.354  0.00  0.00    +0.000 OA
ATOM     12  O   UNL     1      -2.506  14.000  24.274  0.00  0.00    +0.000 OA
BRANCH  10  13
ATOM     13  N   UNL     1      -4.388  13.757  22.580  0.00  0.00    +0.000 NA
ATOM     14  C   UNL     1      -4.666  15.188  22.856  0.00  0.00    +0.000 C 
ATOM     15  C   UNL     1      -5.943  15.194  23.668  0.00  0.00    +0.000 C 
ATOM     16  C   UNL     1      -6.745  14.049  23.083  0.00  0.00    +0.000 C 
ATOM     17  C   UNL     1      -5.716  13.067  22.529  0.00  0.00    +0.000 C 
ENDBRANCH  10  13
ENDBRANCH   6  10
BRANCH   1  18
ATOM     18  C   UNL     1       0.246   9.603  18.600  0.00  0.00    +0.000 C 
BRANCH  18  20
ATOM     19  N   UNL     1       2.052   8.103  17.948  0.00  0.00    +0.000 N 
ATOM     20  C   UNL     1       1.644   9.421  18.059  0.00  0.00    +0.000 C 
ATOM     21  O   UNL     1       2.340  10.370  17.699  0.00  0.00    +0.000 OA
ATOM     22  H   UNL     1       1.576   7.408  18.512  0.00  0.00    +0.000 HD
BRANCH  19  23
ATOM     23  C   UNL     1       3.408   7.782  17.532  0.00  0.00    +0.000 C 
BRANCH  23  25
ATOM     24  C   UNL     1       4.620   5.668  16.816  0.00  0.00    +0.000 C 
ATOM     25  C   UNL     1       3.886   6.381  17.960  0.00  0.00    +0.000 C 
BRANCH  25  26
ATOM     26  C   UNL     1       2.797   5.533  18.608  0.00  0.00    +0.000 A 
ATOM     27  C   UNL     1       2.518   5.705  19.974  0.00  0.00    +0.000 A 
ATOM     28  C   UNL     1       1.608   4.872  20.629  0.00  0.00    +0.000 A 
ATOM     29  C   UNL     1       0.955   3.861  19.929  0.00  0.00    +0.000 A 
ATOM     30  C   UNL     1       1.191   3.701  18.567  0.00  0.00    +0.000 A 
ATOM     31  C   UNL     1       2.097   4.537  17.909  0.00  0.00    +0.000 A 
ENDBRANCH  25  26
ENDBRANCH  23  25
ENDBRANCH  19  23
ENDBRANCH  18  20
ENDBRANCH   1  18
TORSDOF 7
ENDMDL
MODEL 6
REMARK VINA RESULT:      -7.8      2.122      2.747
REMARK  Name = 
REMARK  8 active torsions:
REMARK  status: ('A' for Active; 'I' for Inactive)
REMARK    1  A    between atoms: C_1  and  C_2
REMARK    2  A    between atoms: C_2  and  C_3
REMARK    3  A    between atoms: C_2  and  C_25
REMARK    4  A    between atoms: C_3  and  N_4
REMARK    5  A    between atoms: C_5  and  C_7
REMARK    6  A    between atoms: C_7  and  N_8
REMARK    7  A    between atoms: C_13  and  S_14
REMARK    8  A    between atoms: S_14  and  N_17
REMARK                            x       y       z     vdW  Elec       q    Type
REMARK                         _______ _______ _______ _____ _____    ______ ____
ROOT
ATOM      1  N   UNL     1       1.587   8.802  19.346  0.00  0.00    +0.000 N 
ATOM      2  C   UNL     1       1.132   8.595  20.623  0.00  0.00    +0.000 A 
ATOM      3  C   UNL     1       1.584   7.361  21.036  0.00  0.00    +0.000 A 
ATOM      4  C   UNL     1       2.327   6.787  19.968  0.00  0.00    +0.000 A 
ATOM      5  C   UNL     1       3.053   5.587  19.818  0.00  0.00    +0.000 A 
ATOM      6  C   UNL     1       3.654   5.318  18.581  0.00  0.00    +0.000 A 
ATOM      7  C   UNL     1       3.503   6.181  17.495  0.00  0.00    +0.000 A 
ATOM      8  C   UNL     1       2.809   7.385  17.638  0.00  0.00    +0.000 A 
ATOM      9  C   UNL     1       2.255   7.680  18.893  0.00  0.00    +0.000 A 
ENDROOT
BRANCH   6  10
ATOM     10  S   UNL     1       4.628   3.847  18.388  0.00  0.00    +0.000 S 
ATOM     11  O   UNL     1       4.356   2.989  19.522  0.00  0.00    +0.000 OA
ATOM     12  O   UNL     1       4.458   3.364  17.033  0.00  0.00    +0.000 OA
BRANCH  10  13
ATOM     13  N   UNL     1       6.247   4.390  18.523  0.00  0.00    +0.000 NA
ATOM     14  C   UNL     1       6.469   5.721  19.140  0.00  0.00    +0.000 C 
ATOM     15  C   UNL     1       6.624   6.676  17.977  0.00  0.00    +0.000 C 
ATOM     16  C   UNL     1       7.352   5.855  16.933  0.00  0.00    +0.000 C 
ATOM     17  C   UNL     1       6.968   4.403  17.211  0.00  0.00    +0.000 C 
ENDBRANCH  10  13
ENDBRANCH   6  10
BRANCH   1  18
ATOM     18  C   UNL     1       1.505  10.075  18.647  0.00  0.00    +0.000 C 
BRANCH  18  20
ATOM     19  N   UNL     1      -0.897  10.228  18.272  0.00  0.00    +0.000 N 
ATOM     20  C   UNL     1       0.199  10.791  18.901  0.00  0.00    +0.000 C 
ATOM     21  O   UNL     1       0.116  11.764  19.649  0.00  0.00    +0.000 OA
ATOM     22  H   UNL     1      -0.733   9.634  17.467  0.00  0.00    +0.000 HD
BRANCH  19  23
ATOM     23  C   UNL     1      -2.202  10.866  18.350  0.00  0.00    +0.000 C 
BRANCH  23  25
ATOM     24  C   UNL     1      -2.872   9.889  16.104  0.00  0.00    +0.000 C 
ATOM     25  C   UNL     1      -3.307  10.146  17.554  0.00  0.00    +0.000 C 
BRANCH  25  26
ATOM     26  C   UNL     1      -4.676  10.805  17.671  0.00  0.00    +0.000 A 
ATOM     27  C   UNL     1      -4.956  11.944  16.896  0.00  0.00    +0.000 A 
ATOM     28  C   UNL     1      -6.156  12.642  17.056  0.00  0.00    +0.000 A 
ATOM     29  C   UNL     1      -7.099  12.208  17.984  0.00  0.00    +0.000 A 
ATOM     30  C   UNL     1      -6.854  11.061  18.732  0.00  0.00    +0.000 A 
ATOM     31  C   UNL     1      -5.657  10.358  18.570  0.00  0.00    +0.000 A 
ENDBRANCH  25  26
ENDBRANCH  23  25
ENDBRANCH  19  23
ENDBRANCH  18  20
ENDBRANCH   1  18
TORSDOF 7
ENDMDL
MODEL 7
REMARK VINA RESULT:      -7.8      1.265      2.148
REMARK  Name = 
REMARK  8 active torsions:
REMARK  status: ('A' for Active; 'I' for Inactive)
REMARK    1  A    between atoms: C_1  and  C_2
REMARK    2  A    between atoms: C_2  and  C_3
REMARK    3  A    between atoms: C_2  and  C_25
REMARK    4  A    between atoms: C_3  and  N_4
REMARK    5  A    between atoms: C_5  and  C_7
REMARK    6  A    between atoms: C_7  and  N_8
REMARK    7  A    between atoms: C_13  and  S_14
REMARK    8  A    between atoms: S_14  and  N_17
REMARK                            x       y       z     vdW  Elec       q    Type
REMARK                         _______ _______ _______ _____ _____    ______ ____
ROOT
ATOM      1  N   UNL     1       1.415   8.871  19.314  0.00  0.00    +0.000 N 
ATOM      2  C   UNL     1       1.717   9.563  18.169  0.00  0.00    +0.000 A 
ATOM      3  C   UNL     1       2.604   8.804  17.439  0.00  0.00    +0.000 A 
ATOM      4  C   UNL     1       2.866   7.613  18.172  0.00  0.00    +0.000 A 
ATOM      5  C   UNL     1       3.641   6.462  17.917  0.00  0.00    +0.000 A 
ATOM      6  C   UNL     1       3.702   5.465  18.901  0.00  0.00    +0.000 A 
ATOM      7  C   UNL     1       3.061   5.616  20.131  0.00  0.00    +0.000 A 
ATOM      8  C   UNL     1       2.270   6.738  20.385  0.00  0.00    +0.000 A 
ATOM      9  C   UNL     1       2.164   7.711  19.378  0.00  0.00    +0.000 A 
ENDROOT
BRANCH   6  10
ATOM     10  S   UNL     1       4.615   3.979  18.578  0.00  0.00    +0.000 S 
ATOM     11  O   UNL     1       5.418   4.204  17.394  0.00  0.00    +0.000 OA
ATOM     12  O   UNL     1       5.226   3.541  19.817  0.00  0.00    +0.000 OA
BRANCH  10  13
ATOM     13  N   UNL     1       3.415   2.822  18.181  0.00  0.00    +0.000 NA
ATOM     14  C   UNL     1       2.428   3.196  17.138  0.00  0.00    +0.000 C 
ATOM     15  C   UNL     1       1.209   3.669  17.900  0.00  0.00    +0.000 C 
ATOM     16  C   UNL     1       1.177   2.771  19.120  0.00  0.00    +0.000 C 
ATOM     17  C   UNL     1       2.628   2.367  19.370  0.00  0.00    +0.000 C 
ENDBRANCH  10  13
ENDBRANCH   6  10
BRANCH   1  18
ATOM     18  C   UNL     1       0.350   9.239  20.235  0.00  0.00    +0.000 C 
BRANCH  18  20
ATOM     19  N   UNL     1      -1.452   9.967  18.766  0.00  0.00    +0.000 N 
ATOM     20  C   UNL     1      -0.511  10.359  19.702  0.00  0.00    +0.000 C 
ATOM     21  O   UNL     1      -0.413  11.516  20.109  0.00  0.00    +0.000 OA
ATOM     22  H   UNL     1      -1.297   9.097  18.269  0.00  0.00    +0.000 HD
BRANCH  19  23
ATOM     23  C   UNL     1      -2.285  10.954  18.098  0.00  0.00    +0.000 C 
BRANCH  23  25
ATOM     24  C   UNL     1      -3.199  10.139  15.872  0.00  0.00    +0.000 C 
ATOM     25  C   UNL     1      -3.502  10.360  17.361  0.00  0.00    +0.000 C 
BRANCH  25  26
ATOM     26  C   UNL     1      -4.801  11.117  17.612  0.00  0.00    +0.000 A 
ATOM     27  C   UNL     1      -5.689  10.645  18.594  0.00  0.00    +0.000 A 
ATOM     28  C   UNL     1      -6.938  11.244  18.777  0.00  0.00    +0.000 A 
ATOM     29  C   UNL     1      -7.315  12.329  17.991  0.00  0.00    +0.000 A 
ATOM     30  C   UNL     1      -6.433  12.834  17.041  0.00  0.00    +0.000 A 
ATOM     31  C   UNL     1      -5.181  12.239  16.859  0.00  0.00    +0.000 A 
ENDBRANCH  25  26
ENDBRANCH  23  25
ENDBRANCH  19  23
ENDBRANCH  18  20
ENDBRANCH   1  18
TORSDOF 7
ENDMDL
MODEL 8
REMARK VINA RESULT:      -7.7      3.078      3.795
REMARK  Name = 
REMARK  8 active torsions:
REMARK  status: ('A' for Active; 'I' for Inactive)
REMARK    1  A    between atoms: C_1  and  C_2
REMARK    2  A    between atoms: C_2  and  C_3
REMARK    3  A    between atoms: C_2  and  C_25
REMARK    4  A    between atoms: C_3  and  N_4
REMARK    5  A    between atoms: C_5  and  C_7
REMARK    6  A    between atoms: C_7  and  N_8
REMARK    7  A    between atoms: C_13  and  S_14
REMARK    8  A    between atoms: S_14  and  N_17
REMARK                            x       y       z     vdW  Elec       q    Type
REMARK                         _______ _______ _______ _____ _____    ______ ____
ROOT
ATOM      1  N   UNL     1       0.343  10.297  20.171  0.00  0.00    +0.000 N 
ATOM      2  C   UNL     1       0.040   9.866  21.437  0.00  0.00    +0.000 A 
ATOM      3  C   UNL     1       0.668   8.655  21.631  0.00  0.00    +0.000 A 
ATOM      4  C   UNL     1       1.365   8.327  20.435  0.00  0.00    +0.000 A 
ATOM      5  C   UNL     1       2.204   7.259  20.057  0.00  0.00    +0.000 A 
ATOM      6  C   UNL     1       2.710   7.235  18.750  0.00  0.00    +0.000 A 
ATOM      7  C   UNL     1       2.358   8.209  17.815  0.00  0.00    +0.000 A 
ATOM      8  C   UNL     1       1.549   9.285  18.184  0.00  0.00    +0.000 A 
ATOM      9  C   UNL     1       1.087   9.339  19.509  0.00  0.00    +0.000 A 
ENDROOT
BRANCH   6  10
ATOM     10  S   UNL     1       3.822   5.938  18.271  0.00  0.00    +0.000 S 
ATOM     11  O   UNL     1       4.505   5.481  19.463  0.00  0.00    +0.000 OA
ATOM     12  O   UNL     1       3.099   5.008  17.427  0.00  0.00    +0.000 OA
BRANCH  10  13
ATOM     13  N   UNL     1       4.978   6.717  17.275  0.00  0.00    +0.000 NA
ATOM     14  C   UNL     1       5.035   6.306  15.850  0.00  0.00    +0.000 C 
ATOM     15  C   UNL     1       6.170   5.308  15.771  0.00  0.00    +0.000 C 
ATOM     16  C   UNL     1       7.183   5.838  16.766  0.00  0.00    +0.000 C 
ATOM     17  C   UNL     1       6.373   6.608  17.806  0.00  0.00    +0.000 C 
ENDBRANCH  10  13
ENDBRANCH   6  10
BRANCH   1  18
ATOM     18  C   UNL     1       0.050  11.631  19.671  0.00  0.00    +0.000 C 
BRANCH  18  20
ATOM     19  N   UNL     1      -1.799  12.893  20.634  0.00  0.00    +0.000 N 
ATOM     20  C   UNL     1      -1.428  11.945  19.695  0.00  0.00    +0.000 C 
ATOM     21  O   UNL     1      -2.223  11.434  18.908  0.00  0.00    +0.000 OA
ATOM     22  H   UNL     1      -1.181  13.053  21.421  0.00  0.00    +0.000 HD
BRANCH  19  23
ATOM     23  C   UNL     1      -3.201  13.222  20.834  0.00  0.00    +0.000 C 
BRANCH  23  25
ATOM     24  C   UNL     1      -2.832  12.110  23.088  0.00  0.00    +0.000 C 
ATOM     25  C   UNL     1      -3.669  13.127  22.300  0.00  0.00    +0.000 C 
BRANCH  25  26
ATOM     26  C   UNL     1      -5.173  12.927  22.452  0.00  0.00    +0.000 A 
ATOM     27  C   UNL     1      -5.750  13.021  23.729  0.00  0.00    +0.000 A 
ATOM     28  C   UNL     1      -7.103  12.735  23.927  0.00  0.00    +0.000 A 
ATOM     29  C   UNL     1      -7.903  12.360  22.851  0.00  0.00    +0.000 A 
ATOM     30  C   UNL     1      -7.356  12.298  21.573  0.00  0.00    +0.000 A 
ATOM     31  C   UNL     1      -6.005  12.589  21.372  0.00  0.00    +0.000 A 
ENDBRANCH  25  26
ENDBRANCH  23  25
ENDBRANCH  19  23
ENDBRANCH  18  20
ENDBRANCH   1  18
TORSDOF 7
ENDMDL
MODEL 9
REMARK VINA RESULT:      -7.7      2.652      4.475
REMARK  Name = 
REMARK  8 active torsions:
REMARK  status: ('A' for Active; 'I' for Inactive)
REMARK    1  A    between atoms: C_1  and  C_2
REMARK    2  A    between atoms: C_2  and  C_3
REMARK    3  A    between atoms: C_2  and  C_25
REMARK    4  A    between atoms: C_3  and  N_4
REMARK    5  A    between atoms: C_5  and  C_7
REMARK    6  A    between atoms: C_7  and  N_8
REMARK    7  A    between atoms: C_13  and  S_14
REMARK    8  A    between atoms: S_14  and  N_17
REMARK                            x       y       z     vdW  Elec       q    Type
REMARK                         _______ _______ _______ _____ _____    ______ ____
ROOT
ATOM      1  N   UNL     1       1.353   8.775  19.692  0.00  0.00    +0.000 N 
ATOM      2  C   UNL     1       1.469   9.539  18.559  0.00  0.00    +0.000 A 
ATOM      3  C   UNL     1       2.273   8.858  17.672  0.00  0.00    +0.000 A 
ATOM      4  C   UNL     1       2.676   7.643  18.290  0.00  0.00    +0.000 A 
ATOM      5  C   UNL     1       3.447   6.541  17.866  0.00  0.00    +0.000 A 
ATOM      6  C   UNL     1       3.678   5.497  18.772  0.00  0.00    +0.000 A 
ATOM      7  C   UNL     1       3.209   5.554  20.084  0.00  0.00    +0.000 A 
ATOM      8  C   UNL     1       2.422   6.626  20.509  0.00  0.00    +0.000 A 
ATOM      9  C   UNL     1       2.143   7.646  19.584  0.00  0.00    +0.000 A 
ENDROOT
BRANCH   6  10
ATOM     10  S   UNL     1       4.590   4.070  18.241  0.00  0.00    +0.000 S 
ATOM     11  O   UNL     1       5.423   4.470  17.127  0.00  0.00    +0.000 OA
ATOM     12  O   UNL     1       5.166   3.437  19.410  0.00  0.00    +0.000 OA
BRANCH  10  13
ATOM     13  N   UNL     1       3.393   3.003  17.638  0.00  0.00    +0.000 NA
ATOM     14  C   UNL     1       2.053   3.573  17.354  0.00  0.00    +0.000 C 
ATOM     15  C   UNL     1       1.217   3.248  18.572  0.00  0.00    +0.000 C 
ATOM     16  C   UNL     1       1.723   1.886  19.001  0.00  0.00    +0.000 C 
ATOM     17  C   UNL     1       3.171   1.816  18.524  0.00  0.00    +0.000 C 
ENDBRANCH  10  13
ENDBRANCH   6  10
BRANCH   1  18
ATOM     18  C   UNL     1       0.413   9.047  20.768  0.00  0.00    +0.000 C 
BRANCH  18  20
ATOM     19  N   UNL     1      -0.990  11.013  20.448  0.00  0.00    +0.000 N 
ATOM     20  C   UNL     1       0.192  10.526  20.980  0.00  0.00    +0.000 C 
ATOM     21  O   UNL     1       0.978  11.226  21.618  0.00  0.00    +0.000 OA
ATOM     22  H   UNL     1      -1.435  10.482  19.709  0.00  0.00    +0.000 HD
BRANCH  19  23
ATOM     23  C   UNL     1      -1.289  12.436  20.494  0.00  0.00    +0.000 C 
BRANCH  23  25
ATOM     24  C   UNL     1      -1.450  12.167  17.973  0.00  0.00    +0.000 C 
ATOM     25  C   UNL     1      -1.195  13.145  19.128  0.00  0.00    +0.000 C 
BRANCH  25  26
ATOM     26  C   UNL     1       0.071  13.976  18.955  0.00  0.00    +0.000 A 
ATOM     27  C   UNL     1      -0.024  15.378  18.964  0.00  0.00    +0.000 A 
ATOM     28  C   UNL     1       1.094  16.173  18.697  0.00  0.00    +0.000 A 
ATOM     29  C   UNL     1       2.324  15.582  18.427  0.00  0.00    +0.000 A 
ATOM     30  C   UNL     1       2.445  14.196  18.452  0.00  0.00    +0.000 A 
ATOM     31  C   UNL     1       1.330  13.399  18.723  0.00  0.00    +0.000 A 
ENDBRANCH  25  26
ENDBRANCH  23  25
ENDBRANCH  19  23
ENDBRANCH  18  20
ENDBRANCH   1  18
TORSDOF 7
ENDMDL
