MODEL 1
REMARK VINA RESULT:      -8.1      0.000      0.000
REMARK  Name = 
REMARK  10 active torsions:
REMARK  status: ('A' for Active; 'I' for Inactive)
REMARK    1  A    between atoms: C_1  and  C_2
REMARK    2  A    between atoms: C_2  and  O_3
REMARK    3  A    between atoms: O_3  and  C_4
REMARK    4  A    between atoms: C_4  and  C_6
REMARK    5  A    between atoms: C_10  and  C_12
REMARK    6  A    between atoms: C_12  and  N_13
REMARK    7  A    between atoms: N_13  and  C_14
REMARK    8  A    between atoms: N_13  and  S_25
REMARK    9  A    between atoms: C_19  and  C_20
REMARK   10  A    between atoms: S_25  and  C_26
REMARK                            x       y       z     vdW  Elec       q    Type
REMARK                         _______ _______ _______ _____ _____    ______ ____
ROOT
ATOM      1  N   UNL     1       3.167   3.989  19.287  0.00  0.00    +0.000 N 
ENDROOT
BRANCH   1   2
ATOM      2  C   UNL     1       2.640   5.278  19.634  0.00  0.00    +0.000 A 
ATOM      3  C   UNL     1       2.050   5.528  20.866  0.00  0.00    +0.000 A 
ATOM      4  C   UNL     1       1.462   6.773  21.105  0.00  0.00    +0.000 A 
ATOM      5  C   UNL     1       1.490   7.786  20.132  0.00  0.00    +0.000 A 
ATOM      6 CL   UNL     1       0.703   9.264  20.541  0.00  0.00    +0.000 Cl
ATOM      7  C   UNL     1       2.114   7.564  18.903  0.00  0.00    +0.000 A 
ATOM      8  C   UNL     1       2.656   6.282  18.661  0.00  0.00    +0.000 A 
BRANCH   7   9
ATOM      9  C   UNL     1       2.275   8.597  17.819  0.00  0.00    +0.000 C 
ATOM     10  F   UNL     1       2.795   9.795  18.191  0.00  0.00    +0.000 F 
ATOM     11  F   UNL     1       3.099   8.145  16.825  0.00  0.00    +0.000 F 
ATOM     12  F   UNL     1       1.095   8.887  17.199  0.00  0.00    +0.000 F 
ENDBRANCH   7   9
ENDBRANCH   1   2
BRANCH   1  13
ATOM     13  S   UNL     1       2.053   2.714  19.167  0.00  0.00    +0.000 S 
ATOM     14  C   UNL     1       3.006   1.417  18.388  0.00  0.00    +0.000 C 
ATOM     15  O   UNL     1       1.688   2.271  20.496  0.00  0.00    +0.000 OA
ATOM     16  O   UNL     1       1.045   3.123  18.216  0.00  0.00    +0.000 OA
ENDBRANCH   1  13
BRANCH   1  17
ATOM     17  C   UNL     1       4.553   3.625  19.666  0.00  0.00    +0.000 C 
BRANCH  17  22
ATOM     18  C   UNL     1       5.731   5.645  14.993  0.00  0.00    +0.000 C 
ATOM     19  C   UNL     1       6.293   6.521  16.122  0.00  0.00    +0.000 C 
ATOM     20  C   UNL     1       6.771   5.696  17.314  0.00  0.00    +0.000 C 
ATOM     21  N   UNL     1       5.728   4.791  17.782  0.00  0.00    +0.000 N 
ATOM     22  C   UNL     1       5.636   4.556  19.151  0.00  0.00    +0.000 C 
ATOM     23  O   UNL     1       6.398   5.094  19.961  0.00  0.00    +0.000 OA
ATOM     24  C   UNL     1       5.172   3.898  16.766  0.00  0.00    +0.000 C 
ATOM     25  C   UNL     1       4.679   4.675  15.544  0.00  0.00    +0.000 C 
BRANCH  18  26
ATOM     26  C   UNL     1       6.844   4.894  14.285  0.00  0.00    +0.000 C 
ATOM     27  O   UNL     1       7.989   5.300  14.153  0.00  0.00    +0.000 OA
BRANCH  26  28
ATOM     28  O   UNL     1       6.361   3.735  13.758  0.00  0.00    +0.000 OA
BRANCH  28  30
ATOM     29  C   UNL     1       5.254   2.882  11.825  0.00  0.00    +0.000 C 
ATOM     30  C   UNL     1       6.480   3.621  12.335  0.00  0.00    +0.000 C 
ENDBRANCH  28  30
ENDBRANCH  26  28
ENDBRANCH  18  26
ENDBRANCH  17  22
ENDBRANCH   1  17
TORSDOF 8
ENDMDL
MODEL 2
REMARK VINA RESULT:      -7.7      0.724      1.068
REMARK  Name = 
REMARK  10 active torsions:
REMARK  status: ('A' for Active; 'I' for Inactive)
REMARK    1  A    between atoms: C_1  and  C_2
REMARK    2  A    between atoms: C_2  and  O_3
REMARK    3  A    between atoms: O_3  and  C_4
REMARK    4  A    between atoms: C_4  and  C_6
REMARK    5  A    between atoms: C_10  and  C_12
REMARK    6  A    between atoms: C_12  and  N_13
REMARK    7  A    between atoms: N_13  and  C_14
REMARK    8  A    between atoms: N_13  and  S_25
REMARK    9  A    between atoms: C_19  and  C_20
REMARK   10  A    between atoms: S_25  and  C_26
REMARK                            x       y       z     vdW  Elec       q    Type
REMARK                         _______ _______ _______ _____ _____    ______ ____
ROOT
ATOM      1  N   UNL     1       3.021   3.933  19.405  0.00  0.00    +0.000 N 
ENDROOT
BRANCH   1   2
ATOM      2  C   UNL     1       2.586   5.267  19.708  0.00  0.00    +0.000 A 
ATOM      3  C   UNL     1       2.072   5.611  20.952  0.00  0.00    +0.000 A 
ATOM      4  C   UNL     1       1.569   6.899  21.153  0.00  0.00    +0.000 A 
ATOM      5  C   UNL     1       1.606   7.859  20.129  0.00  0.00    +0.000 A 
ATOM      6 CL   UNL     1       0.926   9.400  20.496  0.00  0.00    +0.000 Cl
ATOM      7  C   UNL     1       2.155   7.540  18.884  0.00  0.00    +0.000 A 
ATOM      8  C   UNL     1       2.611   6.219  18.685  0.00  0.00    +0.000 A 
BRANCH   7   9
ATOM      9  C   UNL     1       2.321   8.507  17.742  0.00  0.00    +0.000 C 
ATOM     10  F   UNL     1       1.186   8.909  17.113  0.00  0.00    +0.000 F 
ATOM     11  F   UNL     1       2.924   9.662  18.158  0.00  0.00    +0.000 F 
ATOM     12  F   UNL     1       3.129   8.017  16.759  0.00  0.00    +0.000 F 
ENDBRANCH   7   9
ENDBRANCH   1   2
BRANCH   1  13
ATOM     13  S   UNL     1       1.865   2.698  19.554  0.00  0.00    +0.000 S 
ATOM     14  C   UNL     1       1.841   2.378  21.314  0.00  0.00    +0.000 C 
ATOM     15  O   UNL     1       0.567   3.209  19.170  0.00  0.00    +0.000 OA
ATOM     16  O   UNL     1       2.420   1.524  18.922  0.00  0.00    +0.000 OA
ENDBRANCH   1  13
BRANCH   1  17
ATOM     17  C   UNL     1       4.436   3.545  19.616  0.00  0.00    +0.000 C 
BRANCH  17  22
ATOM     18  C   UNL     1       5.608   5.553  14.936  0.00  0.00    +0.000 C 
ATOM     19  C   UNL     1       6.075   6.487  16.062  0.00  0.00    +0.000 C 
ATOM     20  C   UNL     1       6.573   5.720  17.284  0.00  0.00    +0.000 C 
ATOM     21  N   UNL     1       5.582   4.754  17.742  0.00  0.00    +0.000 N 
ATOM     22  C   UNL     1       5.467   4.540  19.112  0.00  0.00    +0.000 C 
ATOM     23  O   UNL     1       6.166   5.145  19.932  0.00  0.00    +0.000 OA
ATOM     24  C   UNL     1       5.119   3.805  16.729  0.00  0.00    +0.000 C 
ATOM     25  C   UNL     1       4.609   4.523  15.478  0.00  0.00    +0.000 C 
BRANCH  18  26
ATOM     26  C   UNL     1       6.791   4.868  14.276  0.00  0.00    +0.000 C 
ATOM     27  O   UNL     1       7.915   5.340  14.188  0.00  0.00    +0.000 OA
BRANCH  26  28
ATOM     28  O   UNL     1       6.398   3.682  13.733  0.00  0.00    +0.000 OA
BRANCH  28  30
ATOM     29  C   UNL     1       5.429   2.669  11.803  0.00  0.00    +0.000 C 
ATOM     30  C   UNL     1       6.519   3.598  12.308  0.00  0.00    +0.000 C 
ENDBRANCH  28  30
ENDBRANCH  26  28
ENDBRANCH  18  26
ENDBRANCH  17  22
ENDBRANCH   1  17
TORSDOF 8
ENDMDL
MODEL 3
REMARK VINA RESULT:      -7.5      0.742      1.109
REMARK  Name = 
REMARK  10 active torsions:
REMARK  status: ('A' for Active; 'I' for Inactive)
REMARK    1  A    between atoms: C_1  and  C_2
REMARK    2  A    between atoms: C_2  and  O_3
REMARK    3  A    between atoms: O_3  and  C_4
REMARK    4  A    between atoms: C_4  and  C_6
REMARK    5  A    between atoms: C_10  and  C_12
REMARK    6  A    between atoms: C_12  and  N_13
REMARK    7  A    between atoms: N_13  and  C_14
REMARK    8  A    between atoms: N_13  and  S_25
REMARK    9  A    between atoms: C_19  and  C_20
REMARK   10  A    between atoms: S_25  and  C_26
REMARK                            x       y       z     vdW  Elec       q    Type
REMARK                         _______ _______ _______ _____ _____    ______ ____
ROOT
ATOM      1  N   UNL     1       3.401   3.824  19.405  0.00  0.00    +0.000 N 
ENDROOT
BRANCH   1   2
ATOM      2  C   UNL     1       2.836   5.106  19.716  0.00  0.00    +0.000 A 
ATOM      3  C   UNL     1       2.245   5.373  20.945  0.00  0.00    +0.000 A 
ATOM      4  C   UNL     1       1.621   6.607  21.151  0.00  0.00    +0.000 A 
ATOM      5  C   UNL     1       1.612   7.590  20.149  0.00  0.00    +0.000 A 
ATOM      6 CL   UNL     1       0.781   9.055  20.520  0.00  0.00    +0.000 Cl
ATOM      7  C   UNL     1       2.235   7.352  18.922  0.00  0.00    +0.000 A 
ATOM      8  C   UNL     1       2.816   6.081  18.715  0.00  0.00    +0.000 A 
BRANCH   7   9
ATOM      9  C   UNL     1       2.358   8.357  17.808  0.00  0.00    +0.000 C 
ATOM     10  F   UNL     1       3.170   8.023  16.772  0.00  0.00    +0.000 F 
ATOM     11  F   UNL     1       1.141   8.612  17.238  0.00  0.00    +0.000 F 
ATOM     12  F   UNL     1       2.806   9.568  18.248  0.00  0.00    +0.000 F 
ENDBRANCH   7   9
ENDBRANCH   1   2
BRANCH   1  13
ATOM     13  S   UNL     1       2.346   2.494  19.440  0.00  0.00    +0.000 S 
ATOM     14  C   UNL     1       0.938   3.069  18.500  0.00  0.00    +0.000 C 
ATOM     15  O   UNL     1       2.946   1.389  18.725  0.00  0.00    +0.000 OA
ATOM     16  O   UNL     1       1.905   2.344  20.808  0.00  0.00    +0.000 OA
ENDBRANCH   1  13
BRANCH   1  17
ATOM     17  C   UNL     1       4.827   3.547  19.699  0.00  0.00    +0.000 C 
BRANCH  17  22
ATOM     18  C   UNL     1       5.682   5.519  14.935  0.00  0.00    +0.000 C 
ATOM     19  C   UNL     1       6.215   6.465  16.020  0.00  0.00    +0.000 C 
ATOM     20  C   UNL     1       6.796   5.713  17.214  0.00  0.00    +0.000 C 
ATOM     21  N   UNL     1       5.842   4.745  17.743  0.00  0.00    +0.000 N 
ATOM     22  C   UNL     1       5.817   4.543  19.120  0.00  0.00    +0.000 C 
ATOM     23  O   UNL     1       6.564   5.159  19.887  0.00  0.00    +0.000 OA
ATOM     24  C   UNL     1       5.320   3.785  16.771  0.00  0.00    +0.000 C 
ATOM     25  C   UNL     1       4.726   4.488  15.550  0.00  0.00    +0.000 C 
BRANCH  18  26
ATOM     26  C   UNL     1       6.823   4.834  14.205  0.00  0.00    +0.000 C 
ATOM     27  O   UNL     1       7.950   5.291  14.081  0.00  0.00    +0.000 OA
BRANCH  26  28
ATOM     28  O   UNL     1       6.387   3.670  13.649  0.00  0.00    +0.000 OA
BRANCH  28  30
ATOM     29  C   UNL     1       6.109   2.268  11.739  0.00  0.00    +0.000 C 
ATOM     30  C   UNL     1       6.227   3.702  12.225  0.00  0.00    +0.000 C 
ENDBRANCH  28  30
ENDBRANCH  26  28
ENDBRANCH  18  26
ENDBRANCH  17  22
ENDBRANCH   1  17
TORSDOF 8
ENDMDL
MODEL 4
REMARK VINA RESULT:      -6.9      0.787      1.289
REMARK  Name = 
REMARK  10 active torsions:
REMARK  status: ('A' for Active; 'I' for Inactive)
REMARK    1  A    between atoms: C_1  and  C_2
REMARK    2  A    between atoms: C_2  and  O_3
REMARK    3  A    between atoms: O_3  and  C_4
REMARK    4  A    between atoms: C_4  and  C_6
REMARK    5  A    between atoms: C_10  and  C_12
REMARK    6  A    between atoms: C_12  and  N_13
REMARK    7  A    between atoms: N_13  and  C_14
REMARK    8  A    between atoms: N_13  and  S_25
REMARK    9  A    between atoms: C_19  and  C_20
REMARK   10  A    between atoms: S_25  and  C_26
REMARK                            x       y       z     vdW  Elec       q    Type
REMARK                         _______ _______ _______ _____ _____    ______ ____
ROOT
ATOM      1  N   UNL     1       3.130   4.173  19.292  0.00  0.00    +0.000 N 
ENDROOT
BRANCH   1   2
ATOM      2  C   UNL     1       2.604   5.461  19.645  0.00  0.00    +0.000 A 
ATOM      3  C   UNL     1       2.050   5.715  20.893  0.00  0.00    +0.000 A 
ATOM      4  C   UNL     1       1.461   6.958  21.141  0.00  0.00    +0.000 A 
ATOM      5  C   UNL     1       1.453   7.964  20.162  0.00  0.00    +0.000 A 
ATOM      6 CL   UNL     1       0.668   9.440  20.584  0.00  0.00    +0.000 Cl
ATOM      7  C   UNL     1       2.041   7.737  18.915  0.00  0.00    +0.000 A 
ATOM      8  C   UNL     1       2.584   6.458  18.666  0.00  0.00    +0.000 A 
BRANCH   7   9
ATOM      9  C   UNL     1       2.161   8.764  17.820  0.00  0.00    +0.000 C 
ATOM     10  F   UNL     1       1.003   9.194  17.257  0.00  0.00    +0.000 F 
ATOM     11  F   UNL     1       2.779   9.897  18.273  0.00  0.00    +0.000 F 
ATOM     12  F   UNL     1       2.932   8.328  16.783  0.00  0.00    +0.000 F 
ENDBRANCH   7   9
ENDBRANCH   1   2
BRANCH   1  13
ATOM     13  S   UNL     1       2.003   2.924  19.060  0.00  0.00    +0.000 S 
ATOM     14  C   UNL     1       3.013   1.576  18.457  0.00  0.00    +0.000 C 
ATOM     15  O   UNL     1       1.449   2.536  20.338  0.00  0.00    +0.000 OA
ATOM     16  O   UNL     1       1.147   3.327  17.968  0.00  0.00    +0.000 OA
ENDBRANCH   1  13
BRANCH   1  17
ATOM     17  C   UNL     1       4.481   3.770  19.746  0.00  0.00    +0.000 C 
BRANCH  17  22
ATOM     18  C   UNL     1       5.675   5.695  15.038  0.00  0.00    +0.000 C 
ATOM     19  C   UNL     1       6.360   6.506  16.147  0.00  0.00    +0.000 C 
ATOM     20  C   UNL     1       6.799   5.634  17.319  0.00  0.00    +0.000 C 
ATOM     21  N   UNL     1       5.693   4.829  17.823  0.00  0.00    +0.000 N 
ATOM     22  C   UNL     1       5.629   4.596  19.194  0.00  0.00    +0.000 C 
ATOM     23  O   UNL     1       6.468   5.055  19.976  0.00  0.00    +0.000 OA
ATOM     24  C   UNL     1       5.017   3.999  16.826  0.00  0.00    +0.000 C 
ATOM     25  C   UNL     1       4.556   4.826  15.625  0.00  0.00    +0.000 C 
BRANCH  18  26
ATOM     26  C   UNL     1       6.685   4.845  14.287  0.00  0.00    +0.000 C 
ATOM     27  O   UNL     1       6.542   3.662  14.018  0.00  0.00    +0.000 OA
BRANCH  26  28
ATOM     28  O   UNL     1       7.803   5.576  14.023  0.00  0.00    +0.000 OA
BRANCH  28  30
ATOM     29  C   UNL     1       7.927   6.221  11.729  0.00  0.00    +0.000 C 
ATOM     30  C   UNL     1       8.453   5.263  12.785  0.00  0.00    +0.000 C 
ENDBRANCH  28  30
ENDBRANCH  26  28
ENDBRANCH  18  26
ENDBRANCH  17  22
ENDBRANCH   1  17
TORSDOF 8
ENDMDL
MODEL 5
REMARK VINA RESULT:      -6.7      4.323      7.907
REMARK  Name = 
REMARK  10 active torsions:
REMARK  status: ('A' for Active; 'I' for Inactive)
REMARK    1  A    between atoms: C_1  and  C_2
REMARK    2  A    between atoms: C_2  and  O_3
REMARK    3  A    between atoms: O_3  and  C_4
REMARK    4  A    between atoms: C_4  and  C_6
REMARK    5  A    between atoms: C_10  and  C_12
REMARK    6  A    between atoms: C_12  and  N_13
REMARK    7  A    between atoms: N_13  and  C_14
REMARK    8  A    between atoms: N_13  and  S_25
REMARK    9  A    between atoms: C_19  and  C_20
REMARK   10  A    between atoms: S_25  and  C_26
REMARK                            x       y       z     vdW  Elec       q    Type
REMARK                         _______ _______ _______ _____ _____    ______ ____
ROOT
ATOM      1  N   UNL     1       2.797   4.819  19.360  0.00  0.00    +0.000 N 
ENDROOT
BRANCH   1   2
ATOM      2  C   UNL     1       3.883   4.815  18.422  0.00  0.00    +0.000 A 
ATOM      3  C   UNL     1       3.705   4.470  17.088  0.00  0.00    +0.000 A 
ATOM      4  C   UNL     1       4.818   4.384  16.248  0.00  0.00    +0.000 A 
ATOM      5  C   UNL     1       6.108   4.673  16.723  0.00  0.00    +0.000 A 
ATOM      6 CL   UNL     1       7.398   4.499  15.593  0.00  0.00    +0.000 Cl
ATOM      7  C   UNL     1       6.299   5.059  18.052  0.00  0.00    +0.000 A 
ATOM      8  C   UNL     1       5.168   5.090  18.897  0.00  0.00    +0.000 A 
BRANCH   7   9
ATOM      9  C   UNL     1       7.619   5.468  18.649  0.00  0.00    +0.000 C 
ATOM     10  F   UNL     1       8.647   4.591  18.517  0.00  0.00    +0.000 F 
ATOM     11  F   UNL     1       8.072   6.633  18.092  0.00  0.00    +0.000 F 
ATOM     12  F   UNL     1       7.527   5.725  19.986  0.00  0.00    +0.000 F 
ENDBRANCH   7   9
ENDBRANCH   1   2
BRANCH   1  13
ATOM     13  S   UNL     1       1.505   3.764  19.041  0.00  0.00    +0.000 S 
ATOM     14  C   UNL     1       2.285   2.155  19.056  0.00  0.00    +0.000 C 
ATOM     15  O   UNL     1       0.561   3.819  20.136  0.00  0.00    +0.000 OA
ATOM     16  O   UNL     1       1.084   4.014  17.681  0.00  0.00    +0.000 OA
ENDBRANCH   1  13
BRANCH   1  17
ATOM     17  C   UNL     1       2.474   6.050  20.121  0.00  0.00    +0.000 C 
BRANCH  17  22
ATOM     18  C   UNL     1       0.771  10.869  21.204  0.00  0.00    +0.000 C 
ATOM     19  C   UNL     1       1.404  10.817  19.806  0.00  0.00    +0.000 C 
ATOM     20  C   UNL     1       1.130   9.496  19.093  0.00  0.00    +0.000 C 
ATOM     21  N   UNL     1       1.518   8.359  19.920  0.00  0.00    +0.000 N 
ATOM     22  C   UNL     1       2.053   7.243  19.282  0.00  0.00    +0.000 C 
ATOM     23  O   UNL     1       2.212   7.201  18.058  0.00  0.00    +0.000 OA
ATOM     24  C   UNL     1       0.920   8.323  21.255  0.00  0.00    +0.000 C 
ATOM     25  C   UNL     1       1.164   9.628  22.014  0.00  0.00    +0.000 C 
BRANCH  18  26
ATOM     26  C   UNL     1      -0.739  11.000  21.110  0.00  0.00    +0.000 C 
ATOM     27  O   UNL     1      -1.366  11.146  20.071  0.00  0.00    +0.000 OA
BRANCH  26  28
ATOM     28  O   UNL     1      -1.284  11.004  22.358  0.00  0.00    +0.000 OA
BRANCH  28  30
ATOM     29  C   UNL     1      -3.035  12.181  23.470  0.00  0.00    +0.000 C 
ATOM     30  C   UNL     1      -1.651  12.296  22.855  0.00  0.00    +0.000 C 
ENDBRANCH  28  30
ENDBRANCH  26  28
ENDBRANCH  18  26
ENDBRANCH  17  22
ENDBRANCH   1  17
TORSDOF 8
ENDMDL
MODEL 6
REMARK VINA RESULT:      -6.7      1.687      2.148
REMARK  Name = 
REMARK  10 active torsions:
REMARK  status: ('A' for Active; 'I' for Inactive)
REMARK    1  A    between atoms: C_1  and  C_2
REMARK    2  A    between atoms: C_2  and  O_3
REMARK    3  A    between atoms: O_3  and  C_4
REMARK    4  A    between atoms: C_4  and  C_6
REMARK    5  A    between atoms: C_10  and  C_12
REMARK    6  A    between atoms: C_12  and  N_13
REMARK    7  A    between atoms: N_13  and  C_14
REMARK    8  A    between atoms: N_13  and  S_25
REMARK    9  A    between atoms: C_19  and  C_20
REMARK   10  A    between atoms: S_25  and  C_26
REMARK                            x       y       z     vdW  Elec       q    Type
REMARK                         _______ _______ _______ _____ _____    ______ ____
ROOT
ATOM      1  N   UNL     1       2.944   4.770  18.886  0.00  0.00    +0.000 N 
ENDROOT
BRANCH   1   2
ATOM      2  C   UNL     1       2.525   6.142  18.848  0.00  0.00    +0.000 A 
ATOM      3  C   UNL     1       2.688   6.932  17.718  0.00  0.00    +0.000 A 
ATOM      4  C   UNL     1       2.355   8.288  17.776  0.00  0.00    +0.000 A 
ATOM      5  C   UNL     1       1.827   8.854  18.948  0.00  0.00    +0.000 A 
ATOM      6 CL   UNL     1       1.486  10.544  18.898  0.00  0.00    +0.000 Cl
ATOM      7  C   UNL     1       1.620   8.064  20.081  0.00  0.00    +0.000 A 
ATOM      8  C   UNL     1       2.011   6.708  20.018  0.00  0.00    +0.000 A 
BRANCH   7   9
ATOM      9  C   UNL     1       0.988   8.542  21.361  0.00  0.00    +0.000 C 
ATOM     10  F   UNL     1       1.796   9.203  22.231  0.00  0.00    +0.000 F 
ATOM     11  F   UNL     1      -0.044   9.403  21.110  0.00  0.00    +0.000 F 
ATOM     12  F   UNL     1       0.436   7.522  22.080  0.00  0.00    +0.000 F 
ENDBRANCH   7   9
ENDBRANCH   1   2
BRANCH   1  13
ATOM     13  S   UNL     1       1.727   3.593  18.757  0.00  0.00    +0.000 S 
ATOM     14  C   UNL     1       2.651   2.064  18.665  0.00  0.00    +0.000 C 
ATOM     15  O   UNL     1       0.946   3.577  19.975  0.00  0.00    +0.000 OA
ATOM     16  O   UNL     1       1.096   3.780  17.471  0.00  0.00    +0.000 OA
ENDBRANCH   1  13
BRANCH   1  17
ATOM     17  C   UNL     1       4.161   4.383  19.638  0.00  0.00    +0.000 C 
BRANCH  17  22
ATOM     18  C   UNL     1       5.991   5.674  14.916  0.00  0.00    +0.000 C 
ATOM     19  C   UNL     1       6.705   6.475  16.015  0.00  0.00    +0.000 C 
ATOM     20  C   UNL     1       6.915   5.659  17.286  0.00  0.00    +0.000 C 
ATOM     21  N   UNL     1       5.663   5.074  17.752  0.00  0.00    +0.000 N 
ATOM     22  C   UNL     1       5.461   4.980  19.126  0.00  0.00    +0.000 C 
ATOM     23  O   UNL     1       6.298   5.381  19.941  0.00  0.00    +0.000 OA
ATOM     24  C   UNL     1       4.947   4.263  16.768  0.00  0.00    +0.000 C 
ATOM     25  C   UNL     1       4.711   5.035  15.469  0.00  0.00    +0.000 C 
BRANCH  18  26
ATOM     26  C   UNL     1       6.914   4.620  14.329  0.00  0.00    +0.000 C 
ATOM     27  O   UNL     1       8.124   4.739  14.207  0.00  0.00    +0.000 OA
BRANCH  26  28
ATOM     28  O   UNL     1       6.186   3.555  13.894  0.00  0.00    +0.000 OA
BRANCH  28  30
ATOM     29  C   UNL     1       6.663   2.592  11.764  0.00  0.00    +0.000 C 
ATOM     30  C   UNL     1       5.810   3.603  12.512  0.00  0.00    +0.000 C 
ENDBRANCH  28  30
ENDBRANCH  26  28
ENDBRANCH  18  26
ENDBRANCH  17  22
ENDBRANCH   1  17
TORSDOF 8
ENDMDL
MODEL 7
REMARK VINA RESULT:      -6.4      1.659      2.118
REMARK  Name = 
REMARK  10 active torsions:
REMARK  status: ('A' for Active; 'I' for Inactive)
REMARK    1  A    between atoms: C_1  and  C_2
REMARK    2  A    between atoms: C_2  and  O_3
REMARK    3  A    between atoms: O_3  and  C_4
REMARK    4  A    between atoms: C_4  and  C_6
REMARK    5  A    between atoms: C_10  and  C_12
REMARK    6  A    between atoms: C_12  and  N_13
REMARK    7  A    between atoms: N_13  and  C_14
REMARK    8  A    between atoms: N_13  and  S_25
REMARK    9  A    between atoms: C_19  and  C_20
REMARK   10  A    between atoms: S_25  and  C_26
REMARK                            x       y       z     vdW  Elec       q    Type
REMARK                         _______ _______ _______ _____ _____    ______ ____
ROOT
ATOM      1  N   UNL     1       3.061   4.218  19.699  0.00  0.00    +0.000 N 
ENDROOT
BRANCH   1   2
ATOM      2  C   UNL     1       2.657   5.541  19.316  0.00  0.00    +0.000 A 
ATOM      3  C   UNL     1       2.800   6.010  18.016  0.00  0.00    +0.000 A 
ATOM      4  C   UNL     1       2.484   7.340  17.729  0.00  0.00    +0.000 A 
ATOM      5  C   UNL     1       1.992   8.199  18.725  0.00  0.00    +0.000 A 
ATOM      6 CL   UNL     1       1.669   9.824  18.246  0.00  0.00    +0.000 Cl
ATOM      7  C   UNL     1       1.805   7.732  20.028  0.00  0.00    +0.000 A 
ATOM      8  C   UNL     1       2.178   6.399  20.310  0.00  0.00    +0.000 A 
BRANCH   7   9
ATOM      9  C   UNL     1       1.211   8.535  21.154  0.00  0.00    +0.000 C 
ATOM     10  F   UNL     1       1.834   8.452  22.358  0.00  0.00    +0.000 F 
ATOM     11  F   UNL     1       1.195   9.870  20.853  0.00  0.00    +0.000 F 
ATOM     12  F   UNL     1      -0.092   8.209  21.395  0.00  0.00    +0.000 F 
ENDBRANCH   7   9
ENDBRANCH   1   2
BRANCH   1  13
ATOM     13  S   UNL     1       2.139   3.454  20.903  0.00  0.00    +0.000 S 
ATOM     14  C   UNL     1       3.028   1.927  21.183  0.00  0.00    +0.000 C 
ATOM     15  O   UNL     1       2.194   4.238  22.117  0.00  0.00    +0.000 OA
ATOM     16  O   UNL     1       0.874   3.099  20.302  0.00  0.00    +0.000 OA
ENDBRANCH   1  13
BRANCH   1  17
ATOM     17  C   UNL     1       4.484   3.817  19.600  0.00  0.00    +0.000 C 
BRANCH  17  22
ATOM     18  C   UNL     1       5.617   5.440  14.764  0.00  0.00    +0.000 C 
ATOM     19  C   UNL     1       5.931   6.535  15.793  0.00  0.00    +0.000 C 
ATOM     20  C   UNL     1       6.461   5.964  17.105  0.00  0.00    +0.000 C 
ATOM     21  N   UNL     1       5.565   4.944  17.638  0.00  0.00    +0.000 N 
ATOM     22  C   UNL     1       5.419   4.864  19.020  0.00  0.00    +0.000 C 
ATOM     23  O   UNL     1       6.012   5.628  19.787  0.00  0.00    +0.000 OA
ATOM     24  C   UNL     1       5.252   3.847  16.722  0.00  0.00    +0.000 C 
ATOM     25  C   UNL     1       4.717   4.365  15.386  0.00  0.00    +0.000 C 
BRANCH  18  26
ATOM     26  C   UNL     1       6.894   4.829  14.216  0.00  0.00    +0.000 C 
ATOM     27  O   UNL     1       7.993   5.364  14.239  0.00  0.00    +0.000 OA
BRANCH  26  28
ATOM     28  O   UNL     1       6.622   3.630  13.632  0.00  0.00    +0.000 OA
BRANCH  28  30
ATOM     29  C   UNL     1       5.584   2.568  11.765  0.00  0.00    +0.000 C 
ATOM     30  C   UNL     1       6.551   3.655  12.201  0.00  0.00    +0.000 C 
ENDBRANCH  28  30
ENDBRANCH  26  28
ENDBRANCH  18  26
ENDBRANCH  17  22
ENDBRANCH   1  17
TORSDOF 8
ENDMDL
MODEL 8
REMARK VINA RESULT:      -6.4      4.249      7.181
REMARK  Name = 
REMARK  10 active torsions:
REMARK  status: ('A' for Active; 'I' for Inactive)
REMARK    1  A    between atoms: C_1  and  C_2
REMARK    2  A    between atoms: C_2  and  O_3
REMARK    3  A    between atoms: O_3  and  C_4
REMARK    4  A    between atoms: C_4  and  C_6
REMARK    5  A    between atoms: C_10  and  C_12
REMARK    6  A    between atoms: C_12  and  N_13
REMARK    7  A    between atoms: N_13  and  C_14
REMARK    8  A    between atoms: N_13  and  S_25
REMARK    9  A    between atoms: C_19  and  C_20
REMARK   10  A    between atoms: S_25  and  C_26
REMARK                            x       y       z     vdW  Elec       q    Type
REMARK                         _______ _______ _______ _____ _____    ______ ____
ROOT
ATOM      1  N   UNL     1       2.834   4.990  19.583  0.00  0.00    +0.000 N 
ENDROOT
BRANCH   1   2
ATOM      2  C   UNL     1       3.918   4.988  18.642  0.00  0.00    +0.000 A 
ATOM      3  C   UNL     1       3.730   4.679  17.301  0.00  0.00    +0.000 A 
ATOM      4  C   UNL     1       4.840   4.592  16.456  0.00  0.00    +0.000 A 
ATOM      5  C   UNL     1       6.136   4.845  16.934  0.00  0.00    +0.000 A 
ATOM      6 CL   UNL     1       7.420   4.673  15.797  0.00  0.00    +0.000 Cl
ATOM      7  C   UNL     1       6.337   5.194  18.271  0.00  0.00    +0.000 A 
ATOM      8  C   UNL     1       5.209   5.227  19.120  0.00  0.00    +0.000 A 
BRANCH   7   9
ATOM      9  C   UNL     1       7.666   5.564  18.874  0.00  0.00    +0.000 C 
ATOM     10  F   UNL     1       7.706   5.702  20.225  0.00  0.00    +0.000 F 
ATOM     11  F   UNL     1       8.617   4.625  18.584  0.00  0.00    +0.000 F 
ATOM     12  F   UNL     1       8.157   6.734  18.373  0.00  0.00    +0.000 F 
ENDBRANCH   7   9
ENDBRANCH   1   2
BRANCH   1  13
ATOM     13  S   UNL     1       2.521   3.531  20.393  0.00  0.00    +0.000 S 
ATOM     14  C   UNL     1       0.918   3.053  19.758  0.00  0.00    +0.000 C 
ATOM     15  O   UNL     1       3.486   2.537  19.978  0.00  0.00    +0.000 OA
ATOM     16  O   UNL     1       2.339   3.856  21.789  0.00  0.00    +0.000 OA
ENDBRANCH   1  13
BRANCH   1  17
ATOM     17  C   UNL     1       1.682   5.901  19.389  0.00  0.00    +0.000 C 
BRANCH  17  22
ATOM     18  C   UNL     1       0.571  10.981  18.868  0.00  0.00    +0.000 C 
ATOM     19  C   UNL     1       0.320  10.514  20.309  0.00  0.00    +0.000 C 
ATOM     20  C   UNL     1       1.334   9.468  20.766  0.00  0.00    +0.000 C 
ATOM     21  N   UNL     1       1.404   8.355  19.827  0.00  0.00    +0.000 N 
ATOM     22  C   UNL     1       1.614   7.080  20.345  0.00  0.00    +0.000 C 
ATOM     23  O   UNL     1       1.729   6.875  21.557  0.00  0.00    +0.000 OA
ATOM     24  C   UNL     1       1.680   8.724  18.439  0.00  0.00    +0.000 C 
ATOM     25  C   UNL     1       0.691   9.774  17.929  0.00  0.00    +0.000 C 
BRANCH  18  26
ATOM     26  C   UNL     1       1.811  11.854  18.790  0.00  0.00    +0.000 C 
ATOM     27  O   UNL     1       2.635  11.822  17.889  0.00  0.00    +0.000 OA
BRANCH  26  28
ATOM     28  O   UNL     1       1.905  12.628  19.907  0.00  0.00    +0.000 OA
BRANCH  28  30
ATOM     29  C   UNL     1       1.199  14.824  20.514  0.00  0.00    +0.000 C 
ATOM     30  C   UNL     1       2.164  14.016  19.663  0.00  0.00    +0.000 C 
ENDBRANCH  28  30
ENDBRANCH  26  28
ENDBRANCH  18  26
ENDBRANCH  17  22
ENDBRANCH   1  17
TORSDOF 8
ENDMDL
MODEL 9
REMARK VINA RESULT:      -6.3      5.167      7.293
REMARK  Name = 
REMARK  10 active torsions:
REMARK  status: ('A' for Active; 'I' for Inactive)
REMARK    1  A    between atoms: C_1  and  C_2
REMARK    2  A    between atoms: C_2  and  O_3
REMARK    3  A    between atoms: O_3  and  C_4
REMARK    4  A    between atoms: C_4  and  C_6
REMARK    5  A    between atoms: C_10  and  C_12
REMARK    6  A    between atoms: C_12  and  N_13
REMARK    7  A    between atoms: N_13  and  C_14
REMARK    8  A    between atoms: N_13  and  S_25
REMARK    9  A    between atoms: C_19  and  C_20
REMARK   10  A    between atoms: S_25  and  C_26
REMARK                            x       y       z     vdW  Elec       q    Type
REMARK                         _______ _______ _______ _____ _____    ______ ____
ROOT
ATOM      1  N   UNL     1       0.850  11.461  18.972  0.00  0.00    +0.000 N 
ENDROOT
BRANCH   1   2
ATOM      2  C   UNL     1      -0.572  11.620  18.862  0.00  0.00    +0.000 A 
ATOM      3  C   UNL     1      -1.326  12.226  19.859  0.00  0.00    +0.000 A 
ATOM      4  C   UNL     1      -2.718  12.259  19.741  0.00  0.00    +0.000 A 
ATOM      5  C   UNL     1      -3.362  11.721  18.615  0.00  0.00    +0.000 A 
ATOM      6 CL   UNL     1      -5.085  11.798  18.606  0.00  0.00    +0.000 Cl
ATOM      7  C   UNL     1      -2.615  11.143  17.585  0.00  0.00    +0.000 A 
ATOM      8  C   UNL     1      -1.214  11.074  17.748  0.00  0.00    +0.000 A 
BRANCH   7   9
ATOM      9  C   UNL     1      -3.189  10.609  16.300  0.00  0.00    +0.000 C 
ATOM     10  F   UNL     1      -3.088  11.409  15.207  0.00  0.00    +0.000 F 
ATOM     11  F   UNL     1      -2.583   9.436  15.940  0.00  0.00    +0.000 F 
ATOM     12  F   UNL     1      -4.514  10.306  16.409  0.00  0.00    +0.000 F 
ENDBRANCH   7   9
ENDBRANCH   1   2
BRANCH   1  13
ATOM     13  S   UNL     1       1.788  12.873  18.882  0.00  0.00    +0.000 S 
ATOM     14  C   UNL     1       2.192  13.200  20.593  0.00  0.00    +0.000 C 
ATOM     15  O   UNL     1       3.018  12.586  18.175  0.00  0.00    +0.000 OA
ATOM     16  O   UNL     1       0.910  13.935  18.448  0.00  0.00    +0.000 OA
ENDBRANCH   1  13
BRANCH   1  17
ATOM     17  C   UNL     1       1.496  10.206  18.519  0.00  0.00    +0.000 C 
BRANCH  17  22
ATOM     18  C   UNL     1       3.393   5.337  18.554  0.00  0.00    +0.000 C 
ATOM     19  C   UNL     1       3.227   5.868  19.986  0.00  0.00    +0.000 C 
ATOM     20  C   UNL     1       1.999   6.761  20.136  0.00  0.00    +0.000 C 
ATOM     21  N   UNL     1       2.000   7.831  19.146  0.00  0.00    +0.000 N 
ATOM     22  C   UNL     1       1.498   9.072  19.529  0.00  0.00    +0.000 C 
ATOM     23  O   UNL     1       1.071   9.283  20.668  0.00  0.00    +0.000 OA
ATOM     24  C   UNL     1       2.116   7.395  17.754  0.00  0.00    +0.000 C 
ATOM     25  C   UNL     1       3.333   6.493  17.547  0.00  0.00    +0.000 C 
BRANCH  18  26
ATOM     26  C   UNL     1       2.341   4.288  18.241  0.00  0.00    +0.000 C 
ATOM     27  O   UNL     1       1.468   4.403  17.394  0.00  0.00    +0.000 OA
BRANCH  26  28
ATOM     28  O   UNL     1       2.471   3.232  19.089  0.00  0.00    +0.000 OA
BRANCH  28  30
ATOM     29  C   UNL     1       1.247   2.838  21.098  0.00  0.00    +0.000 C 
ATOM     30  C   UNL     1       1.237   2.698  19.586  0.00  0.00    +0.000 C 
ENDBRANCH  28  30
ENDBRANCH  26  28
ENDBRANCH  18  26
ENDBRANCH  17  22
ENDBRANCH   1  17
TORSDOF 8
ENDMDL
