MODEL 1
REMARK VINA RESULT:      -6.4      0.000      0.000
REMARK  Name = 
REMARK  4 active torsions:
REMARK  status: ('A' for Active; 'I' for Inactive)
REMARK    1  A    between atoms: C_1  and  C_2
REMARK    2  A    between atoms: C_6  and  C_7
REMARK    3  A    between atoms: C_10  and  O_11
REMARK    4  A    between atoms: N_18  and  C_19
REMARK                            x       y       z     vdW  Elec       q    Type
REMARK                         _______ _______ _______ _____ _____    ______ ____
ROOT
ATOM      1  C   UNL     1       3.395   4.668  17.952  0.00  0.00    +0.000 C 
ATOM      2  C   UNL     1       4.461   4.979  16.895  0.00  0.00    +0.000 A 
ATOM      3  C   UNL     1       4.321   4.545  15.571  0.00  0.00    +0.000 A 
ATOM      4  C   UNL     1       5.430   4.536  14.726  0.00  0.00    +0.000 A 
ATOM      5  C   UNL     1       6.652   5.070  15.143  0.00  0.00    +0.000 A 
ATOM      6 CL   UNL     1       8.036   5.063  14.111  0.00  0.00    +0.000 Cl
ATOM      7  C   UNL     1       6.802   5.512  16.458  0.00  0.00    +0.000 A 
ATOM      8  C   UNL     1       5.731   5.385  17.351  0.00  0.00    +0.000 A 
ATOM      9  C   UNL     1       5.908   5.459  18.843  0.00  0.00    +0.000 C 
ATOM     10  C   UNL     1       5.263   4.203  19.498  0.00  0.00    +0.000 C 
ATOM     11  N   UNL     1       3.985   3.707  18.923  0.00  0.00    +0.000 NA
ATOM     12  C   UNL     1       4.132   2.381  18.318  0.00  0.00    +0.000 C 
ENDROOT
BRANCH   1  18
ATOM     13  C   UNL     1       2.025   9.506  17.888  0.00  0.00    +0.000 C 
ATOM     14  C   UNL     1       2.074   8.210  18.642  0.00  0.00    +0.000 A 
ATOM     15  C   UNL     1       1.657   8.116  19.969  0.00  0.00    +0.000 A 
ATOM     16  C   UNL     1       1.732   6.897  20.641  0.00  0.00    +0.000 A 
ATOM     17  C   UNL     1       2.247   5.755  20.011  0.00  0.00    +0.000 A 
ATOM     18  C   UNL     1       2.683   5.818  18.683  0.00  0.00    +0.000 A 
ATOM     19  C   UNL     1       2.571   7.061  18.015  0.00  0.00    +0.000 A 
ENDBRANCH   1  18
BRANCH   4  20
ATOM     20  O   UNL     1       5.329   3.914  13.508  0.00  0.00    +0.000 OA
ATOM     21  H   UNL     1       5.233   4.608  12.833  0.00  0.00    +0.000 HD
ENDBRANCH   4  20
TORSDOF 2
ENDMDL
MODEL 2
REMARK VINA RESULT:      -6.1      3.337      6.120
REMARK  Name = 
REMARK  4 active torsions:
REMARK  status: ('A' for Active; 'I' for Inactive)
REMARK    1  A    between atoms: C_1  and  C_2
REMARK    2  A    between atoms: C_6  and  C_7
REMARK    3  A    between atoms: C_10  and  O_11
REMARK    4  A    between atoms: N_18  and  C_19
REMARK                            x       y       z     vdW  Elec       q    Type
REMARK                         _______ _______ _______ _____ _____    ______ ____
ROOT
ATOM      1  C   UNL     1       5.242   5.664  15.698  0.00  0.00    +0.000 C 
ATOM      2  C   UNL     1       4.742   4.672  16.755  0.00  0.00    +0.000 A 
ATOM      3  C   UNL     1       3.388   4.598  17.100  0.00  0.00    +0.000 A 
ATOM      4  C   UNL     1       3.008   3.952  18.277  0.00  0.00    +0.000 A 
ATOM      5  C   UNL     1       3.948   3.272  19.054  0.00  0.00    +0.000 A 
ATOM      6 CL   UNL     1       3.498   2.472  20.516  0.00  0.00    +0.000 Cl
ATOM      7  C   UNL     1       5.301   3.334  18.718  0.00  0.00    +0.000 A 
ATOM      8  C   UNL     1       5.700   4.105  17.618  0.00  0.00    +0.000 A 
ATOM      9  C   UNL     1       7.123   4.547  17.415  0.00  0.00    +0.000 C 
ATOM     10  C   UNL     1       7.154   6.088  17.200  0.00  0.00    +0.000 C 
ATOM     11  N   UNL     1       6.063   6.694  16.392  0.00  0.00    +0.000 NA
ATOM     12  C   UNL     1       5.216   7.583  17.190  0.00  0.00    +0.000 C 
ENDROOT
BRANCH   1  18
ATOM     13  C   UNL     1       5.185   2.465  11.818  0.00  0.00    +0.000 C 
ATOM     14  C   UNL     1       5.925   3.526  12.579  0.00  0.00    +0.000 A 
ATOM     15  C   UNL     1       7.234   3.882  12.259  0.00  0.00    +0.000 A 
ATOM     16  C   UNL     1       7.894   4.862  12.999  0.00  0.00    +0.000 A 
ATOM     17  C   UNL     1       7.270   5.488  14.087  0.00  0.00    +0.000 A 
ATOM     18  C   UNL     1       5.960   5.147  14.441  0.00  0.00    +0.000 A 
ATOM     19  C   UNL     1       5.303   4.168  13.656  0.00  0.00    +0.000 A 
ENDBRANCH   1  18
BRANCH   4  20
ATOM     20  O   UNL     1       1.712   4.069  18.707  0.00  0.00    +0.000 OA
ATOM     21  H   UNL     1       1.427   4.983  18.530  0.00  0.00    +0.000 HD
ENDBRANCH   4  20
TORSDOF 2
ENDMDL
MODEL 3
REMARK VINA RESULT:      -6.1      3.312      5.991
REMARK  Name = 
REMARK  4 active torsions:
REMARK  status: ('A' for Active; 'I' for Inactive)
REMARK    1  A    between atoms: C_1  and  C_2
REMARK    2  A    between atoms: C_6  and  C_7
REMARK    3  A    between atoms: C_10  and  O_11
REMARK    4  A    between atoms: N_18  and  C_19
REMARK                            x       y       z     vdW  Elec       q    Type
REMARK                         _______ _______ _______ _____ _____    ______ ____
ROOT
ATOM      1  C   UNL     1       4.871   5.440  15.989  0.00  0.00    +0.000 C 
ATOM      2  C   UNL     1       4.351   4.528  17.106  0.00  0.00    +0.000 A 
ATOM      3  C   UNL     1       2.985   4.450  17.405  0.00  0.00    +0.000 A 
ATOM      4  C   UNL     1       2.573   3.896  18.617  0.00  0.00    +0.000 A 
ATOM      5  C   UNL     1       3.496   3.305  19.483  0.00  0.00    +0.000 A 
ATOM      6 CL   UNL     1       3.004   2.618  20.989  0.00  0.00    +0.000 Cl
ATOM      7  C   UNL     1       4.859   3.371  19.193  0.00  0.00    +0.000 A 
ATOM      8  C   UNL     1       5.285   4.056  18.049  0.00  0.00    +0.000 A 
ATOM      9  C   UNL     1       6.706   4.514  17.862  0.00  0.00    +0.000 C 
ATOM     10  C   UNL     1       6.714   6.032  17.521  0.00  0.00    +0.000 C 
ATOM     11  N   UNL     1       5.643   6.542  16.625  0.00  0.00    +0.000 NA
ATOM     12  C   UNL     1       4.748   7.474  17.313  0.00  0.00    +0.000 C 
ENDROOT
BRANCH   1  18
ATOM     13  C   UNL     1       8.771   5.866  12.843  0.00  0.00    +0.000 C 
ATOM     14  C   UNL     1       7.541   5.108  13.245  0.00  0.00    +0.000 A 
ATOM     15  C   UNL     1       7.055   4.040  12.490  0.00  0.00    +0.000 A 
ATOM     16  C   UNL     1       5.900   3.369  12.889  0.00  0.00    +0.000 A 
ATOM     17  C   UNL     1       5.194   3.764  14.033  0.00  0.00    +0.000 A 
ATOM     18  C   UNL     1       5.648   4.838  14.808  0.00  0.00    +0.000 A 
ATOM     19  C   UNL     1       6.838   5.484  14.396  0.00  0.00    +0.000 A 
ENDBRANCH   1  18
BRANCH   4  20
ATOM     20  O   UNL     1       1.259   4.018  18.987  0.00  0.00    +0.000 OA
ATOM     21  H   UNL     1       0.716   3.674  18.256  0.00  0.00    +0.000 HD
ENDBRANCH   4  20
TORSDOF 2
ENDMDL
MODEL 4
REMARK VINA RESULT:      -6.1      0.845      1.682
REMARK  Name = 
REMARK  4 active torsions:
REMARK  status: ('A' for Active; 'I' for Inactive)
REMARK    1  A    between atoms: C_1  and  C_2
REMARK    2  A    between atoms: C_6  and  C_7
REMARK    3  A    between atoms: C_10  and  O_11
REMARK    4  A    between atoms: N_18  and  C_19
REMARK                            x       y       z     vdW  Elec       q    Type
REMARK                         _______ _______ _______ _____ _____    ______ ____
ROOT
ATOM      1  C   UNL     1       3.875   5.410  17.773  0.00  0.00    +0.000 C 
ATOM      2  C   UNL     1       4.822   5.448  16.567  0.00  0.00    +0.000 A 
ATOM      3  C   UNL     1       4.580   4.673  15.427  0.00  0.00    +0.000 A 
ATOM      4  C   UNL     1       5.605   4.461  14.505  0.00  0.00    +0.000 A 
ATOM      5  C   UNL     1       6.833   5.112  14.639  0.00  0.00    +0.000 A 
ATOM      6 CL   UNL     1       8.114   4.858  13.510  0.00  0.00    +0.000 Cl
ATOM      7  C   UNL     1       7.084   5.892  15.769  0.00  0.00    +0.000 A 
ATOM      8  C   UNL     1       6.108   5.987  16.768  0.00  0.00    +0.000 A 
ATOM      9  C   UNL     1       6.420   6.460  18.161  0.00  0.00    +0.000 C 
ATOM     10  C   UNL     1       5.897   5.413  19.187  0.00  0.00    +0.000 C 
ATOM     11  N   UNL     1       4.596   4.755  18.898  0.00  0.00    +0.000 NA
ATOM     12  C   UNL     1       4.749   3.319  18.652  0.00  0.00    +0.000 C 
ENDROOT
BRANCH   1  18
ATOM     13  C   UNL     1       1.134   7.672  21.330  0.00  0.00    +0.000 C 
ATOM     14  C   UNL     1       1.788   7.760  19.984  0.00  0.00    +0.000 A 
ATOM     15  C   UNL     1       1.626   8.873  19.159  0.00  0.00    +0.000 A 
ATOM     16  C   UNL     1       2.238   8.911  17.907  0.00  0.00    +0.000 A 
ATOM     17  C   UNL     1       3.004   7.833  17.444  0.00  0.00    +0.000 A 
ATOM     18  C   UNL     1       3.181   6.697  18.243  0.00  0.00    +0.000 A 
ATOM     19  C   UNL     1       2.570   6.695  19.520  0.00  0.00    +0.000 A 
ENDBRANCH   1  18
BRANCH   4  20
ATOM     20  O   UNL     1       5.419   3.534  13.511  0.00  0.00    +0.000 OA
ATOM     21  H   UNL     1       5.051   2.733  13.924  0.00  0.00    +0.000 HD
ENDBRANCH   4  20
TORSDOF 2
ENDMDL
MODEL 5
REMARK VINA RESULT:      -6.1      2.099      4.110
REMARK  Name = 
REMARK  4 active torsions:
REMARK  status: ('A' for Active; 'I' for Inactive)
REMARK    1  A    between atoms: C_1  and  C_2
REMARK    2  A    between atoms: C_6  and  C_7
REMARK    3  A    between atoms: C_10  and  O_11
REMARK    4  A    between atoms: N_18  and  C_19
REMARK                            x       y       z     vdW  Elec       q    Type
REMARK                         _______ _______ _______ _____ _____    ______ ____
ROOT
ATOM      1  C   UNL     1       3.769   5.523  19.104  0.00  0.00    +0.000 C 
ATOM      2  C   UNL     1       4.767   5.245  17.974  0.00  0.00    +0.000 A 
ATOM      3  C   UNL     1       5.938   6.000  17.836  0.00  0.00    +0.000 A 
ATOM      4  C   UNL     1       6.645   5.965  16.634  0.00  0.00    +0.000 A 
ATOM      5  C   UNL     1       6.272   5.092  15.610  0.00  0.00    +0.000 A 
ATOM      6 CL   UNL     1       7.133   5.038  14.114  0.00  0.00    +0.000 Cl
ATOM      7  C   UNL     1       5.109   4.330  15.738  0.00  0.00    +0.000 A 
ATOM      8  C   UNL     1       4.318   4.474  16.884  0.00  0.00    +0.000 A 
ATOM      9  C   UNL     1       2.887   4.012  16.942  0.00  0.00    +0.000 C 
ATOM     10  C   UNL     1       1.990   5.187  17.427  0.00  0.00    +0.000 C 
ATOM     11  N   UNL     1       2.530   6.074  18.491  0.00  0.00    +0.000 NA
ATOM     12  C   UNL     1       2.751   7.439  18.009  0.00  0.00    +0.000 C 
ENDROOT
BRANCH   1  18
ATOM     13  C   UNL     1       4.965   1.018  20.991  0.00  0.00    +0.000 C 
ATOM     14  C   UNL     1       4.017   2.181  20.984  0.00  0.00    +0.000 A 
ATOM     15  C   UNL     1       2.834   2.170  21.723  0.00  0.00    +0.000 A 
ATOM     16  C   UNL     1       1.971   3.264  21.678  0.00  0.00    +0.000 A 
ATOM     17  C   UNL     1       2.259   4.379  20.880  0.00  0.00    +0.000 A 
ATOM     18  C   UNL     1       3.434   4.419  20.119  0.00  0.00    +0.000 A 
ATOM     19  C   UNL     1       4.305   3.306  20.203  0.00  0.00    +0.000 A 
ENDBRANCH   1  18
BRANCH   4  20
ATOM     20  O   UNL     1       7.662   6.863  16.438  0.00  0.00    +0.000 OA
ATOM     21  H   UNL     1       7.400   7.446  15.704  0.00  0.00    +0.000 HD
ENDBRANCH   4  20
TORSDOF 2
ENDMDL
MODEL 6
REMARK VINA RESULT:      -6.0      3.111      6.139
REMARK  Name = 
REMARK  4 active torsions:
REMARK  status: ('A' for Active; 'I' for Inactive)
REMARK    1  A    between atoms: C_1  and  C_2
REMARK    2  A    between atoms: C_6  and  C_7
REMARK    3  A    between atoms: C_10  and  O_11
REMARK    4  A    between atoms: N_18  and  C_19
REMARK                            x       y       z     vdW  Elec       q    Type
REMARK                         _______ _______ _______ _____ _____    ______ ____
ROOT
ATOM      1  C   UNL     1       6.214   6.074  15.876  0.00  0.00    +0.000 C 
ATOM      2  C   UNL     1       4.940   5.757  16.668  0.00  0.00    +0.000 A 
ATOM      3  C   UNL     1       4.037   6.764  17.027  0.00  0.00    +0.000 A 
ATOM      4  C   UNL     1       3.086   6.519  18.017  0.00  0.00    +0.000 A 
ATOM      5  C   UNL     1       2.941   5.244  18.570  0.00  0.00    +0.000 A 
ATOM      6 CL   UNL     1       1.773   4.924  19.800  0.00  0.00    +0.000 Cl
ATOM      7  C   UNL     1       3.832   4.230  18.216  0.00  0.00    +0.000 A 
ATOM      8  C   UNL     1       4.879   4.515  17.331  0.00  0.00    +0.000 A 
ATOM      9  C   UNL     1       6.089   3.631  17.198  0.00  0.00    +0.000 C 
ATOM     10  C   UNL     1       7.374   4.492  17.374  0.00  0.00    +0.000 C 
ATOM     11  N   UNL     1       7.377   5.854  16.778  0.00  0.00    +0.000 NA
ATOM     12  C   UNL     1       7.449   6.901  17.799  0.00  0.00    +0.000 C 
ENDROOT
BRANCH   1  18
ATOM     13  C   UNL     1       4.389   3.109  12.248  0.00  0.00    +0.000 C 
ATOM     14  C   UNL     1       5.543   3.912  12.771  0.00  0.00    +0.000 A 
ATOM     15  C   UNL     1       6.786   3.911  12.139  0.00  0.00    +0.000 A 
ATOM     16  C   UNL     1       7.839   4.659  12.664  0.00  0.00    +0.000 A 
ATOM     17  C   UNL     1       7.680   5.401  13.842  0.00  0.00    +0.000 A 
ATOM     18  C   UNL     1       6.449   5.416  14.508  0.00  0.00    +0.000 A 
ATOM     19  C   UNL     1       5.389   4.670  13.938  0.00  0.00    +0.000 A 
ENDBRANCH   1  18
BRANCH   4  20
ATOM     20  O   UNL     1       2.352   7.570  18.505  0.00  0.00    +0.000 OA
ATOM     21  H   UNL     1       1.548   7.202  18.911  0.00  0.00    +0.000 HD
ENDBRANCH   4  20
TORSDOF 2
ENDMDL
MODEL 7
REMARK VINA RESULT:      -5.8      3.230      6.049
REMARK  Name = 
REMARK  4 active torsions:
REMARK  status: ('A' for Active; 'I' for Inactive)
REMARK    1  A    between atoms: C_1  and  C_2
REMARK    2  A    between atoms: C_6  and  C_7
REMARK    3  A    between atoms: C_10  and  O_11
REMARK    4  A    between atoms: N_18  and  C_19
REMARK                            x       y       z     vdW  Elec       q    Type
REMARK                         _______ _______ _______ _____ _____    ______ ____
ROOT
ATOM      1  C   UNL     1       5.835   6.297  16.361  0.00  0.00    +0.000 C 
ATOM      2  C   UNL     1       4.638   6.164  17.310  0.00  0.00    +0.000 A 
ATOM      3  C   UNL     1       3.714   7.203  17.466  0.00  0.00    +0.000 A 
ATOM      4  C   UNL     1       2.849   7.202  18.560  0.00  0.00    +0.000 A 
ATOM      5  C   UNL     1       2.807   6.115  19.437  0.00  0.00    +0.000 A 
ATOM      6 CL   UNL     1       1.747   6.098  20.799  0.00  0.00    +0.000 Cl
ATOM      7  C   UNL     1       3.720   5.069  19.288  0.00  0.00    +0.000 A 
ATOM      8  C   UNL     1       4.686   5.140  18.277  0.00  0.00    +0.000 A 
ATOM      9  C   UNL     1       5.925   4.288  18.281  0.00  0.00    +0.000 C 
ATOM     10  C   UNL     1       7.175   5.201  18.119  0.00  0.00    +0.000 C 
ATOM     11  N   UNL     1       7.069   6.357  17.190  0.00  0.00    +0.000 NA
ATOM     12  C   UNL     1       7.162   7.638  17.893  0.00  0.00    +0.000 C 
ENDROOT
BRANCH   1  18
ATOM     13  C   UNL     1       8.208   5.194  12.067  0.00  0.00    +0.000 C 
ATOM     14  C   UNL     1       7.150   4.825  13.064  0.00  0.00    +0.000 A 
ATOM     15  C   UNL     1       6.278   3.757  12.850  0.00  0.00    +0.000 A 
ATOM     16  C   UNL     1       5.297   3.455  13.793  0.00  0.00    +0.000 A 
ATOM     17  C   UNL     1       5.152   4.224  14.956  0.00  0.00    +0.000 A 
ATOM     18  C   UNL     1       6.004   5.307  15.197  0.00  0.00    +0.000 A 
ATOM     19  C   UNL     1       7.008   5.577  14.236  0.00  0.00    +0.000 A 
ENDBRANCH   1  18
BRANCH   4  20
ATOM     20  O   UNL     1       2.102   8.323  18.815  0.00  0.00    +0.000 OA
ATOM     21  H   UNL     1       1.447   8.406  18.100  0.00  0.00    +0.000 HD
ENDBRANCH   4  20
TORSDOF 2
ENDMDL
MODEL 8
REMARK VINA RESULT:      -5.8      8.948     11.190
REMARK  Name = 
REMARK  4 active torsions:
REMARK  status: ('A' for Active; 'I' for Inactive)
REMARK    1  A    between atoms: C_1  and  C_2
REMARK    2  A    between atoms: C_6  and  C_7
REMARK    3  A    between atoms: C_10  and  O_11
REMARK    4  A    between atoms: N_18  and  C_19
REMARK                            x       y       z     vdW  Elec       q    Type
REMARK                         _______ _______ _______ _____ _____    ______ ____
ROOT
ATOM      1  C   UNL     1       8.575  14.970  18.505  0.00  0.00    +0.000 C 
ATOM      2  C   UNL     1       7.081  14.795  18.798  0.00  0.00    +0.000 A 
ATOM      3  C   UNL     1       6.129  14.825  17.771  0.00  0.00    +0.000 A 
ATOM      4  C   UNL     1       4.782  15.006  18.083  0.00  0.00    +0.000 A 
ATOM      5  C   UNL     1       4.352  15.034  19.411  0.00  0.00    +0.000 A 
ATOM      6 CL   UNL     1       2.689  15.262  19.815  0.00  0.00    +0.000 Cl
ATOM      7  C   UNL     1       5.291  14.999  20.444  0.00  0.00    +0.000 A 
ATOM      8  C   UNL     1       6.655  14.965  20.130  0.00  0.00    +0.000 A 
ATOM      9  C   UNL     1       7.724  15.317  21.129  0.00  0.00    +0.000 C 
ATOM     10  C   UNL     1       8.662  16.397  20.516  0.00  0.00    +0.000 C 
ATOM     11  N   UNL     1       9.001  16.278  19.074  0.00  0.00    +0.000 NA
ATOM     12  C   UNL     1       8.458  17.388  18.288  0.00  0.00    +0.000 C 
ENDROOT
BRANCH   1  18
ATOM     13  C   UNL     1       9.319  10.055  19.264  0.00  0.00    +0.000 C 
ATOM     14  C   UNL     1       9.881  11.445  19.303  0.00  0.00    +0.000 A 
ATOM     15  C   UNL     1      11.153  11.710  19.811  0.00  0.00    +0.000 A 
ATOM     16  C   UNL     1      11.634  13.018  19.844  0.00  0.00    +0.000 A 
ATOM     17  C   UNL     1      10.850  14.088  19.392  0.00  0.00    +0.000 A 
ATOM     18  C   UNL     1       9.566  13.858  18.885  0.00  0.00    +0.000 A 
ATOM     19  C   UNL     1       9.111  12.518  18.838  0.00  0.00    +0.000 A 
ENDBRANCH   1  18
BRANCH   4  20
ATOM     20  O   UNL     1       3.894  15.244  17.065  0.00  0.00    +0.000 OA
ATOM     21  H   UNL     1       3.255  15.906  17.384  0.00  0.00    +0.000 HD
ENDBRANCH   4  20
TORSDOF 2
ENDMDL
MODEL 9
REMARK VINA RESULT:      -5.7      1.773      2.358
REMARK  Name = 
REMARK  4 active torsions:
REMARK  status: ('A' for Active; 'I' for Inactive)
REMARK    1  A    between atoms: C_1  and  C_2
REMARK    2  A    between atoms: C_6  and  C_7
REMARK    3  A    between atoms: C_10  and  O_11
REMARK    4  A    between atoms: N_18  and  C_19
REMARK                            x       y       z     vdW  Elec       q    Type
REMARK                         _______ _______ _______ _____ _____    ______ ____
ROOT
ATOM      1  C   UNL     1       2.410   6.237  18.141  0.00  0.00    +0.000 C 
ATOM      2  C   UNL     1       3.926   6.021  18.070  0.00  0.00    +0.000 A 
ATOM      3  C   UNL     1       4.622   6.144  16.862  0.00  0.00    +0.000 A 
ATOM      4  C   UNL     1       5.910   5.620  16.749  0.00  0.00    +0.000 A 
ATOM      5  C   UNL     1       6.563   5.083  17.861  0.00  0.00    +0.000 A 
ATOM      6 CL   UNL     1       8.154   4.425  17.739  0.00  0.00    +0.000 Cl
ATOM      7  C   UNL     1       5.881   4.959  19.072  0.00  0.00    +0.000 A 
ATOM      8  C   UNL     1       4.538   5.351  19.147  0.00  0.00    +0.000 A 
ATOM      9  C   UNL     1       3.627   4.905  20.257  0.00  0.00    +0.000 C 
ATOM     10  C   UNL     1       2.341   4.280  19.643  0.00  0.00    +0.000 C 
ATOM     11  N   UNL     1       1.775   4.922  18.427  0.00  0.00    +0.000 NA
ATOM     12  C   UNL     1       1.849   4.044  17.257  0.00  0.00    +0.000 C 
ENDROOT
BRANCH   1  18
ATOM     13  C   UNL     1       1.166  11.083  18.652  0.00  0.00    +0.000 C 
ATOM     14  C   UNL     1       1.286   9.729  19.286  0.00  0.00    +0.000 A 
ATOM     15  C   UNL     1       1.053   9.532  20.648  0.00  0.00    +0.000 A 
ATOM     16  C   UNL     1       1.190   8.261  21.204  0.00  0.00    +0.000 A 
ATOM     17  C   UNL     1       1.584   7.168  20.420  0.00  0.00    +0.000 A 
ATOM     18  C   UNL     1       1.835   7.333  19.053  0.00  0.00    +0.000 A 
ATOM     19  C   UNL     1       1.662   8.628  18.508  0.00  0.00    +0.000 A 
ENDBRANCH   1  18
BRANCH   4  20
ATOM     20  O   UNL     1       6.494   5.559  15.510  0.00  0.00    +0.000 OA
ATOM     21  H   UNL     1       7.146   4.837  15.529  0.00  0.00    +0.000 HD
ENDBRANCH   4  20
TORSDOF 2
ENDMDL
