MODEL 1
REMARK VINA RESULT:      -7.5      0.000      0.000
REMARK  Name = 
REMARK  4 active torsions:
REMARK  status: ('A' for Active; 'I' for Inactive)
REMARK    1  A    between atoms: C_1  and  C_2
REMARK    2  A    between atoms: C_2  and  C_3
REMARK    3  A    between atoms: C_2  and  C_4
REMARK    4  A    between atoms: C_7  and  C_8
REMARK                            x       y       z     vdW  Elec       q    Type
REMARK                         _______ _______ _______ _____ _____    ______ ____
ROOT
ATOM      1  C   UNL     1       6.214   5.639  16.617  0.00  0.00    +0.000 C 
ATOM      2  O   UNL     1       6.907   6.633  16.417  0.00  0.00    +0.000 OA
ATOM      3  N   UNL     1       5.942   4.639  15.707  0.00  0.00    +0.000 N 
ATOM      4  C   UNL     1       6.495   4.593  14.436  0.00  0.00    +0.000 A 
ATOM      5  N   UNL     1       7.520   5.399  14.124  0.00  0.00    +0.000 NA
ATOM      6  C   UNL     1       8.014   5.339  12.879  0.00  0.00    +0.000 A 
ATOM      7  C   UNL     1       7.514   4.497  11.923  0.00  0.00    +0.000 A 
ATOM      8  C   UNL     1       6.469   3.697  12.330  0.00  0.00    +0.000 A 
ATOM      9  N   UNL     1       5.955   3.711  13.578  0.00  0.00    +0.000 NA
ATOM     10  H   UNL     1       5.245   3.937  15.880  0.00  0.00    +0.000 HD
ENDROOT
BRANCH   1  14
ATOM     11  C   UNL     1       3.099   4.366  19.413  0.00  0.00    +0.000 C 
ATOM     12  C   UNL     1       3.257   5.872  19.118  0.00  0.00    +0.000 C 
ATOM     13  C   UNL     1       4.091   6.140  17.870  0.00  0.00    +0.000 C 
ATOM     14  C   UNL     1       5.472   5.473  17.939  0.00  0.00    +0.000 C 
ATOM     15  C   UNL     1       5.324   3.979  18.226  0.00  0.00    +0.000 C 
ATOM     16  C   UNL     1       4.491   3.708  19.475  0.00  0.00    +0.000 C 
BRANCH  11  18
ATOM     17  C   UNL     1       2.686   2.831  21.437  0.00  0.00    +0.000 C 
ATOM     18  C   UNL     1       2.280   4.123  20.716  0.00  0.00    +0.000 C 
ATOM     19  C   UNL     1       0.771   4.065  20.445  0.00  0.00    +0.000 C 
ENDBRANCH  11  18
ENDBRANCH   1  14
TORSDOF 2
ENDMDL
MODEL 2
REMARK VINA RESULT:      -7.3      0.874      1.115
REMARK  Name = 
REMARK  4 active torsions:
REMARK  status: ('A' for Active; 'I' for Inactive)
REMARK    1  A    between atoms: C_1  and  C_2
REMARK    2  A    between atoms: C_2  and  C_3
REMARK    3  A    between atoms: C_2  and  C_4
REMARK    4  A    between atoms: C_7  and  C_8
REMARK                            x       y       z     vdW  Elec       q    Type
REMARK                         _______ _______ _______ _____ _____    ______ ____
ROOT
ATOM      1  C   UNL     1       5.232   5.632  16.098  0.00  0.00    +0.000 C 
ATOM      2  O   UNL     1       5.959   6.618  16.012  0.00  0.00    +0.000 OA
ATOM      3  N   UNL     1       5.175   4.583  15.203  0.00  0.00    +0.000 N 
ATOM      4  C   UNL     1       6.009   4.474  14.101  0.00  0.00    +0.000 A 
ATOM      5  N   UNL     1       7.083   5.269  13.995  0.00  0.00    +0.000 NA
ATOM      6  C   UNL     1       7.854   5.146  12.903  0.00  0.00    +0.000 A 
ATOM      7  C   UNL     1       7.585   4.252  11.903  0.00  0.00    +0.000 A 
ATOM      8  C   UNL     1       6.470   3.468  12.097  0.00  0.00    +0.000 A 
ATOM      9  N   UNL     1       5.678   3.544  13.188  0.00  0.00    +0.000 NA
ATOM     10  H   UNL     1       4.452   3.887  15.245  0.00  0.00    +0.000 HD
ENDROOT
BRANCH   1  14
ATOM     11  C   UNL     1       3.217   4.080  19.657  0.00  0.00    +0.000 C 
ATOM     12  C   UNL     1       2.487   4.002  18.300  0.00  0.00    +0.000 C 
ATOM     13  C   UNL     1       3.424   4.211  17.117  0.00  0.00    +0.000 C 
ATOM     14  C   UNL     1       4.201   5.531  17.217  0.00  0.00    +0.000 C 
ATOM     15  C   UNL     1       4.932   5.615  18.557  0.00  0.00    +0.000 C 
ATOM     16  C   UNL     1       3.996   5.408  19.742  0.00  0.00    +0.000 C 
BRANCH  11  18
ATOM     17  C   UNL     1       2.478   2.618  21.642  0.00  0.00    +0.000 C 
ATOM     18  C   UNL     1       2.228   3.907  20.848  0.00  0.00    +0.000 C 
ATOM     19  C   UNL     1       0.765   3.907  20.387  0.00  0.00    +0.000 C 
ENDBRANCH  11  18
ENDBRANCH   1  14
TORSDOF 2
ENDMDL
MODEL 3
REMARK VINA RESULT:      -7.2      0.797      1.107
REMARK  Name = 
REMARK  4 active torsions:
REMARK  status: ('A' for Active; 'I' for Inactive)
REMARK    1  A    between atoms: C_1  and  C_2
REMARK    2  A    between atoms: C_2  and  C_3
REMARK    3  A    between atoms: C_2  and  C_4
REMARK    4  A    between atoms: C_7  and  C_8
REMARK                            x       y       z     vdW  Elec       q    Type
REMARK                         _______ _______ _______ _____ _____    ______ ____
ROOT
ATOM      1  C   UNL     1       5.910   5.854  16.478  0.00  0.00    +0.000 C 
ATOM      2  O   UNL     1       6.661   6.802  16.262  0.00  0.00    +0.000 OA
ATOM      3  N   UNL     1       5.657   4.805  15.619  0.00  0.00    +0.000 N 
ATOM      4  C   UNL     1       6.293   4.648  14.397  0.00  0.00    +0.000 A 
ATOM      5  N   UNL     1       7.373   5.388  14.107  0.00  0.00    +0.000 NA
ATOM      6  C   UNL     1       7.948   5.221  12.907  0.00  0.00    +0.000 A 
ATOM      7  C   UNL     1       7.477   4.336  11.976  0.00  0.00    +0.000 A 
ATOM      8  C   UNL     1       6.371   3.610  12.359  0.00  0.00    +0.000 A 
ATOM      9  N   UNL     1       5.773   3.731  13.563  0.00  0.00    +0.000 NA
ATOM     10  H   UNL     1       4.917   4.146  15.788  0.00  0.00    +0.000 HD
ENDROOT
BRANCH   1  14
ATOM     11  C   UNL     1       2.486   5.054  19.081  0.00  0.00    +0.000 C 
ATOM     12  C   UNL     1       2.862   6.521  18.782  0.00  0.00    +0.000 C 
ATOM     13  C   UNL     1       3.800   6.654  17.588  0.00  0.00    +0.000 C 
ATOM     14  C   UNL     1       5.072   5.811  17.752  0.00  0.00    +0.000 C 
ATOM     15  C   UNL     1       4.709   4.355  18.042  0.00  0.00    +0.000 C 
ATOM     16  C   UNL     1       3.772   4.219  19.238  0.00  0.00    +0.000 C 
BRANCH  11  18
ATOM     17  C   UNL     1       1.379   6.288  21.051  0.00  0.00    +0.000 C 
ATOM     18  C   UNL     1       1.562   4.945  20.331  0.00  0.00    +0.000 C 
ATOM     19  C   UNL     1       2.090   3.925  21.348  0.00  0.00    +0.000 C 
ENDBRANCH  11  18
ENDBRANCH   1  14
TORSDOF 2
ENDMDL
MODEL 4
REMARK VINA RESULT:      -7.2      0.667      1.065
REMARK  Name = 
REMARK  4 active torsions:
REMARK  status: ('A' for Active; 'I' for Inactive)
REMARK    1  A    between atoms: C_1  and  C_2
REMARK    2  A    between atoms: C_2  and  C_3
REMARK    3  A    between atoms: C_2  and  C_4
REMARK    4  A    between atoms: C_7  and  C_8
REMARK                            x       y       z     vdW  Elec       q    Type
REMARK                         _______ _______ _______ _____ _____    ______ ____
ROOT
ATOM      1  C   UNL     1       5.722   5.424  16.477  0.00  0.00    +0.000 C 
ATOM      2  O   UNL     1       6.403   6.444  16.400  0.00  0.00    +0.000 OA
ATOM      3  N   UNL     1       5.592   4.456  15.503  0.00  0.00    +0.000 N 
ATOM      4  C   UNL     1       6.294   4.478  14.307  0.00  0.00    +0.000 A 
ATOM      5  N   UNL     1       7.323   5.323  14.152  0.00  0.00    +0.000 NA
ATOM      6  C   UNL     1       7.963   5.329  12.973  0.00  0.00    +0.000 A 
ATOM      7  C   UNL     1       7.607   4.515  11.933  0.00  0.00    +0.000 A 
ATOM      8  C   UNL     1       6.547   3.671  12.180  0.00  0.00    +0.000 A 
ATOM      9  N   UNL     1       5.887   3.619  13.357  0.00  0.00    +0.000 NA
ATOM     10  H   UNL     1       4.901   3.729  15.564  0.00  0.00    +0.000 HD
ENDROOT
BRANCH   1  14
ATOM     11  C   UNL     1       2.774   3.466  19.050  0.00  0.00    +0.000 C 
ATOM     12  C   UNL     1       2.432   4.846  18.450  0.00  0.00    +0.000 C 
ATOM     13  C   UNL     1       3.352   5.227  17.295  0.00  0.00    +0.000 C 
ATOM     14  C   UNL     1       4.833   5.183  17.693  0.00  0.00    +0.000 C 
ATOM     15  C   UNL     1       5.183   3.818  18.284  0.00  0.00    +0.000 C 
ATOM     16  C   UNL     1       4.265   3.435  19.441  0.00  0.00    +0.000 C 
BRANCH  11  18
ATOM     17  C   UNL     1       0.921   4.283  20.639  0.00  0.00    +0.000 C 
ATOM     18  C   UNL     1       1.848   3.122  20.254  0.00  0.00    +0.000 C 
ATOM     19  C   UNL     1       2.648   2.717  21.499  0.00  0.00    +0.000 C 
ENDBRANCH  11  18
ENDBRANCH   1  14
TORSDOF 2
ENDMDL
MODEL 5
REMARK VINA RESULT:      -6.9      3.722      7.298
REMARK  Name = 
REMARK  4 active torsions:
REMARK  status: ('A' for Active; 'I' for Inactive)
REMARK    1  A    between atoms: C_1  and  C_2
REMARK    2  A    between atoms: C_2  and  C_3
REMARK    3  A    between atoms: C_2  and  C_4
REMARK    4  A    between atoms: C_7  and  C_8
REMARK                            x       y       z     vdW  Elec       q    Type
REMARK                         _______ _______ _______ _____ _____    ______ ____
ROOT
ATOM      1  C   UNL     1       3.367   6.477  18.723  0.00  0.00    +0.000 C 
ATOM      2  O   UNL     1       2.960   5.960  19.760  0.00  0.00    +0.000 OA
ATOM      3  N   UNL     1       2.906   7.650  18.163  0.00  0.00    +0.000 N 
ATOM      4  C   UNL     1       1.945   8.454  18.757  0.00  0.00    +0.000 A 
ATOM      5  N   UNL     1       1.599   8.246  20.036  0.00  0.00    +0.000 NA
ATOM      6  C   UNL     1       0.651   9.032  20.569  0.00  0.00    +0.000 A 
ATOM      7  C   UNL     1       0.028  10.025  19.862  0.00  0.00    +0.000 A 
ATOM      8  C   UNL     1       0.451  10.177  18.561  0.00  0.00    +0.000 A 
ATOM      9  N   UNL     1       1.415   9.422  17.991  0.00  0.00    +0.000 NA
ATOM     10  H   UNL     1       3.169   7.938  17.237  0.00  0.00    +0.000 HD
ENDROOT
BRANCH   1  14
ATOM     11  C   UNL     1       5.224   4.729  15.168  0.00  0.00    +0.000 C 
ATOM     12  C   UNL     1       4.804   3.792  16.320  0.00  0.00    +0.000 C 
ATOM     13  C   UNL     1       3.845   4.460  17.299  0.00  0.00    +0.000 C 
ATOM     14  C   UNL     1       4.412   5.767  17.869  0.00  0.00    +0.000 C 
ATOM     15  C   UNL     1       4.826   6.704  16.734  0.00  0.00    +0.000 C 
ATOM     16  C   UNL     1       5.787   6.039  15.754  0.00  0.00    +0.000 C 
BRANCH  11  18
ATOM     17  C   UNL     1       7.401   4.954  13.814  0.00  0.00    +0.000 C 
ATOM     18  C   UNL     1       6.237   4.035  14.209  0.00  0.00    +0.000 C 
ATOM     19  C   UNL     1       5.564   3.536  12.924  0.00  0.00    +0.000 C 
ENDBRANCH  11  18
ENDBRANCH   1  14
TORSDOF 2
ENDMDL
MODEL 6
REMARK VINA RESULT:      -6.6      4.573      7.982
REMARK  Name = 
REMARK  4 active torsions:
REMARK  status: ('A' for Active; 'I' for Inactive)
REMARK    1  A    between atoms: C_1  and  C_2
REMARK    2  A    between atoms: C_2  and  C_3
REMARK    3  A    between atoms: C_2  and  C_4
REMARK    4  A    between atoms: C_7  and  C_8
REMARK                            x       y       z     vdW  Elec       q    Type
REMARK                         _______ _______ _______ _____ _____    ______ ____
ROOT
ATOM      1  C   UNL     1       2.364   7.735  18.846  0.00  0.00    +0.000 C 
ATOM      2  O   UNL     1       1.875   8.495  18.013  0.00  0.00    +0.000 OA
ATOM      3  N   UNL     1       2.117   7.747  20.202  0.00  0.00    +0.000 N 
ATOM      4  C   UNL     1       1.202   8.598  20.805  0.00  0.00    +0.000 A 
ATOM      5  N   UNL     1       0.331   9.283  20.050  0.00  0.00    +0.000 NA
ATOM      6  C   UNL     1      -0.524  10.111  20.668  0.00  0.00    +0.000 A 
ATOM      7  C   UNL     1      -0.539  10.283  22.026  0.00  0.00    +0.000 A 
ATOM      8  C   UNL     1       0.381   9.534  22.725  0.00  0.00    +0.000 A 
ATOM      9  N   UNL     1       1.246   8.674  22.145  0.00  0.00    +0.000 NA
ATOM     10  H   UNL     1       2.664   7.205  20.848  0.00  0.00    +0.000 HD
ENDROOT
BRANCH   1  14
ATOM     11  C   UNL     1       4.655   5.061  16.249  0.00  0.00    +0.000 C 
ATOM     12  C   UNL     1       3.784   4.444  17.363  0.00  0.00    +0.000 C 
ATOM     13  C   UNL     1       2.765   5.429  17.925  0.00  0.00    +0.000 C 
ATOM     14  C   UNL     1       3.424   6.720  18.431  0.00  0.00    +0.000 C 
ATOM     15  C   UNL     1       4.286   7.341  17.332  0.00  0.00    +0.000 C 
ATOM     16  C   UNL     1       5.307   6.358  16.770  0.00  0.00    +0.000 C 
BRANCH  11  18
ATOM     17  C   UNL     1       7.117   4.309  16.289  0.00  0.00    +0.000 C 
ATOM     18  C   UNL     1       5.714   4.046  15.725  0.00  0.00    +0.000 C 
ATOM     19  C   UNL     1       5.807   4.051  14.193  0.00  0.00    +0.000 C 
ENDBRANCH  11  18
ENDBRANCH   1  14
TORSDOF 2
ENDMDL
MODEL 7
REMARK VINA RESULT:      -6.6      2.519      7.301
REMARK  Name = 
REMARK  4 active torsions:
REMARK  status: ('A' for Active; 'I' for Inactive)
REMARK    1  A    between atoms: C_1  and  C_2
REMARK    2  A    between atoms: C_2  and  C_3
REMARK    3  A    between atoms: C_2  and  C_4
REMARK    4  A    between atoms: C_7  and  C_8
REMARK                            x       y       z     vdW  Elec       q    Type
REMARK                         _______ _______ _______ _____ _____    ______ ____
ROOT
ATOM      1  C   UNL     1       4.815   4.293  18.263  0.00  0.00    +0.000 C 
ATOM      2  O   UNL     1       5.590   3.890  19.127  0.00  0.00    +0.000 OA
ATOM      3  N   UNL     1       3.439   4.216  18.305  0.00  0.00    +0.000 N 
ATOM      4  C   UNL     1       2.734   3.724  19.393  0.00  0.00    +0.000 A 
ATOM      5  N   UNL     1       3.362   3.528  20.562  0.00  0.00    +0.000 NA
ATOM      6  C   UNL     1       2.650   3.032  21.585  0.00  0.00    +0.000 A 
ATOM      7  C   UNL     1       1.323   2.718  21.481  0.00  0.00    +0.000 A 
ATOM      8  C   UNL     1       0.754   2.959  20.250  0.00  0.00    +0.000 A 
ATOM      9  N   UNL     1       1.428   3.476  19.200  0.00  0.00    +0.000 NA
ATOM     10  H   UNL     1       2.870   4.419  17.502  0.00  0.00    +0.000 HD
ENDROOT
BRANCH   1  14
ATOM     11  C   UNL     1       6.492   4.326  14.223  0.00  0.00    +0.000 C 
ATOM     12  C   UNL     1       7.350   4.869  15.384  0.00  0.00    +0.000 C 
ATOM     13  C   UNL     1       6.818   4.452  16.751  0.00  0.00    +0.000 C 
ATOM     14  C   UNL     1       5.351   4.856  16.951  0.00  0.00    +0.000 C 
ATOM     15  C   UNL     1       4.492   4.318  15.807  0.00  0.00    +0.000 C 
ATOM     16  C   UNL     1       5.022   4.735  14.439  0.00  0.00    +0.000 C 
BRANCH  11  18
ATOM     17  C   UNL     1       7.186   3.653  11.837  0.00  0.00    +0.000 C 
ATOM     18  C   UNL     1       7.033   4.802  12.842  0.00  0.00    +0.000 C 
ATOM     19  C   UNL     1       8.388   5.511  12.967  0.00  0.00    +0.000 C 
ENDBRANCH  11  18
ENDBRANCH   1  14
TORSDOF 2
ENDMDL
MODEL 8
REMARK VINA RESULT:      -6.5      5.595      8.508
REMARK  Name = 
REMARK  4 active torsions:
REMARK  status: ('A' for Active; 'I' for Inactive)
REMARK    1  A    between atoms: C_1  and  C_2
REMARK    2  A    between atoms: C_2  and  C_3
REMARK    3  A    between atoms: C_2  and  C_4
REMARK    4  A    between atoms: C_7  and  C_8
REMARK                            x       y       z     vdW  Elec       q    Type
REMARK                         _______ _______ _______ _____ _____    ______ ____
ROOT
ATOM      1  C   UNL     1       1.539   8.474  19.920  0.00  0.00    +0.000 C 
ATOM      2  O   UNL     1       1.520   9.349  19.058  0.00  0.00    +0.000 OA
ATOM      3  N   UNL     1       0.909   8.525  21.145  0.00  0.00    +0.000 N 
ATOM      4  C   UNL     1       0.091   9.573  21.540  0.00  0.00    +0.000 A 
ATOM      5  N   UNL     1      -0.322  10.474  20.638  0.00  0.00    +0.000 NA
ATOM      6  C   UNL     1      -1.095  11.485  21.063  0.00  0.00    +0.000 A 
ATOM      7  C   UNL     1      -1.472  11.630  22.370  0.00  0.00    +0.000 A 
ATOM      8  C   UNL     1      -1.014  10.655  23.228  0.00  0.00    +0.000 A 
ATOM      9  N   UNL     1      -0.250   9.611  22.840  0.00  0.00    +0.000 NA
ATOM     10  H   UNL     1       1.090   7.848  21.866  0.00  0.00    +0.000 HD
ENDROOT
BRANCH   1  14
ATOM     11  C   UNL     1       2.656   4.460  18.585  0.00  0.00    +0.000 C 
ATOM     12  C   UNL     1       2.476   4.714  20.096  0.00  0.00    +0.000 C 
ATOM     13  C   UNL     1       1.728   6.010  20.388  0.00  0.00    +0.000 C 
ATOM     14  C   UNL     1       2.395   7.226  19.730  0.00  0.00    +0.000 C 
ATOM     15  C   UNL     1       2.573   6.986  18.230  0.00  0.00    +0.000 C 
ATOM     16  C   UNL     1       3.322   5.690  17.936  0.00  0.00    +0.000 C 
BRANCH  11  18
ATOM     17  C   UNL     1       2.566   1.990  17.867  0.00  0.00    +0.000 C 
ATOM     18  C   UNL     1       3.460   3.153  18.317  0.00  0.00    +0.000 C 
ATOM     19  C   UNL     1       4.249   2.699  19.552  0.00  0.00    +0.000 C 
ENDBRANCH  11  18
ENDBRANCH   1  14
TORSDOF 2
ENDMDL
MODEL 9
REMARK VINA RESULT:      -6.5      2.438      7.141
REMARK  Name = 
REMARK  4 active torsions:
REMARK  status: ('A' for Active; 'I' for Inactive)
REMARK    1  A    between atoms: C_1  and  C_2
REMARK    2  A    between atoms: C_2  and  C_3
REMARK    3  A    between atoms: C_2  and  C_4
REMARK    4  A    between atoms: C_7  and  C_8
REMARK                            x       y       z     vdW  Elec       q    Type
REMARK                         _______ _______ _______ _____ _____    ______ ____
ROOT
ATOM      1  C   UNL     1       4.615   5.002  18.200  0.00  0.00    +0.000 C 
ATOM      2  O   UNL     1       5.062   5.564  19.197  0.00  0.00    +0.000 OA
ATOM      3  N   UNL     1       3.579   4.092  18.175  0.00  0.00    +0.000 N 
ATOM      4  C   UNL     1       2.843   3.742  19.297  0.00  0.00    +0.000 A 
ATOM      5  N   UNL     1       2.950   4.468  20.419  0.00  0.00    +0.000 NA
ATOM      6  C   UNL     1       2.237   4.086  21.489  0.00  0.00    +0.000 A 
ATOM      7  C   UNL     1       1.415   2.992  21.479  0.00  0.00    +0.000 A 
ATOM      8  C   UNL     1       1.355   2.310  20.285  0.00  0.00    +0.000 A 
ATOM      9  N   UNL     1       2.040   2.671  19.178  0.00  0.00    +0.000 NA
ATOM     10  H   UNL     1       3.365   3.551  17.356  0.00  0.00    +0.000 HD
ENDROOT
BRANCH   1  14
ATOM     11  C   UNL     1       6.658   3.985  14.468  0.00  0.00    +0.000 C 
ATOM     12  C   UNL     1       7.412   4.827  15.518  0.00  0.00    +0.000 C 
ATOM     13  C   UNL     1       6.751   4.780  16.891  0.00  0.00    +0.000 C 
ATOM     14  C   UNL     1       5.277   5.204  16.841  0.00  0.00    +0.000 C 
ATOM     15  C   UNL     1       4.521   4.371  15.806  0.00  0.00    +0.000 C 
ATOM     16  C   UNL     1       5.179   4.418  14.431  0.00  0.00    +0.000 C 
BRANCH  11  18
ATOM     17  C   UNL     1       7.809   5.507  12.740  0.00  0.00    +0.000 C 
ATOM     18  C   UNL     1       7.330   4.086  13.066  0.00  0.00    +0.000 C 
ATOM     19  C   UNL     1       6.391   3.628  11.943  0.00  0.00    +0.000 C 
ENDBRANCH  11  18
ENDBRANCH   1  14
TORSDOF 2
ENDMDL
