MODEL 1
REMARK VINA RESULT:      -7.9      0.000      0.000
REMARK  Name = 
REMARK  9 active torsions:
REMARK  status: ('A' for Active; 'I' for Inactive)
REMARK    1  A    between atoms: C_1  and  C_2
REMARK    2  A    between atoms: C_2  and  C_3
REMARK    3  A    between atoms: C_2  and  C_4
REMARK    4  A    between atoms: C_4  and  S_5
REMARK    5  A    between atoms: S_5  and  N_8
REMARK    6  A    between atoms: C_12  and  C_13
REMARK    7  A    between atoms: N_15  and  C_16
REMARK    8  A    between atoms: C_16  and  C_17
REMARK    9  A    between atoms: C_20  and  C_21
REMARK                            x       y       z     vdW  Elec       q    Type
REMARK                         _______ _______ _______ _____ _____    ______ ____
ROOT
ATOM      1  C   UNL     1       2.289   5.930  19.783  0.00  0.00    +0.000 C 
ATOM      2  O   UNL     1       3.291   6.395  19.227  0.00  0.00    +0.000 OA
ATOM      3  N   UNL     1       1.563   6.680  20.685  0.00  0.00    +0.000 N 
ATOM      4  H   UNL     1       0.786   6.248  21.188  0.00  0.00    +0.000 HD
ENDROOT
BRANCH   1   9
ATOM      5  N   UNL     1       3.025   3.647  19.349  0.00  0.00    +0.000 NA
ATOM      6  C   UNL     1       3.068   2.688  20.472  0.00  0.00    +0.000 C 
ATOM      7  C   UNL     1       1.615   2.487  20.838  0.00  0.00    +0.000 C 
ATOM      8  C   UNL     1       1.070   3.896  20.728  0.00  0.00    +0.000 C 
ATOM      9  C   UNL     1       1.803   4.499  19.511  0.00  0.00    +0.000 C 
BRANCH   5  10
ATOM     10  S   UNL     1       3.375   3.049  17.828  0.00  0.00    +0.000 S 
ATOM     11  O   UNL     1       2.320   3.528  16.944  0.00  0.00    +0.000 OA
ATOM     12  O   UNL     1       3.666   1.645  17.966  0.00  0.00    +0.000 OA
BRANCH  10  13
ATOM     13  C   UNL     1       4.866   3.964  17.478  0.00  0.00    +0.000 C 
BRANCH  13  15
ATOM     14  C   UNL     1       5.104   6.035  16.178  0.00  0.00    +0.000 C 
ATOM     15  C   UNL     1       4.934   4.515  16.055  0.00  0.00    +0.000 C 
ATOM     16  C   UNL     1       6.015   3.811  15.227  0.00  0.00    +0.000 C 
ENDBRANCH  13  15
ENDBRANCH  10  13
ENDBRANCH   5  10
ENDBRANCH   1   9
BRANCH   3  17
ATOM     17  C   UNL     1       1.927   8.057  20.950  0.00  0.00    +0.000 C 
BRANCH  17  18
ATOM     18  C   UNL     1       0.990   9.051  20.297  0.00  0.00    +0.000 A 
ATOM     19  C   UNL     1       0.010   9.723  21.041  0.00  0.00    +0.000 A 
ATOM     20  C   UNL     1      -0.871  10.629  20.426  0.00  0.00    +0.000 A 
ATOM     21  C   UNL     1      -0.776  10.899  19.055  0.00  0.00    +0.000 A 
ATOM     22  C   UNL     1       0.204  10.227  18.308  0.00  0.00    +0.000 A 
ATOM     23  C   UNL     1       1.078   9.324  18.923  0.00  0.00    +0.000 A 
BRANCH  21  24
ATOM     24  C   UNL     1      -1.703  11.879  18.392  0.00  0.00    +0.000 C 
ATOM     25  N   UNL     1      -2.784  12.315  18.956  0.00  0.00    +0.000 NA
ATOM     26  N   UNL     1      -1.454  12.366  17.142  0.00  0.00    +0.000 N 
ATOM     27  H   UNL     1      -2.943  11.877  19.863  0.00  0.00    +0.000 HD
ATOM     28  H   UNL     1      -0.493  12.486  16.865  0.00  0.00    +0.000 HD
ATOM     29  H   UNL     1      -2.044  13.182  16.952  0.00  0.00    +0.000 HD
ENDBRANCH  21  24
ENDBRANCH  17  18
ENDBRANCH   3  17
TORSDOF 7
ENDMDL
MODEL 2
REMARK VINA RESULT:      -7.8      0.186      1.157
REMARK  Name = 
REMARK  9 active torsions:
REMARK  status: ('A' for Active; 'I' for Inactive)
REMARK    1  A    between atoms: C_1  and  C_2
REMARK    2  A    between atoms: C_2  and  C_3
REMARK    3  A    between atoms: C_2  and  C_4
REMARK    4  A    between atoms: C_4  and  S_5
REMARK    5  A    between atoms: S_5  and  N_8
REMARK    6  A    between atoms: C_12  and  C_13
REMARK    7  A    between atoms: N_15  and  C_16
REMARK    8  A    between atoms: C_16  and  C_17
REMARK    9  A    between atoms: C_20  and  C_21
REMARK                            x       y       z     vdW  Elec       q    Type
REMARK                         _______ _______ _______ _____ _____    ______ ____
ROOT
ATOM      1  C   UNL     1       2.279   5.904  19.824  0.00  0.00    +0.000 C 
ATOM      2  O   UNL     1       3.275   6.387  19.271  0.00  0.00    +0.000 OA
ATOM      3  N   UNL     1       1.544   6.638  20.731  0.00  0.00    +0.000 N 
ATOM      4  H   UNL     1       0.773   6.193  21.231  0.00  0.00    +0.000 HD
ENDROOT
BRANCH   1   9
ATOM      5  N   UNL     1       3.046   3.628  19.406  0.00  0.00    +0.000 NA
ATOM      6  C   UNL     1       3.076   2.671  20.531  0.00  0.00    +0.000 C 
ATOM      7  C   UNL     1       1.618   2.455  20.868  0.00  0.00    +0.000 C 
ATOM      8  C   UNL     1       1.062   3.859  20.745  0.00  0.00    +0.000 C 
ATOM      9  C   UNL     1       1.813   4.468  19.544  0.00  0.00    +0.000 C 
BRANCH   5  10
ATOM     10  S   UNL     1       3.433   3.033  17.893  0.00  0.00    +0.000 S 
ATOM     11  O   UNL     1       2.383   3.489  16.990  0.00  0.00    +0.000 OA
ATOM     12  O   UNL     1       3.749   1.636  18.040  0.00  0.00    +0.000 OA
BRANCH  10  13
ATOM     13  C   UNL     1       4.911   3.976  17.565  0.00  0.00    +0.000 C 
BRANCH  13  15
ATOM     14  C   UNL     1       5.334   6.136  16.472  0.00  0.00    +0.000 C 
ATOM     15  C   UNL     1       4.904   4.687  16.212  0.00  0.00    +0.000 C 
ATOM     16  C   UNL     1       5.752   3.939  15.176  0.00  0.00    +0.000 C 
ENDBRANCH  13  15
ENDBRANCH  10  13
ENDBRANCH   5  10
ENDBRANCH   1   9
BRANCH   3  17
ATOM     17  C   UNL     1       1.889   8.019  21.005  0.00  0.00    +0.000 C 
BRANCH  17  18
ATOM     18  C   UNL     1       0.995   9.005  20.283  0.00  0.00    +0.000 A 
ATOM     19  C   UNL     1       1.138   9.244  18.909  0.00  0.00    +0.000 A 
ATOM     20  C   UNL     1       0.318  10.175  18.248  0.00  0.00    +0.000 A 
ATOM     21  C   UNL     1      -0.678  10.872  18.944  0.00  0.00    +0.000 A 
ATOM     22  C   UNL     1      -0.822  10.634  20.320  0.00  0.00    +0.000 A 
ATOM     23  C   UNL     1      -0.003   9.708  20.976  0.00  0.00    +0.000 A 
BRANCH  21  24
ATOM     24  C   UNL     1      -1.570  11.857  18.242  0.00  0.00    +0.000 C 
ATOM     25  N   UNL     1      -1.157  12.612  17.274  0.00  0.00    +0.000 NA
ATOM     26  N   UNL     1      -2.879  12.013  18.593  0.00  0.00    +0.000 N 
ATOM     27  H   UNL     1      -0.161  12.487  17.093  0.00  0.00    +0.000 HD
ATOM     28  H   UNL     1      -3.376  11.207  18.932  0.00  0.00    +0.000 HD
ATOM     29  H   UNL     1      -3.383  12.537  17.870  0.00  0.00    +0.000 HD
ENDBRANCH  21  24
ENDBRANCH  17  18
ENDBRANCH   3  17
TORSDOF 7
ENDMDL
MODEL 3
REMARK VINA RESULT:      -7.6      2.321      4.306
REMARK  Name = 
REMARK  9 active torsions:
REMARK  status: ('A' for Active; 'I' for Inactive)
REMARK    1  A    between atoms: C_1  and  C_2
REMARK    2  A    between atoms: C_2  and  C_3
REMARK    3  A    between atoms: C_2  and  C_4
REMARK    4  A    between atoms: C_4  and  S_5
REMARK    5  A    between atoms: S_5  and  N_8
REMARK    6  A    between atoms: C_12  and  C_13
REMARK    7  A    between atoms: N_15  and  C_16
REMARK    8  A    between atoms: C_16  and  C_17
REMARK    9  A    between atoms: C_20  and  C_21
REMARK                            x       y       z     vdW  Elec       q    Type
REMARK                         _______ _______ _______ _____ _____    ______ ____
ROOT
ATOM      1  C   UNL     1       4.104   6.940  16.990  0.00  0.00    +0.000 C 
ATOM      2  O   UNL     1       4.134   7.569  15.924  0.00  0.00    +0.000 OA
ATOM      3  N   UNL     1       3.246   7.303  18.006  0.00  0.00    +0.000 N 
ATOM      4  H   UNL     1       3.294   6.818  18.904  0.00  0.00    +0.000 HD
ENDROOT
BRANCH   1   9
ATOM      5  N   UNL     1       4.145   4.613  17.715  0.00  0.00    +0.000 NA
ATOM      6  C   UNL     1       4.174   3.550  16.690  0.00  0.00    +0.000 C 
ATOM      7  C   UNL     1       5.530   3.701  16.041  0.00  0.00    +0.000 C 
ATOM      8  C   UNL     1       5.660   5.208  15.944  0.00  0.00    +0.000 C 
ATOM      9  C   UNL     1       5.021   5.735  17.245  0.00  0.00    +0.000 C 
BRANCH   5  10
ATOM     10  S   UNL     1       4.265   4.132  19.311  0.00  0.00    +0.000 S 
ATOM     11  O   UNL     1       3.680   5.202  20.109  0.00  0.00    +0.000 OA
ATOM     12  O   UNL     1       5.614   3.677  19.531  0.00  0.00    +0.000 OA
BRANCH  10  13
ATOM     13  C   UNL     1       3.135   2.751  19.297  0.00  0.00    +0.000 C 
BRANCH  13  15
ATOM     14  C   UNL     1       0.756   2.463  18.756  0.00  0.00    +0.000 C 
ATOM     15  C   UNL     1       1.722   3.104  19.760  0.00  0.00    +0.000 C 
ATOM     16  C   UNL     1       1.490   2.706  21.222  0.00  0.00    +0.000 C 
ENDBRANCH  13  15
ENDBRANCH  10  13
ENDBRANCH   5  10
ENDBRANCH   1   9
BRANCH   3  17
ATOM     17  C   UNL     1       2.311   8.395  17.818  0.00  0.00    +0.000 C 
BRANCH  17  18
ATOM     18  C   UNL     1       1.642   8.826  19.107  0.00  0.00    +0.000 A 
ATOM     19  C   UNL     1       0.934  10.034  19.188  0.00  0.00    +0.000 A 
ATOM     20  C   UNL     1       0.332  10.439  20.392  0.00  0.00    +0.000 A 
ATOM     21  C   UNL     1       0.406   9.632  21.536  0.00  0.00    +0.000 A 
ATOM     22  C   UNL     1       1.113   8.423  21.455  0.00  0.00    +0.000 A 
ATOM     23  C   UNL     1       1.714   8.024  20.256  0.00  0.00    +0.000 A 
BRANCH  21  24
ATOM     24  C   UNL     1      -0.250  10.049  22.822  0.00  0.00    +0.000 C 
ATOM     25  N   UNL     1       0.101   9.575  23.975  0.00  0.00    +0.000 NA
ATOM     26  N   UNL     1      -1.266  10.960  22.845  0.00  0.00    +0.000 N 
ATOM     27  H   UNL     1       0.827   8.863  23.888  0.00  0.00    +0.000 HD
ATOM     28  H   UNL     1      -1.260  11.691  22.153  0.00  0.00    +0.000 HD
ATOM     29  H   UNL     1      -1.424  11.295  23.800  0.00  0.00    +0.000 HD
ENDBRANCH  21  24
ENDBRANCH  17  18
ENDBRANCH   3  17
TORSDOF 7
ENDMDL
MODEL 4
REMARK VINA RESULT:      -7.5      1.003      1.381
REMARK  Name = 
REMARK  9 active torsions:
REMARK  status: ('A' for Active; 'I' for Inactive)
REMARK    1  A    between atoms: C_1  and  C_2
REMARK    2  A    between atoms: C_2  and  C_3
REMARK    3  A    between atoms: C_2  and  C_4
REMARK    4  A    between atoms: C_4  and  S_5
REMARK    5  A    between atoms: S_5  and  N_8
REMARK    6  A    between atoms: C_12  and  C_13
REMARK    7  A    between atoms: N_15  and  C_16
REMARK    8  A    between atoms: C_16  and  C_17
REMARK    9  A    between atoms: C_20  and  C_21
REMARK                            x       y       z     vdW  Elec       q    Type
REMARK                         _______ _______ _______ _____ _____    ______ ____
ROOT
ATOM      1  C   UNL     1       2.377   6.114  19.999  0.00  0.00    +0.000 C 
ATOM      2  O   UNL     1       3.409   6.711  19.666  0.00  0.00    +0.000 OA
ATOM      3  N   UNL     1       1.436   6.716  20.808  0.00  0.00    +0.000 N 
ATOM      4  H   UNL     1       0.632   6.177  21.131  0.00  0.00    +0.000 HD
ENDROOT
BRANCH   1   9
ATOM      5  N   UNL     1       3.209   3.824  20.064  0.00  0.00    +0.000 NA
ATOM      6  C   UNL     1       2.649   2.892  21.064  0.00  0.00    +0.000 C 
ATOM      7  C   UNL     1       1.218   2.694  20.620  0.00  0.00    +0.000 C 
ATOM      8  C   UNL     1       0.825   4.099  20.210  0.00  0.00    +0.000 C 
ATOM      9  C   UNL     1       2.091   4.675  19.544  0.00  0.00    +0.000 C 
BRANCH   5  10
ATOM     10  S   UNL     1       4.298   3.191  18.964  0.00  0.00    +0.000 S 
ATOM     11  O   UNL     1       3.922   1.797  18.767  0.00  0.00    +0.000 OA
ATOM     12  O   UNL     1       5.621   3.562  19.396  0.00  0.00    +0.000 OA
BRANCH  10  13
ATOM     13  C   UNL     1       3.833   4.115  17.511  0.00  0.00    +0.000 C 
BRANCH  13  15
ATOM     14  C   UNL     1       5.323   4.084  15.558  0.00  0.00    +0.000 C 
ATOM     15  C   UNL     1       4.996   4.850  16.847  0.00  0.00    +0.000 C 
ATOM     16  C   UNL     1       4.686   6.339  16.651  0.00  0.00    +0.000 C 
ENDBRANCH  13  15
ENDBRANCH  10  13
ENDBRANCH   5  10
ENDBRANCH   1   9
BRANCH   3  17
ATOM     17  C   UNL     1       1.609   8.092  21.231  0.00  0.00    +0.000 C 
BRANCH  17  18
ATOM     18  C   UNL     1       0.883   9.078  20.340  0.00  0.00    +0.000 A 
ATOM     19  C   UNL     1      -0.192   9.838  20.823  0.00  0.00    +0.000 A 
ATOM     20  C   UNL     1      -0.875  10.737  19.987  0.00  0.00    +0.000 A 
ATOM     21  C   UNL     1      -0.484  10.912  18.652  0.00  0.00    +0.000 A 
ATOM     22  C   UNL     1       0.592  10.152  18.167  0.00  0.00    +0.000 A 
ATOM     23  C   UNL     1       1.269   9.256  19.002  0.00  0.00    +0.000 A 
BRANCH  21  24
ATOM     24  C   UNL     1      -1.198  11.883  17.756  0.00  0.00    +0.000 C 
ATOM     25  N   UNL     1      -2.082  11.514  16.884  0.00  0.00    +0.000 NA
ATOM     26  N   UNL     1      -0.948  13.224  17.810  0.00  0.00    +0.000 N 
ATOM     27  H   UNL     1      -2.187  10.501  16.854  0.00  0.00    +0.000 HD
ATOM     28  H   UNL     1      -0.701  13.622  18.701  0.00  0.00    +0.000 HD
ATOM     29  H   UNL     1      -1.678  13.744  17.313  0.00  0.00    +0.000 HD
ENDBRANCH  21  24
ENDBRANCH  17  18
ENDBRANCH   3  17
TORSDOF 7
ENDMDL
MODEL 5
REMARK VINA RESULT:      -7.5      2.190      4.208
REMARK  Name = 
REMARK  9 active torsions:
REMARK  status: ('A' for Active; 'I' for Inactive)
REMARK    1  A    between atoms: C_1  and  C_2
REMARK    2  A    between atoms: C_2  and  C_3
REMARK    3  A    between atoms: C_2  and  C_4
REMARK    4  A    between atoms: C_4  and  S_5
REMARK    5  A    between atoms: S_5  and  N_8
REMARK    6  A    between atoms: C_12  and  C_13
REMARK    7  A    between atoms: N_15  and  C_16
REMARK    8  A    between atoms: C_16  and  C_17
REMARK    9  A    between atoms: C_20  and  C_21
REMARK                            x       y       z     vdW  Elec       q    Type
REMARK                         _______ _______ _______ _____ _____    ______ ____
ROOT
ATOM      1  C   UNL     1       4.432   6.792  17.163  0.00  0.00    +0.000 C 
ATOM      2  O   UNL     1       4.492   7.334  16.053  0.00  0.00    +0.000 OA
ATOM      3  N   UNL     1       3.497   7.185  18.098  0.00  0.00    +0.000 N 
ATOM      4  H   UNL     1       3.518   6.775  19.034  0.00  0.00    +0.000 HD
ENDROOT
BRANCH   1   9
ATOM      5  N   UNL     1       4.782   4.380  17.093  0.00  0.00    +0.000 NA
ATOM      6  C   UNL     1       5.652   3.818  16.040  0.00  0.00    +0.000 C 
ATOM      7  C   UNL     1       7.031   4.326  16.394  0.00  0.00    +0.000 C 
ATOM      8  C   UNL     1       6.737   5.752  16.814  0.00  0.00    +0.000 C 
ATOM      9  C   UNL     1       5.393   5.664  17.566  0.00  0.00    +0.000 C 
BRANCH   5  10
ATOM     10  S   UNL     1       4.194   3.315  18.239  0.00  0.00    +0.000 S 
ATOM     11  O   UNL     1       5.038   3.471  19.418  0.00  0.00    +0.000 OA
ATOM     12  O   UNL     1       4.019   2.036  17.600  0.00  0.00    +0.000 OA
BRANCH  10  13
ATOM     13  C   UNL     1       2.612   4.069  18.572  0.00  0.00    +0.000 C 
BRANCH  13  15
ATOM     14  C   UNL     1       1.170   4.334  20.544  0.00  0.00    +0.000 C 
ATOM     15  C   UNL     1       1.758   3.298  19.577  0.00  0.00    +0.000 C 
ATOM     16  C   UNL     1       0.723   2.409  18.876  0.00  0.00    +0.000 C 
ENDBRANCH  13  15
ENDBRANCH  10  13
ENDBRANCH   5  10
ENDBRANCH   1   9
BRANCH   3  17
ATOM     17  C   UNL     1       2.520   8.204  17.771  0.00  0.00    +0.000 C 
BRANCH  17  18
ATOM     18  C   UNL     1       1.769   8.712  18.984  0.00  0.00    +0.000 A 
ATOM     19  C   UNL     1       1.772   7.998  20.191  0.00  0.00    +0.000 A 
ATOM     20  C   UNL     1       1.057   8.463  21.308  0.00  0.00    +0.000 A 
ATOM     21  C   UNL     1       0.340   9.666  21.248  0.00  0.00    +0.000 A 
ATOM     22  C   UNL     1       0.336  10.381  20.040  0.00  0.00    +0.000 A 
ATOM     23  C   UNL     1       1.047   9.914  18.929  0.00  0.00    +0.000 A 
BRANCH  21  24
ATOM     24  C   UNL     1      -0.414  10.179  22.442  0.00  0.00    +0.000 C 
ATOM     25  N   UNL     1      -0.711   9.434  23.459  0.00  0.00    +0.000 NA
ATOM     26  N   UNL     1      -0.834  11.475  22.520  0.00  0.00    +0.000 N 
ATOM     27  H   UNL     1      -0.417   8.467  23.320  0.00  0.00    +0.000 HD
ATOM     28  H   UNL     1      -0.268  12.182  22.079  0.00  0.00    +0.000 HD
ATOM     29  H   UNL     1      -1.110  11.705  23.480  0.00  0.00    +0.000 HD
ENDBRANCH  21  24
ENDBRANCH  17  18
ENDBRANCH   3  17
TORSDOF 7
ENDMDL
MODEL 6
REMARK VINA RESULT:      -7.4      0.764      1.043
REMARK  Name = 
REMARK  9 active torsions:
REMARK  status: ('A' for Active; 'I' for Inactive)
REMARK    1  A    between atoms: C_1  and  C_2
REMARK    2  A    between atoms: C_2  and  C_3
REMARK    3  A    between atoms: C_2  and  C_4
REMARK    4  A    between atoms: C_4  and  S_5
REMARK    5  A    between atoms: S_5  and  N_8
REMARK    6  A    between atoms: C_12  and  C_13
REMARK    7  A    between atoms: N_15  and  C_16
REMARK    8  A    between atoms: C_16  and  C_17
REMARK    9  A    between atoms: C_20  and  C_21
REMARK                            x       y       z     vdW  Elec       q    Type
REMARK                         _______ _______ _______ _____ _____    ______ ____
ROOT
ATOM      1  C   UNL     1       2.200   5.936  20.116  0.00  0.00    +0.000 C 
ATOM      2  O   UNL     1       3.252   6.375  19.633  0.00  0.00    +0.000 OA
ATOM      3  N   UNL     1       1.411   6.718  20.933  0.00  0.00    +0.000 N 
ATOM      4  H   UNL     1       0.589   6.309  21.380  0.00  0.00    +0.000 HD
ENDROOT
BRANCH   1   9
ATOM      5  N   UNL     1       2.891   3.750  19.288  0.00  0.00    +0.000 NA
ATOM      6  C   UNL     1       3.271   2.708  20.264  0.00  0.00    +0.000 C 
ATOM      7  C   UNL     1       1.978   2.381  20.975  0.00  0.00    +0.000 C 
ATOM      8  C   UNL     1       1.364   3.756  21.146  0.00  0.00    +0.000 C 
ATOM      9  C   UNL     1       1.721   4.502  19.844  0.00  0.00    +0.000 C 
BRANCH   5  10
ATOM     10  S   UNL     1       2.851   3.302  17.678  0.00  0.00    +0.000 S 
ATOM     11  O   UNL     1       1.517   3.631  17.193  0.00  0.00    +0.000 OA
ATOM     12  O   UNL     1       3.381   1.966  17.582  0.00  0.00    +0.000 OA
BRANCH  10  13
ATOM     13  C   UNL     1       4.007   4.483  17.006  0.00  0.00    +0.000 C 
BRANCH  13  15
ATOM     14  C   UNL     1       5.950   4.134  15.543  0.00  0.00    +0.000 C 
ATOM     15  C   UNL     1       5.453   3.990  16.987  0.00  0.00    +0.000 C 
ATOM     16  C   UNL     1       6.308   4.710  18.037  0.00  0.00    +0.000 C 
ENDBRANCH  13  15
ENDBRANCH  10  13
ENDBRANCH   5  10
ENDBRANCH   1   9
BRANCH   3  17
ATOM     17  C   UNL     1       1.769   8.099  21.190  0.00  0.00    +0.000 C 
BRANCH  17  18
ATOM     18  C   UNL     1       0.979   9.079  20.347  0.00  0.00    +0.000 A 
ATOM     19  C   UNL     1      -0.070   9.829  20.897  0.00  0.00    +0.000 A 
ATOM     20  C   UNL     1      -0.813  10.722  20.106  0.00  0.00    +0.000 A 
ATOM     21  C   UNL     1      -0.508  10.900  18.750  0.00  0.00    +0.000 A 
ATOM     22  C   UNL     1       0.542  10.150  18.198  0.00  0.00    +0.000 A 
ATOM     23  C   UNL     1       1.279   9.260  18.988  0.00  0.00    +0.000 A 
BRANCH  21  24
ATOM     24  C   UNL     1      -1.286  11.865  17.901  0.00  0.00    +0.000 C 
ATOM     25  N   UNL     1      -1.962  11.497  16.859  0.00  0.00    +0.000 NA
ATOM     26  N   UNL     1      -1.321  13.200  18.183  0.00  0.00    +0.000 N 
ATOM     27  H   UNL     1      -1.855  10.500  16.670  0.00  0.00    +0.000 HD
ATOM     28  H   UNL     1      -1.272  13.479  19.149  0.00  0.00    +0.000 HD
ATOM     29  H   UNL     1      -2.073  13.657  17.658  0.00  0.00    +0.000 HD
ENDBRANCH  21  24
ENDBRANCH  17  18
ENDBRANCH   3  17
TORSDOF 7
ENDMDL
MODEL 7
REMARK VINA RESULT:      -7.4      3.665      8.508
REMARK  Name = 
REMARK  9 active torsions:
REMARK  status: ('A' for Active; 'I' for Inactive)
REMARK    1  A    between atoms: C_1  and  C_2
REMARK    2  A    between atoms: C_2  and  C_3
REMARK    3  A    between atoms: C_2  and  C_4
REMARK    4  A    between atoms: C_4  and  S_5
REMARK    5  A    between atoms: S_5  and  N_8
REMARK    6  A    between atoms: C_12  and  C_13
REMARK    7  A    between atoms: N_15  and  C_16
REMARK    8  A    between atoms: C_16  and  C_17
REMARK    9  A    between atoms: C_20  and  C_21
REMARK                            x       y       z     vdW  Elec       q    Type
REMARK                         _______ _______ _______ _____ _____    ______ ____
ROOT
ATOM      1  C   UNL     1       1.398   9.715  18.039  0.00  0.00    +0.000 C 
ATOM      2  O   UNL     1       2.152  10.535  17.501  0.00  0.00    +0.000 OA
ATOM      3  N   UNL     1       1.743   8.383  18.130  0.00  0.00    +0.000 N 
ATOM      4  H   UNL     1       1.072   7.713  18.509  0.00  0.00    +0.000 HD
ENDROOT
BRANCH   1   9
ATOM      5  N   UNL     1       0.163  11.560  19.046  0.00  0.00    +0.000 NA
ATOM      6  C   UNL     1      -0.731  12.367  18.191  0.00  0.00    +0.000 C 
ATOM      7  C   UNL     1      -1.841  11.413  17.817  0.00  0.00    +0.000 C 
ATOM      8  C   UNL     1      -1.073  10.132  17.557  0.00  0.00    +0.000 C 
ATOM      9  C   UNL     1       0.040  10.127  18.625  0.00  0.00    +0.000 C 
BRANCH   5  10
ATOM     10  S   UNL     1       0.165  11.906  20.682  0.00  0.00    +0.000 S 
ATOM     11  O   UNL     1      -0.877  12.904  20.892  0.00  0.00    +0.000 OA
ATOM     12  O   UNL     1       1.529  12.144  21.077  0.00  0.00    +0.000 OA
BRANCH  10  13
ATOM     13  C   UNL     1      -0.408  10.343  21.323  0.00  0.00    +0.000 C 
BRANCH  13  15
ATOM     14  C   UNL     1      -0.081   9.447  23.587  0.00  0.00    +0.000 C 
ATOM     15  C   UNL     1       0.602   9.638  22.227  0.00  0.00    +0.000 C 
ATOM     16  C   UNL     1       1.132   8.350  21.585  0.00  0.00    +0.000 C 
ENDBRANCH  13  15
ENDBRANCH  10  13
ENDBRANCH   5  10
ENDBRANCH   1   9
BRANCH   3  17
ATOM     17  C   UNL     1       3.034   7.928  17.650  0.00  0.00    +0.000 C 
BRANCH  17  18
ATOM     18  C   UNL     1       3.314   6.481  17.996  0.00  0.00    +0.000 A 
ATOM     19  C   UNL     1       2.271   5.581  18.254  0.00  0.00    +0.000 A 
ATOM     20  C   UNL     1       2.537   4.243  18.594  0.00  0.00    +0.000 A 
ATOM     21  C   UNL     1       3.855   3.772  18.663  0.00  0.00    +0.000 A 
ATOM     22  C   UNL     1       4.901   4.672  18.405  0.00  0.00    +0.000 A 
ATOM     23  C   UNL     1       4.632   6.003  18.069  0.00  0.00    +0.000 A 
BRANCH  21  24
ATOM     24  C   UNL     1       4.148   2.339  19.010  0.00  0.00    +0.000 C 
ATOM     25  N   UNL     1       4.923   1.999  19.990  0.00  0.00    +0.000 NA
ATOM     26  N   UNL     1       3.610   1.306  18.299  0.00  0.00    +0.000 N 
ATOM     27  H   UNL     1       5.335   2.811  20.449  0.00  0.00    +0.000 HD
ATOM     28  H   UNL     1       2.694   1.434  17.902  0.00  0.00    +0.000 HD
ATOM     29  H   UNL     1       3.721   0.425  18.810  0.00  0.00    +0.000 HD
ENDBRANCH  21  24
ENDBRANCH  17  18
ENDBRANCH   3  17
TORSDOF 7
ENDMDL
MODEL 8
REMARK VINA RESULT:      -7.4      1.637      2.255
REMARK  Name = 
REMARK  9 active torsions:
REMARK  status: ('A' for Active; 'I' for Inactive)
REMARK    1  A    between atoms: C_1  and  C_2
REMARK    2  A    between atoms: C_2  and  C_3
REMARK    3  A    between atoms: C_2  and  C_4
REMARK    4  A    between atoms: C_4  and  S_5
REMARK    5  A    between atoms: S_5  and  N_8
REMARK    6  A    between atoms: C_12  and  C_13
REMARK    7  A    between atoms: N_15  and  C_16
REMARK    8  A    between atoms: C_16  and  C_17
REMARK    9  A    between atoms: C_20  and  C_21
REMARK                            x       y       z     vdW  Elec       q    Type
REMARK                         _______ _______ _______ _____ _____    ______ ____
ROOT
ATOM      1  C   UNL     1       1.998   5.351  19.742  0.00  0.00    +0.000 C 
ATOM      2  O   UNL     1       1.204   4.906  20.580  0.00  0.00    +0.000 OA
ATOM      3  N   UNL     1       2.323   6.691  19.711  0.00  0.00    +0.000 N 
ATOM      4  H   UNL     1       2.920   7.047  18.962  0.00  0.00    +0.000 HD
ENDROOT
BRANCH   1   9
ATOM      5  N   UNL     1       4.043   4.150  19.177  0.00  0.00    +0.000 NA
ATOM      6  C   UNL     1       4.124   2.705  19.475  0.00  0.00    +0.000 C 
ATOM      7  C   UNL     1       3.121   2.080  18.534  0.00  0.00    +0.000 C 
ATOM      8  C   UNL     1       1.974   3.067  18.604  0.00  0.00    +0.000 C 
ATOM      9  C   UNL     1       2.657   4.447  18.690  0.00  0.00    +0.000 C 
BRANCH   5  10
ATOM     10  S   UNL     1       5.332   4.829  18.357  0.00  0.00    +0.000 S 
ATOM     11  O   UNL     1       6.520   4.099  18.781  0.00  0.00    +0.000 OA
ATOM     12  O   UNL     1       5.235   6.259  18.496  0.00  0.00    +0.000 OA
BRANCH  10  13
ATOM     13  C   UNL     1       4.927   4.333  16.692  0.00  0.00    +0.000 C 
BRANCH  13  15
ATOM     14  C   UNL     1       5.929   3.974  14.478  0.00  0.00    +0.000 C 
ATOM     15  C   UNL     1       5.800   4.987  15.623  0.00  0.00    +0.000 C 
ATOM     16  C   UNL     1       5.256   6.360  15.210  0.00  0.00    +0.000 C 
ENDBRANCH  13  15
ENDBRANCH  10  13
ENDBRANCH   5  10
ENDBRANCH   1   9
BRANCH   3  17
ATOM     17  C   UNL     1       1.785   7.597  20.706  0.00  0.00    +0.000 C 
BRANCH  17  18
ATOM     18  C   UNL     1       1.053   8.775  20.097  0.00  0.00    +0.000 A 
ATOM     19  C   UNL     1       1.337   9.212  18.796  0.00  0.00    +0.000 A 
ATOM     20  C   UNL     1       0.670  10.319  18.243  0.00  0.00    +0.000 A 
ATOM     21  C   UNL     1      -0.313  11.000  18.974  0.00  0.00    +0.000 A 
ATOM     22  C   UNL     1      -0.598  10.563  20.277  0.00  0.00    +0.000 A 
ATOM     23  C   UNL     1       0.070   9.463  20.825  0.00  0.00    +0.000 A 
BRANCH  21  24
ATOM     24  C   UNL     1      -1.043  12.173  18.384  0.00  0.00    +0.000 C 
ATOM     25  N   UNL     1      -1.103  13.328  18.968  0.00  0.00    +0.000 NA
ATOM     26  N   UNL     1      -1.695  12.084  17.188  0.00  0.00    +0.000 N 
ATOM     27  H   UNL     1      -0.644  13.318  19.878  0.00  0.00    +0.000 HD
ATOM     28  H   UNL     1      -1.314  11.467  16.489  0.00  0.00    +0.000 HD
ATOM     29  H   UNL     1      -1.924  13.018  16.836  0.00  0.00    +0.000 HD
ENDBRANCH  21  24
ENDBRANCH  17  18
ENDBRANCH   3  17
TORSDOF 7
ENDMDL
MODEL 9
REMARK VINA RESULT:      -7.4      2.339      4.305
REMARK  Name = 
REMARK  9 active torsions:
REMARK  status: ('A' for Active; 'I' for Inactive)
REMARK    1  A    between atoms: C_1  and  C_2
REMARK    2  A    between atoms: C_2  and  C_3
REMARK    3  A    between atoms: C_2  and  C_4
REMARK    4  A    between atoms: C_4  and  S_5
REMARK    5  A    between atoms: S_5  and  N_8
REMARK    6  A    between atoms: C_12  and  C_13
REMARK    7  A    between atoms: N_15  and  C_16
REMARK    8  A    between atoms: C_16  and  C_17
REMARK    9  A    between atoms: C_20  and  C_21
REMARK                            x       y       z     vdW  Elec       q    Type
REMARK                         _______ _______ _______ _____ _____    ______ ____
ROOT
ATOM      1  C   UNL     1       4.432   7.020  16.856  0.00  0.00    +0.000 C 
ATOM      2  O   UNL     1       4.305   7.468  15.710  0.00  0.00    +0.000 OA
ATOM      3  N   UNL     1       3.562   7.383  17.863  0.00  0.00    +0.000 N 
ATOM      4  H   UNL     1       3.732   7.061  18.817  0.00  0.00    +0.000 HD
ENDROOT
BRANCH   1   9
ATOM      5  N   UNL     1       4.919   4.739  17.563  0.00  0.00    +0.000 NA
ATOM      6  C   UNL     1       5.329   3.751  16.545  0.00  0.00    +0.000 C 
ATOM      7  C   UNL     1       6.686   4.236  16.089  0.00  0.00    +0.000 C 
ATOM      8  C   UNL     1       6.472   5.734  16.021  0.00  0.00    +0.000 C 
ATOM      9  C   UNL     1       5.563   6.049  17.226  0.00  0.00    +0.000 C 
BRANCH   5  10
ATOM     10  S   UNL     1       4.937   4.236  19.157  0.00  0.00    +0.000 S 
ATOM     11  O   UNL     1       6.002   4.985  19.813  0.00  0.00    +0.000 OA
ATOM     12  O   UNL     1       4.913   2.796  19.163  0.00  0.00    +0.000 OA
BRANCH  10  13
ATOM     13  C   UNL     1       3.368   4.889  19.700  0.00  0.00    +0.000 C 
BRANCH  13  15
ATOM     14  C   UNL     1       1.223   4.132  20.626  0.00  0.00    +0.000 C 
ATOM     15  C   UNL     1       2.188   3.953  19.447  0.00  0.00    +0.000 C 
ATOM     16  C   UNL     1       1.567   4.186  18.065  0.00  0.00    +0.000 C 
ENDBRANCH  13  15
ENDBRANCH  10  13
ENDBRANCH   5  10
ENDBRANCH   1   9
BRANCH   3  17
ATOM     17  C   UNL     1       2.436   8.251  17.577  0.00  0.00    +0.000 C 
BRANCH  17  18
ATOM     18  C   UNL     1       1.740   8.745  18.829  0.00  0.00    +0.000 A 
ATOM     19  C   UNL     1       1.028   9.952  18.835  0.00  0.00    +0.000 A 
ATOM     20  C   UNL     1       0.402  10.416  20.005  0.00  0.00    +0.000 A 
ATOM     21  C   UNL     1       0.456   9.669  21.189  0.00  0.00    +0.000 A 
ATOM     22  C   UNL     1       1.168   8.460  21.185  0.00  0.00    +0.000 A 
ATOM     23  C   UNL     1       1.793   8.003  20.019  0.00  0.00    +0.000 A 
BRANCH  21  24
ATOM     24  C   UNL     1      -0.226  10.149  22.440  0.00  0.00    +0.000 C 
ATOM     25  N   UNL     1      -0.408  11.404  22.703  0.00  0.00    +0.000 NA
ATOM     26  N   UNL     1      -0.692   9.277  23.380  0.00  0.00    +0.000 N 
ATOM     27  H   UNL     1       0.006  12.005  21.992  0.00  0.00    +0.000 HD
ATOM     28  H   UNL     1      -1.032   8.382  23.067  0.00  0.00    +0.000 HD
ATOM     29  H   UNL     1      -1.324   9.755  24.029  0.00  0.00    +0.000 HD
ENDBRANCH  21  24
ENDBRANCH  17  18
ENDBRANCH   3  17
TORSDOF 7
ENDMDL
