MODEL 1
REMARK VINA RESULT:      -6.4      0.000      0.000
REMARK  Name = 
REMARK  13 active torsions:
REMARK  status: ('A' for Active; 'I' for Inactive)
REMARK    1  A    between atoms: C_1  and  C_2
REMARK    2  A    between atoms: C_4  and  C_5
REMARK    3  A    between atoms: N_6  and  C_7
REMARK    4  A    between atoms: C_7  and  C_8
REMARK    5  A    between atoms: C_8  and  C_9
REMARK    6  A    between atoms: C_8  and  C_10
REMARK    7  A    between atoms: C_10  and  N_11
REMARK    8  A    between atoms: C_12  and  C_14
REMARK    9  A    between atoms: C_14  and  C_15
REMARK   10  A    between atoms: C_15  and  C_16
REMARK   11  A    between atoms: C_16  and  N_17
REMARK   12  A    between atoms: N_17  and  C_18
REMARK   13  A    between atoms: N_17  and  C_19
REMARK                            x       y       z     vdW  Elec       q    Type
REMARK                         _______ _______ _______ _____ _____    ______ ____
ROOT
ATOM      1  C   UNL     1       7.487   4.911  16.521  0.00  0.00    +0.000 C 
ENDROOT
BRANCH   1   2
ATOM      2  N   UNL     1       7.451   6.354  16.588  0.00  0.00    +0.000 N 
ATOM      3  C   UNL     1       7.711   7.040  17.744  0.00  0.00    +0.000 C 
ATOM      4  O   UNL     1       7.989   6.506  18.813  0.00  0.00    +0.000 OA
ATOM      5  H   UNL     1       7.278   6.870  15.730  0.00  0.00    +0.000 HD
BRANCH   3   6
ATOM      6  C   UNL     1       7.671   8.544  17.602  0.00  0.00    +0.000 C 
BRANCH   6   7
ATOM      7  C   UNL     1       8.635   9.195  18.591  0.00  0.00    +0.000 C 
BRANCH   7   8
ATOM      8  C   UNL     1       9.122  10.589  18.169  0.00  0.00    +0.000 C 
BRANCH   8   9
ATOM      9  N   UNL     1       9.949  11.266  19.184  0.00  0.00    +0.000 NA
ATOM     10  C   UNL     1       9.978  12.717  18.971  0.00  0.00    +0.000 C 
ATOM     11  C   UNL     1       9.428  10.977  20.523  0.00  0.00    +0.000 C 
ENDBRANCH   8   9
ENDBRANCH   7   8
ENDBRANCH   6   7
ENDBRANCH   3   6
ENDBRANCH   1   2
BRANCH   1  12
ATOM     12  C   UNL     1       6.088   4.287  16.399  0.00  0.00    +0.000 C 
ATOM     13  C   UNL     1       5.265   5.014  15.338  0.00  0.00    +0.000 C 
BRANCH  12  14
ATOM     14  C   UNL     1       5.350   4.169  17.745  0.00  0.00    +0.000 C 
BRANCH  14  20
ATOM     15  C   UNL     1       2.390   7.908  18.506  0.00  0.00    +0.000 C 
ATOM     16  C   UNL     1       2.787   6.511  18.211  0.00  0.00    +0.000 A 
ATOM     17  C   UNL     1       1.959   5.393  17.982  0.00  0.00    +0.000 A 
ATOM     18  C   UNL     1       2.819   4.340  17.751  0.00  0.00    +0.000 A 
ATOM     19  C   UNL     1       2.535   2.911  17.474  0.00  0.00    +0.000 C 
ATOM     20  N   UNL     1       4.083   4.870  17.843  0.00  0.00    +0.000 N 
ATOM     21  N   UNL     1       4.081   6.182  18.151  0.00  0.00    +0.000 NA
ENDBRANCH  14  20
ENDBRANCH  12  14
ENDBRANCH   1  12
TORSDOF 8
ENDMDL
MODEL 2
REMARK VINA RESULT:      -6.3      4.180      6.565
REMARK  Name = 
REMARK  13 active torsions:
REMARK  status: ('A' for Active; 'I' for Inactive)
REMARK    1  A    between atoms: C_1  and  C_2
REMARK    2  A    between atoms: C_4  and  C_5
REMARK    3  A    between atoms: N_6  and  C_7
REMARK    4  A    between atoms: C_7  and  C_8
REMARK    5  A    between atoms: C_8  and  C_9
REMARK    6  A    between atoms: C_8  and  C_10
REMARK    7  A    between atoms: C_10  and  N_11
REMARK    8  A    between atoms: C_12  and  C_14
REMARK    9  A    between atoms: C_14  and  C_15
REMARK   10  A    between atoms: C_15  and  C_16
REMARK   11  A    between atoms: C_16  and  N_17
REMARK   12  A    between atoms: N_17  and  C_18
REMARK   13  A    between atoms: N_17  and  C_19
REMARK                            x       y       z     vdW  Elec       q    Type
REMARK                         _______ _______ _______ _____ _____    ______ ____
ROOT
ATOM      1  C   UNL     1       6.371   4.332  17.845  0.00  0.00    +0.000 C 
ENDROOT
BRANCH   1   2
ATOM      2  N   UNL     1       6.554   4.227  16.416  0.00  0.00    +0.000 N 
ATOM      3  C   UNL     1       7.083   5.245  15.668  0.00  0.00    +0.000 C 
ATOM      4  O   UNL     1       7.441   6.323  16.131  0.00  0.00    +0.000 OA
ATOM      5  H   UNL     1       6.327   3.344  15.967  0.00  0.00    +0.000 HD
BRANCH   3   6
ATOM      6  C   UNL     1       7.239   4.927  14.199  0.00  0.00    +0.000 C 
BRANCH   6   7
ATOM      7  C   UNL     1       6.315   3.775  13.806  0.00  0.00    +0.000 C 
BRANCH   7   8
ATOM      8  C   UNL     1       6.120   3.616  12.291  0.00  0.00    +0.000 C 
BRANCH   8   9
ATOM      9  N   UNL     1       5.165   2.556  11.921  0.00  0.00    +0.000 NA
ATOM     10  C   UNL     1       4.100   3.072  11.054  0.00  0.00    +0.000 C 
ATOM     11  C   UNL     1       5.870   1.468  11.237  0.00  0.00    +0.000 C 
ENDBRANCH   8   9
ENDBRANCH   7   8
ENDBRANCH   6   7
ENDBRANCH   3   6
ENDBRANCH   1   2
BRANCH   1  12
ATOM     12  C   UNL     1       4.897   4.515  18.244  0.00  0.00    +0.000 C 
ATOM     13  C   UNL     1       4.779   5.416  19.472  0.00  0.00    +0.000 C 
BRANCH  12  14
ATOM     14  C   UNL     1       4.137   3.186  18.408  0.00  0.00    +0.000 C 
BRANCH  14  20
ATOM     15  C   UNL     1       1.293   2.370  22.224  0.00  0.00    +0.000 C 
ATOM     16  C   UNL     1       1.671   2.845  20.872  0.00  0.00    +0.000 A 
ATOM     17  C   UNL     1       0.863   3.478  19.907  0.00  0.00    +0.000 A 
ATOM     18  C   UNL     1       1.693   3.718  18.832  0.00  0.00    +0.000 A 
ATOM     19  C   UNL     1       1.406   4.337  17.516  0.00  0.00    +0.000 C 
ATOM     20  N   UNL     1       2.925   3.237  19.204  0.00  0.00    +0.000 N 
ATOM     21  N   UNL     1       2.922   2.677  20.430  0.00  0.00    +0.000 NA
ENDBRANCH  14  20
ENDBRANCH  12  14
ENDBRANCH   1  12
TORSDOF 8
ENDMDL
MODEL 3
REMARK VINA RESULT:      -6.2      1.395      2.252
REMARK  Name = 
REMARK  13 active torsions:
REMARK  status: ('A' for Active; 'I' for Inactive)
REMARK    1  A    between atoms: C_1  and  C_2
REMARK    2  A    between atoms: C_4  and  C_5
REMARK    3  A    between atoms: N_6  and  C_7
REMARK    4  A    between atoms: C_7  and  C_8
REMARK    5  A    between atoms: C_8  and  C_9
REMARK    6  A    between atoms: C_8  and  C_10
REMARK    7  A    between atoms: C_10  and  N_11
REMARK    8  A    between atoms: C_12  and  C_14
REMARK    9  A    between atoms: C_14  and  C_15
REMARK   10  A    between atoms: C_15  and  C_16
REMARK   11  A    between atoms: C_16  and  N_17
REMARK   12  A    between atoms: N_17  and  C_18
REMARK   13  A    between atoms: N_17  and  C_19
REMARK                            x       y       z     vdW  Elec       q    Type
REMARK                         _______ _______ _______ _____ _____    ______ ____
ROOT
ATOM      1  C   UNL     1       6.908   5.722  16.561  0.00  0.00    +0.000 C 
ENDROOT
BRANCH   1   2
ATOM      2  N   UNL     1       7.160   7.132  16.750  0.00  0.00    +0.000 N 
ATOM      3  C   UNL     1       7.819   7.618  17.847  0.00  0.00    +0.000 C 
ATOM      4  O   UNL     1       8.245   6.916  18.760  0.00  0.00    +0.000 OA
ATOM      5  H   UNL     1       6.881   7.772  16.012  0.00  0.00    +0.000 HD
BRANCH   3   6
ATOM      6  C   UNL     1       8.027   9.114  17.841  0.00  0.00    +0.000 C 
BRANCH   6   7
ATOM      7  C   UNL     1       9.083   9.506  18.872  0.00  0.00    +0.000 C 
BRANCH   7   8
ATOM      8  C   UNL     1       9.222  11.021  19.085  0.00  0.00    +0.000 C 
BRANCH   8   9
ATOM      9  N   UNL     1       9.722  11.747  17.903  0.00  0.00    +0.000 NA
ATOM     10  C   UNL     1       9.040  13.034  17.737  0.00  0.00    +0.000 C 
ATOM     11  C   UNL     1      11.166  11.968  18.029  0.00  0.00    +0.000 C 
ENDBRANCH   8   9
ENDBRANCH   7   8
ENDBRANCH   6   7
ENDBRANCH   3   6
ENDBRANCH   1   2
BRANCH   1  12
ATOM     12  C   UNL     1       5.495   5.306  17.000  0.00  0.00    +0.000 C 
ATOM     13  C   UNL     1       4.961   4.187  16.109  0.00  0.00    +0.000 C 
BRANCH  12  14
ATOM     14  C   UNL     1       4.517   6.489  17.116  0.00  0.00    +0.000 C 
BRANCH  14  20
ATOM     15  C   UNL     1       2.327   4.645  21.004  0.00  0.00    +0.000 C 
ATOM     16  C   UNL     1       2.619   5.621  19.929  0.00  0.00    +0.000 A 
ATOM     17  C   UNL     1       1.986   6.854  19.669  0.00  0.00    +0.000 A 
ATOM     18  C   UNL     1       2.633   7.374  18.567  0.00  0.00    +0.000 A 
ATOM     19  C   UNL     1       2.397   8.632  17.819  0.00  0.00    +0.000 C 
ATOM     20  N   UNL     1       3.599   6.454  18.239  0.00  0.00    +0.000 N 
ATOM     21  N   UNL     1       3.585   5.369  19.040  0.00  0.00    +0.000 NA
ENDBRANCH  14  20
ENDBRANCH  12  14
ENDBRANCH   1  12
TORSDOF 8
ENDMDL
MODEL 4
REMARK VINA RESULT:      -6.2      3.879      6.558
REMARK  Name = 
REMARK  13 active torsions:
REMARK  status: ('A' for Active; 'I' for Inactive)
REMARK    1  A    between atoms: C_1  and  C_2
REMARK    2  A    between atoms: C_4  and  C_5
REMARK    3  A    between atoms: N_6  and  C_7
REMARK    4  A    between atoms: C_7  and  C_8
REMARK    5  A    between atoms: C_8  and  C_9
REMARK    6  A    between atoms: C_8  and  C_10
REMARK    7  A    between atoms: C_10  and  N_11
REMARK    8  A    between atoms: C_12  and  C_14
REMARK    9  A    between atoms: C_14  and  C_15
REMARK   10  A    between atoms: C_15  and  C_16
REMARK   11  A    between atoms: C_16  and  N_17
REMARK   12  A    between atoms: N_17  and  C_18
REMARK   13  A    between atoms: N_17  and  C_19
REMARK                            x       y       z     vdW  Elec       q    Type
REMARK                         _______ _______ _______ _____ _____    ______ ____
ROOT
ATOM      1  C   UNL     1       5.062   6.770  16.748  0.00  0.00    +0.000 C 
ENDROOT
BRANCH   1   2
ATOM      2  N   UNL     1       5.214   5.763  15.722  0.00  0.00    +0.000 N 
ATOM      3  C   UNL     1       6.370   5.046  15.565  0.00  0.00    +0.000 C 
ATOM      4  O   UNL     1       7.368   5.190  16.264  0.00  0.00    +0.000 OA
ATOM      5  H   UNL     1       4.412   5.551  15.135  0.00  0.00    +0.000 HD
BRANCH   3   6
ATOM      6  C   UNL     1       6.318   4.007  14.469  0.00  0.00    +0.000 C 
BRANCH   6   7
ATOM      7  C   UNL     1       6.957   4.552  13.193  0.00  0.00    +0.000 C 
BRANCH   7   8
ATOM      8  C   UNL     1       6.770   3.652  11.963  0.00  0.00    +0.000 C 
BRANCH   8   9
ATOM      9  N   UNL     1       5.620   2.736  12.062  0.00  0.00    +0.000 NA
ATOM     10  C   UNL     1       4.416   3.319  11.460  0.00  0.00    +0.000 C 
ATOM     11  C   UNL     1       5.935   1.467  11.398  0.00  0.00    +0.000 C 
ENDBRANCH   8   9
ENDBRANCH   7   8
ENDBRANCH   6   7
ENDBRANCH   3   6
ENDBRANCH   1   2
BRANCH   1  12
ATOM     12  C   UNL     1       3.853   6.509  17.661  0.00  0.00    +0.000 C 
ATOM     13  C   UNL     1       3.039   7.787  17.854  0.00  0.00    +0.000 C 
BRANCH  12  14
ATOM     14  C   UNL     1       4.226   5.836  18.994  0.00  0.00    +0.000 C 
BRANCH  14  20
ATOM     15  C   UNL     1       3.808   1.051  18.491  0.00  0.00    +0.000 C 
ATOM     16  C   UNL     1       3.475   2.414  18.967  0.00  0.00    +0.000 A 
ATOM     17  C   UNL     1       2.407   2.818  19.795  0.00  0.00    +0.000 A 
ATOM     18  C   UNL     1       2.551   4.182  19.940  0.00  0.00    +0.000 A 
ATOM     19  C   UNL     1       1.718   5.162  20.678  0.00  0.00    +0.000 C 
ATOM     20  N   UNL     1       3.672   4.513  19.219  0.00  0.00    +0.000 N 
ATOM     21  N   UNL     1       4.229   3.455  18.598  0.00  0.00    +0.000 NA
ENDBRANCH  14  20
ENDBRANCH  12  14
ENDBRANCH   1  12
TORSDOF 8
ENDMDL
MODEL 5
REMARK VINA RESULT:      -6.1      1.858      2.531
REMARK  Name = 
REMARK  13 active torsions:
REMARK  status: ('A' for Active; 'I' for Inactive)
REMARK    1  A    between atoms: C_1  and  C_2
REMARK    2  A    between atoms: C_4  and  C_5
REMARK    3  A    between atoms: N_6  and  C_7
REMARK    4  A    between atoms: C_7  and  C_8
REMARK    5  A    between atoms: C_8  and  C_9
REMARK    6  A    between atoms: C_8  and  C_10
REMARK    7  A    between atoms: C_10  and  N_11
REMARK    8  A    between atoms: C_12  and  C_14
REMARK    9  A    between atoms: C_14  and  C_15
REMARK   10  A    between atoms: C_15  and  C_16
REMARK   11  A    between atoms: C_16  and  N_17
REMARK   12  A    between atoms: N_17  and  C_18
REMARK   13  A    between atoms: N_17  and  C_19
REMARK                            x       y       z     vdW  Elec       q    Type
REMARK                         _______ _______ _______ _____ _____    ______ ____
ROOT
ATOM      1  C   UNL     1       6.923   4.976  18.400  0.00  0.00    +0.000 C 
ENDROOT
BRANCH   1   2
ATOM      2  N   UNL     1       7.093   6.409  18.460  0.00  0.00    +0.000 N 
ATOM      3  C   UNL     1       7.499   7.145  17.380  0.00  0.00    +0.000 C 
ATOM      4  O   UNL     1       7.758   6.666  16.280  0.00  0.00    +0.000 OA
ATOM      5  H   UNL     1       6.849   6.885  19.325  0.00  0.00    +0.000 HD
BRANCH   3   6
ATOM      6  C   UNL     1       7.572   8.634  17.628  0.00  0.00    +0.000 C 
BRANCH   6   7
ATOM      7  C   UNL     1       8.762   8.963  18.526  0.00  0.00    +0.000 C 
BRANCH   7   8
ATOM      8  C   UNL     1       8.909  10.457  18.853  0.00  0.00    +0.000 C 
BRANCH   8   9
ATOM      9  N   UNL     1      10.288  10.866  19.172  0.00  0.00    +0.000 NA
ATOM     10  C   UNL     1      10.880  11.647  18.082  0.00  0.00    +0.000 C 
ATOM     11  C   UNL     1      10.300  11.657  20.406  0.00  0.00    +0.000 C 
ENDBRANCH   8   9
ENDBRANCH   7   8
ENDBRANCH   6   7
ENDBRANCH   3   6
ENDBRANCH   1   2
BRANCH   1  12
ATOM     12  C   UNL     1       5.472   4.561  18.104  0.00  0.00    +0.000 C 
ATOM     13  C   UNL     1       5.341   4.046  16.672  0.00  0.00    +0.000 C 
BRANCH  12  14
ATOM     14  C   UNL     1       4.442   5.655  18.437  0.00  0.00    +0.000 C 
BRANCH  14  20
ATOM     15  C   UNL     1       2.010   2.809  21.487  0.00  0.00    +0.000 C 
ATOM     16  C   UNL     1       2.349   4.040  20.735  0.00  0.00    +0.000 A 
ATOM     17  C   UNL     1       1.686   5.284  20.744  0.00  0.00    +0.000 A 
ATOM     18  C   UNL     1       2.402   6.088  19.881  0.00  0.00    +0.000 A 
ATOM     19  C   UNL     1       2.174   7.493  19.466  0.00  0.00    +0.000 C 
ATOM     20  N   UNL     1       3.433   5.307  19.420  0.00  0.00    +0.000 N 
ATOM     21  N   UNL     1       3.399   4.050  19.907  0.00  0.00    +0.000 NA
ENDBRANCH  14  20
ENDBRANCH  12  14
ENDBRANCH   1  12
TORSDOF 8
ENDMDL
MODEL 6
REMARK VINA RESULT:      -6.1      3.610      6.393
REMARK  Name = 
REMARK  13 active torsions:
REMARK  status: ('A' for Active; 'I' for Inactive)
REMARK    1  A    between atoms: C_1  and  C_2
REMARK    2  A    between atoms: C_4  and  C_5
REMARK    3  A    between atoms: N_6  and  C_7
REMARK    4  A    between atoms: C_7  and  C_8
REMARK    5  A    between atoms: C_8  and  C_9
REMARK    6  A    between atoms: C_8  and  C_10
REMARK    7  A    between atoms: C_10  and  N_11
REMARK    8  A    between atoms: C_12  and  C_14
REMARK    9  A    between atoms: C_14  and  C_15
REMARK   10  A    between atoms: C_15  and  C_16
REMARK   11  A    between atoms: C_16  and  N_17
REMARK   12  A    between atoms: N_17  and  C_18
REMARK   13  A    between atoms: N_17  and  C_19
REMARK                            x       y       z     vdW  Elec       q    Type
REMARK                         _______ _______ _______ _____ _____    ______ ____
ROOT
ATOM      1  C   UNL     1       5.785   6.302  17.295  0.00  0.00    +0.000 C 
ENDROOT
BRANCH   1   2
ATOM      2  N   UNL     1       5.630   5.318  16.249  0.00  0.00    +0.000 N 
ATOM      3  C   UNL     1       6.613   5.065  15.329  0.00  0.00    +0.000 C 
ATOM      4  O   UNL     1       7.695   5.642  15.304  0.00  0.00    +0.000 OA
ATOM      5  H   UNL     1       4.779   4.763  16.235  0.00  0.00    +0.000 HD
BRANCH   3   6
ATOM      6  C   UNL     1       6.281   3.968  14.344  0.00  0.00    +0.000 C 
BRANCH   6   7
ATOM      7  C   UNL     1       6.593   4.423  12.920  0.00  0.00    +0.000 C 
BRANCH   7   8
ATOM      8  C   UNL     1       6.738   3.275  11.911  0.00  0.00    +0.000 C 
BRANCH   8   9
ATOM      9  N   UNL     1       5.579   2.365  11.871  0.00  0.00    +0.000 NA
ATOM     10  C   UNL     1       4.411   3.011  11.265  0.00  0.00    +0.000 C 
ATOM     11  C   UNL     1       5.921   1.157  11.113  0.00  0.00    +0.000 C 
ENDBRANCH   8   9
ENDBRANCH   7   8
ENDBRANCH   6   7
ENDBRANCH   3   6
ENDBRANCH   1   2
BRANCH   1  12
ATOM     12  C   UNL     1       6.127   5.674  18.656  0.00  0.00    +0.000 C 
ATOM     13  C   UNL     1       7.637   5.672  18.884  0.00  0.00    +0.000 C 
BRANCH  12  14
ATOM     14  C   UNL     1       5.493   4.287  18.867  0.00  0.00    +0.000 C 
BRANCH  14  20
ATOM     15  C   UNL     1       1.314   5.783  20.768  0.00  0.00    +0.000 C 
ATOM     16  C   UNL     1       2.240   4.915  20.003  0.00  0.00    +0.000 A 
ATOM     17  C   UNL     1       1.956   3.714  19.323  0.00  0.00    +0.000 A 
ATOM     18  C   UNL     1       3.154   3.309  18.774  0.00  0.00    +0.000 A 
ATOM     19  C   UNL     1       3.486   2.109  17.969  0.00  0.00    +0.000 C 
ATOM     20  N   UNL     1       4.068   4.269  19.136  0.00  0.00    +0.000 N 
ATOM     21  N   UNL     1       3.534   5.237  19.908  0.00  0.00    +0.000 NA
ENDBRANCH  14  20
ENDBRANCH  12  14
ENDBRANCH   1  12
TORSDOF 8
ENDMDL
MODEL 7
REMARK VINA RESULT:      -6.0      1.160      2.331
REMARK  Name = 
REMARK  13 active torsions:
REMARK  status: ('A' for Active; 'I' for Inactive)
REMARK    1  A    between atoms: C_1  and  C_2
REMARK    2  A    between atoms: C_4  and  C_5
REMARK    3  A    between atoms: N_6  and  C_7
REMARK    4  A    between atoms: C_7  and  C_8
REMARK    5  A    between atoms: C_8  and  C_9
REMARK    6  A    between atoms: C_8  and  C_10
REMARK    7  A    between atoms: C_10  and  N_11
REMARK    8  A    between atoms: C_12  and  C_14
REMARK    9  A    between atoms: C_14  and  C_15
REMARK   10  A    between atoms: C_15  and  C_16
REMARK   11  A    between atoms: C_16  and  N_17
REMARK   12  A    between atoms: N_17  and  C_18
REMARK   13  A    between atoms: N_17  and  C_19
REMARK                            x       y       z     vdW  Elec       q    Type
REMARK                         _______ _______ _______ _____ _____    ______ ____
ROOT
ATOM      1  C   UNL     1       7.336   5.916  16.926  0.00  0.00    +0.000 C 
ENDROOT
BRANCH   1   2
ATOM      2  N   UNL     1       7.355   7.360  16.901  0.00  0.00    +0.000 N 
ATOM      3  C   UNL     1       7.984   8.102  17.865  0.00  0.00    +0.000 C 
ATOM      4  O   UNL     1       8.577   7.620  18.825  0.00  0.00    +0.000 OA
ATOM      5  H   UNL     1       6.928   7.832  16.109  0.00  0.00    +0.000 HD
BRANCH   3   6
ATOM      6  C   UNL     1       7.933   9.595  17.639  0.00  0.00    +0.000 C 
BRANCH   6   7
ATOM      7  C   UNL     1       9.032  10.290  18.440  0.00  0.00    +0.000 C 
BRANCH   7   8
ATOM      8  C   UNL     1       9.074  11.815  18.259  0.00  0.00    +0.000 C 
BRANCH   8   9
ATOM      9  N   UNL     1      10.358  12.427  18.646  0.00  0.00    +0.000 NA
ATOM     10  C   UNL     1      11.358  11.408  18.981  0.00  0.00    +0.000 C 
ATOM     11  C   UNL     1      10.858  13.265  17.552  0.00  0.00    +0.000 C 
ENDBRANCH   8   9
ENDBRANCH   7   8
ENDBRANCH   6   7
ENDBRANCH   3   6
ENDBRANCH   1   2
BRANCH   1  12
ATOM     12  C   UNL     1       6.052   5.328  16.320  0.00  0.00    +0.000 C 
ATOM     13  C   UNL     1       6.204   5.143  14.812  0.00  0.00    +0.000 C 
BRANCH  12  14
ATOM     14  C   UNL     1       4.782   6.112  16.696  0.00  0.00    +0.000 C 
BRANCH  14  20
ATOM     15  C   UNL     1       2.289   2.189  18.006  0.00  0.00    +0.000 C 
ATOM     16  C   UNL     1       2.626   3.628  17.902  0.00  0.00    +0.000 A 
ATOM     17  C   UNL     1       1.922   4.734  18.421  0.00  0.00    +0.000 A 
ATOM     18  C   UNL     1       2.654   5.842  18.052  0.00  0.00    +0.000 A 
ATOM     19  C   UNL     1       2.402   7.283  18.291  0.00  0.00    +0.000 C 
ATOM     20  N   UNL     1       3.735   5.355  17.357  0.00  0.00    +0.000 N 
ATOM     21  N   UNL     1       3.717   4.013  17.232  0.00  0.00    +0.000 NA
ENDBRANCH  14  20
ENDBRANCH  12  14
ENDBRANCH   1  12
TORSDOF 8
ENDMDL
MODEL 8
REMARK VINA RESULT:      -5.9      4.133      5.986
REMARK  Name = 
REMARK  13 active torsions:
REMARK  status: ('A' for Active; 'I' for Inactive)
REMARK    1  A    between atoms: C_1  and  C_2
REMARK    2  A    between atoms: C_4  and  C_5
REMARK    3  A    between atoms: N_6  and  C_7
REMARK    4  A    between atoms: C_7  and  C_8
REMARK    5  A    between atoms: C_8  and  C_9
REMARK    6  A    between atoms: C_8  and  C_10
REMARK    7  A    between atoms: C_10  and  N_11
REMARK    8  A    between atoms: C_12  and  C_14
REMARK    9  A    between atoms: C_14  and  C_15
REMARK   10  A    between atoms: C_15  and  C_16
REMARK   11  A    between atoms: C_16  and  N_17
REMARK   12  A    between atoms: N_17  and  C_18
REMARK   13  A    between atoms: N_17  and  C_19
REMARK                            x       y       z     vdW  Elec       q    Type
REMARK                         _______ _______ _______ _____ _____    ______ ____
ROOT
ATOM      1  C   UNL     1       2.513   5.134  20.780  0.00  0.00    +0.000 C 
ENDROOT
BRANCH   1   2
ATOM      2  N   UNL     1       2.743   5.959  19.617  0.00  0.00    +0.000 N 
ATOM      3  C   UNL     1       2.261   7.236  19.517  0.00  0.00    +0.000 C 
ATOM      4  O   UNL     1       1.597   7.790  20.387  0.00  0.00    +0.000 OA
ATOM      5  H   UNL     1       3.329   5.587  18.874  0.00  0.00    +0.000 HD
BRANCH   3   6
ATOM      6  C   UNL     1       2.647   7.953  18.244  0.00  0.00    +0.000 C 
BRANCH   6   7
ATOM      7  C   UNL     1       1.567   8.960  17.855  0.00  0.00    +0.000 C 
BRANCH   7   8
ATOM      8  C   UNL     1       1.932  10.422  18.155  0.00  0.00    +0.000 C 
BRANCH   8   9
ATOM      9  N   UNL     1       0.803  11.231  18.646  0.00  0.00    +0.000 NA
ATOM     10  C   UNL     1      -0.359  10.394  18.962  0.00  0.00    +0.000 C 
ATOM     11  C   UNL     1       1.208  11.980  19.839  0.00  0.00    +0.000 C 
ENDBRANCH   8   9
ENDBRANCH   7   8
ENDBRANCH   6   7
ENDBRANCH   3   6
ENDBRANCH   1   2
BRANCH   1  12
ATOM     12  C   UNL     1       2.274   3.658  20.425  0.00  0.00    +0.000 C 
ATOM     13  C   UNL     1       1.455   2.967  21.513  0.00  0.00    +0.000 C 
BRANCH  12  14
ATOM     14  C   UNL     1       3.565   2.894  20.079  0.00  0.00    +0.000 C 
BRANCH  14  20
ATOM     15  C   UNL     1       7.281   5.075  17.899  0.00  0.00    +0.000 C 
ATOM     16  C   UNL     1       5.964   4.407  18.024  0.00  0.00    +0.000 A 
ATOM     17  C   UNL     1       5.021   4.131  17.013  0.00  0.00    +0.000 A 
ATOM     18  C   UNL     1       3.976   3.496  17.649  0.00  0.00    +0.000 A 
ATOM     19  C   UNL     1       2.691   2.988  17.112  0.00  0.00    +0.000 C 
ATOM     20  N   UNL     1       4.342   3.418  18.971  0.00  0.00    +0.000 N 
ATOM     21  N   UNL     1       5.535   3.993  19.220  0.00  0.00    +0.000 NA
ENDBRANCH  14  20
ENDBRANCH  12  14
ENDBRANCH   1  12
TORSDOF 8
ENDMDL
MODEL 9
REMARK VINA RESULT:      -5.9      3.621      6.105
REMARK  Name = 
REMARK  13 active torsions:
REMARK  status: ('A' for Active; 'I' for Inactive)
REMARK    1  A    between atoms: C_1  and  C_2
REMARK    2  A    between atoms: C_4  and  C_5
REMARK    3  A    between atoms: N_6  and  C_7
REMARK    4  A    between atoms: C_7  and  C_8
REMARK    5  A    between atoms: C_8  and  C_9
REMARK    6  A    between atoms: C_8  and  C_10
REMARK    7  A    between atoms: C_10  and  N_11
REMARK    8  A    between atoms: C_12  and  C_14
REMARK    9  A    between atoms: C_14  and  C_15
REMARK   10  A    between atoms: C_15  and  C_16
REMARK   11  A    between atoms: C_16  and  N_17
REMARK   12  A    between atoms: N_17  and  C_18
REMARK   13  A    between atoms: N_17  and  C_19
REMARK                            x       y       z     vdW  Elec       q    Type
REMARK                         _______ _______ _______ _____ _____    ______ ____
ROOT
ATOM      1  C   UNL     1       4.937   7.072  17.173  0.00  0.00    +0.000 C 
ENDROOT
BRANCH   1   2
ATOM      2  N   UNL     1       5.543   6.338  16.086  0.00  0.00    +0.000 N 
ATOM      3  C   UNL     1       6.787   5.775  16.186  0.00  0.00    +0.000 C 
ATOM      4  O   UNL     1       7.493   5.842  17.187  0.00  0.00    +0.000 OA
ATOM      5  H   UNL     1       4.998   6.197  15.240  0.00  0.00    +0.000 HD
BRANCH   3   6
ATOM      6  C   UNL     1       7.228   5.008  14.960  0.00  0.00    +0.000 C 
BRANCH   6   7
ATOM      7  C   UNL     1       6.303   3.817  14.720  0.00  0.00    +0.000 C 
BRANCH   7   8
ATOM      8  C   UNL     1       5.325   4.005  13.551  0.00  0.00    +0.000 C 
BRANCH   8   9
ATOM      9  N   UNL     1       5.545   3.073  12.431  0.00  0.00    +0.000 NA
ATOM     10  C   UNL     1       4.483   3.181  11.427  0.00  0.00    +0.000 C 
ATOM     11  C   UNL     1       6.843   3.345  11.806  0.00  0.00    +0.000 C 
ENDBRANCH   8   9
ENDBRANCH   7   8
ENDBRANCH   6   7
ENDBRANCH   3   6
ENDBRANCH   1   2
BRANCH   1  12
ATOM     12  C   UNL     1       3.791   6.299  17.845  0.00  0.00    +0.000 C 
ATOM     13  C   UNL     1       2.639   7.238  18.194  0.00  0.00    +0.000 C 
BRANCH  12  14
ATOM     14  C   UNL     1       4.247   5.448  19.044  0.00  0.00    +0.000 C 
BRANCH  14  20
ATOM     15  C   UNL     1       1.313   2.677  21.696  0.00  0.00    +0.000 C 
ATOM     16  C   UNL     1       2.162   3.068  20.546  0.00  0.00    +0.000 A 
ATOM     17  C   UNL     1       2.456   2.329  19.382  0.00  0.00    +0.000 A 
ATOM     18  C   UNL     1       3.281   3.139  18.631  0.00  0.00    +0.000 A 
ATOM     19  C   UNL     1       3.931   2.897  17.321  0.00  0.00    +0.000 C 
ATOM     20  N   UNL     1       3.426   4.294  19.360  0.00  0.00    +0.000 N 
ATOM     21  N   UNL     1       2.776   4.255  20.540  0.00  0.00    +0.000 NA
ENDBRANCH  14  20
ENDBRANCH  12  14
ENDBRANCH   1  12
TORSDOF 8
ENDMDL
