MODEL 1
REMARK VINA RESULT:      -7.7      0.000      0.000
REMARK  Name = 
REMARK  12 active torsions:
REMARK  status: ('A' for Active; 'I' for Inactive)
REMARK    1  A    between atoms: C_1  and  C_2
REMARK    2  A    between atoms: C_2  and  C_3
REMARK    3  A    between atoms: C_3  and  C_4
REMARK    4  A    between atoms: C_4  and  C_5
REMARK    5  A    between atoms: C_9  and  C_10
REMARK    6  A    between atoms: C_11  and  C_12
REMARK    7  A    between atoms: C_13  and  C_14
REMARK    8  A    between atoms: C_17  and  O_18
REMARK    9  A    between atoms: O_18  and  C_19
REMARK   10  A    between atoms: C_20  and  O_21
REMARK   11  A    between atoms: O_21  and  C_22
REMARK   12  A    between atoms: C_25  and  C_26
REMARK                            x       y       z     vdW  Elec       q    Type
REMARK                         _______ _______ _______ _____ _____    ______ ____
ROOT
ATOM      1  C   UNL     1       4.318   3.288  17.268  0.00  0.00    +0.000 C 
ATOM      2  O   UNL     1       4.454   3.319  18.680  0.00  0.00    +0.000 OA
ATOM      3  C   UNL     1       5.724   3.822  19.036  0.00  0.00    +0.000 C 
ATOM      4  C   UNL     1       6.064   5.079  18.288  0.00  0.00    +0.000 A 
ATOM      5  C   UNL     1       7.127   5.915  18.693  0.00  0.00    +0.000 A 
ATOM      6  C   UNL     1       7.943   5.518  19.901  0.00  0.00    +0.000 C 
ATOM      7  C   UNL     1       7.373   7.081  17.942  0.00  0.00    +0.000 A 
ATOM      8  N   UNL     1       6.619   7.405  16.854  0.00  0.00    +0.000 NA
ATOM      9  C   UNL     1       5.618   6.576  16.472  0.00  0.00    +0.000 A 
ATOM     10  C   UNL     1       4.830   6.985  15.259  0.00  0.00    +0.000 C 
ATOM     11  C   UNL     1       5.321   5.396  17.151  0.00  0.00    +0.000 A 
ATOM     12  O   UNL     1       4.322   4.596  16.684  0.00  0.00    +0.000 OA
ENDROOT
BRANCH   7  13
ATOM     13  C   UNL     1       8.447   8.059  18.247  0.00  0.00    +0.000 C 
ATOM     14  C   UNL     1       8.266   9.404  18.293  0.00  0.00    +0.000 C 
BRANCH  14  15
ATOM     15  C   UNL     1       9.272  10.423  18.584  0.00  0.00    +0.000 A 
ATOM     16  C   UNL     1       9.510  10.762  19.917  0.00  0.00    +0.000 A 
ATOM     17  C   UNL     1      10.380  11.804  20.240  0.00  0.00    +0.000 A 
ATOM     18  C   UNL     1      11.026  12.531  19.236  0.00  0.00    +0.000 A 
ATOM     19  C   UNL     1      10.781  12.221  17.887  0.00  0.00    +0.000 A 
ATOM     20  C   UNL     1       9.905  11.161  17.577  0.00  0.00    +0.000 A 
BRANCH  18  21
ATOM     21  O   UNL     1      11.842  13.504  19.759  0.00  0.00    +0.000 OA
ATOM     22  C   UNL     1      11.264  14.472  20.617  0.00  0.00    +0.000 C 
ENDBRANCH  18  21
BRANCH  19  23
ATOM     23  O   UNL     1      11.387  12.974  16.913  0.00  0.00    +0.000 OA
ATOM     24  C   UNL     1      11.079  14.360  16.845  0.00  0.00    +0.000 C 
ENDBRANCH  19  23
ENDBRANCH  14  15
ENDBRANCH   7  13
BRANCH   1  25
ATOM     25  C   UNL     1       2.970   2.624  16.999  0.00  0.00    +0.000 C 
BRANCH  25  26
ATOM     26  C   UNL     1       2.199   2.360  18.288  0.00  0.00    +0.000 C 
BRANCH  26  28
ATOM     27  C   UNL     1       0.829   3.660  19.924  0.00  0.00    +0.000 C 
ATOM     28  C   UNL     1       1.036   3.332  18.454  0.00  0.00    +0.000 C 
ENDBRANCH  26  28
ENDBRANCH  25  26
ENDBRANCH   1  25
TORSDOF 7
ENDMDL
MODEL 2
REMARK VINA RESULT:      -7.3      6.946     10.125
REMARK  Name = 
REMARK  12 active torsions:
REMARK  status: ('A' for Active; 'I' for Inactive)
REMARK    1  A    between atoms: C_1  and  C_2
REMARK    2  A    between atoms: C_2  and  C_3
REMARK    3  A    between atoms: C_3  and  C_4
REMARK    4  A    between atoms: C_4  and  C_5
REMARK    5  A    between atoms: C_9  and  C_10
REMARK    6  A    between atoms: C_11  and  C_12
REMARK    7  A    between atoms: C_13  and  C_14
REMARK    8  A    between atoms: C_17  and  O_18
REMARK    9  A    between atoms: O_18  and  C_19
REMARK   10  A    between atoms: C_20  and  O_21
REMARK   11  A    between atoms: O_21  and  C_22
REMARK   12  A    between atoms: C_25  and  C_26
REMARK                            x       y       z     vdW  Elec       q    Type
REMARK                         _______ _______ _______ _____ _____    ______ ____
ROOT
ATOM      1  C   UNL     1      -1.808  11.835  22.415  0.00  0.00    +0.000 C 
ATOM      2  O   UNL     1      -0.853  11.243  23.282  0.00  0.00    +0.000 OA
ATOM      3  C   UNL     1      -0.361  10.046  22.721  0.00  0.00    +0.000 C 
ATOM      4  C   UNL     1       0.034  10.217  21.282  0.00  0.00    +0.000 A 
ATOM      5  C   UNL     1       0.824   9.256  20.614  0.00  0.00    +0.000 A 
ATOM      6  C   UNL     1       1.264   8.025  21.370  0.00  0.00    +0.000 C 
ATOM      7  C   UNL     1       1.159   9.499  19.266  0.00  0.00    +0.000 A 
ATOM      8  N   UNL     1       0.739  10.619  18.614  0.00  0.00    +0.000 NA
ATOM      9  C   UNL     1      -0.035  11.515  19.270  0.00  0.00    +0.000 A 
ATOM     10  C   UNL     1      -0.473  12.725  18.492  0.00  0.00    +0.000 C 
ATOM     11  C   UNL     1      -0.424  11.342  20.597  0.00  0.00    +0.000 A 
ATOM     12  O   UNL     1      -1.235  12.272  21.177  0.00  0.00    +0.000 OA
ENDROOT
BRANCH   7  13
ATOM     13  C   UNL     1       1.984   8.588  18.435  0.00  0.00    +0.000 C 
ATOM     14  C   UNL     1       2.471   7.394  18.861  0.00  0.00    +0.000 C 
BRANCH  14  15
ATOM     15  C   UNL     1       3.287   6.448  18.103  0.00  0.00    +0.000 A 
ATOM     16  C   UNL     1       4.232   6.953  17.207  0.00  0.00    +0.000 A 
ATOM     17  C   UNL     1       4.958   6.094  16.382  0.00  0.00    +0.000 A 
ATOM     18  C   UNL     1       4.752   4.712  16.434  0.00  0.00    +0.000 A 
ATOM     19  C   UNL     1       3.788   4.186  17.312  0.00  0.00    +0.000 A 
ATOM     20  C   UNL     1       3.068   5.067  18.144  0.00  0.00    +0.000 A 
BRANCH  18  21
ATOM     21  O   UNL     1       5.567   4.044  15.554  0.00  0.00    +0.000 OA
ATOM     22  C   UNL     1       6.839   4.598  15.267  0.00  0.00    +0.000 C 
ENDBRANCH  18  21
BRANCH  19  23
ATOM     23  O   UNL     1       3.565   2.832  17.317  0.00  0.00    +0.000 OA
ATOM     24  C   UNL     1       3.250   2.207  18.554  0.00  0.00    +0.000 C 
ENDBRANCH  19  23
ENDBRANCH  14  15
ENDBRANCH   7  13
BRANCH   1  25
ATOM     25  C   UNL     1      -2.353  13.046  23.169  0.00  0.00    +0.000 C 
BRANCH  25  26
ATOM     26  C   UNL     1      -1.248  14.028  23.542  0.00  0.00    +0.000 C 
BRANCH  26  28
ATOM     27  C   UNL     1      -2.990  14.725  25.192  0.00  0.00    +0.000 C 
ATOM     28  C   UNL     1      -1.783  15.179  24.387  0.00  0.00    +0.000 C 
ENDBRANCH  26  28
ENDBRANCH  25  26
ENDBRANCH   1  25
TORSDOF 7
ENDMDL
MODEL 3
REMARK VINA RESULT:      -7.3      6.754     10.027
REMARK  Name = 
REMARK  12 active torsions:
REMARK  status: ('A' for Active; 'I' for Inactive)
REMARK    1  A    between atoms: C_1  and  C_2
REMARK    2  A    between atoms: C_2  and  C_3
REMARK    3  A    between atoms: C_3  and  C_4
REMARK    4  A    between atoms: C_4  and  C_5
REMARK    5  A    between atoms: C_9  and  C_10
REMARK    6  A    between atoms: C_11  and  C_12
REMARK    7  A    between atoms: C_13  and  C_14
REMARK    8  A    between atoms: C_17  and  O_18
REMARK    9  A    between atoms: O_18  and  C_19
REMARK   10  A    between atoms: C_20  and  O_21
REMARK   11  A    between atoms: O_21  and  C_22
REMARK   12  A    between atoms: C_25  and  C_26
REMARK                            x       y       z     vdW  Elec       q    Type
REMARK                         _______ _______ _______ _____ _____    ______ ____
ROOT
ATOM      1  C   UNL     1      -1.831  11.880  22.370  0.00  0.00    +0.000 C 
ATOM      2  O   UNL     1      -0.895  11.280  23.253  0.00  0.00    +0.000 OA
ATOM      3  C   UNL     1      -0.411  10.075  22.703  0.00  0.00    +0.000 C 
ATOM      4  C   UNL     1       0.006  10.234  21.269  0.00  0.00    +0.000 A 
ATOM      5  C   UNL     1       0.792   9.261  20.615  0.00  0.00    +0.000 A 
ATOM      6  C   UNL     1       1.207   8.028  21.383  0.00  0.00    +0.000 C 
ATOM      7  C   UNL     1       1.148   9.493  19.272  0.00  0.00    +0.000 A 
ATOM      8  N   UNL     1       0.751  10.616  18.609  0.00  0.00    +0.000 NA
ATOM      9  C   UNL     1      -0.021  11.524  19.251  0.00  0.00    +0.000 A 
ATOM     10  C   UNL     1      -0.433  12.737  18.462  0.00  0.00    +0.000 C 
ATOM     11  C   UNL     1      -0.430  11.362  20.573  0.00  0.00    +0.000 A 
ATOM     12  O   UNL     1      -1.236  12.304  21.138  0.00  0.00    +0.000 OA
ENDROOT
BRANCH   7  13
ATOM     13  C   UNL     1       1.974   8.569  18.456  0.00  0.00    +0.000 C 
ATOM     14  C   UNL     1       2.537   7.427  18.928  0.00  0.00    +0.000 C 
BRANCH  14  15
ATOM     15  C   UNL     1       3.358   6.472  18.188  0.00  0.00    +0.000 A 
ATOM     16  C   UNL     1       4.215   6.958  17.197  0.00  0.00    +0.000 A 
ATOM     17  C   UNL     1       4.937   6.079  16.391  0.00  0.00    +0.000 A 
ATOM     18  C   UNL     1       4.815   4.696  16.554  0.00  0.00    +0.000 A 
ATOM     19  C   UNL     1       3.939   4.186  17.529  0.00  0.00    +0.000 A 
ATOM     20  C   UNL     1       3.222   5.088  18.341  0.00  0.00    +0.000 A 
BRANCH  18  21
ATOM     21  O   UNL     1       5.612   4.008  15.672  0.00  0.00    +0.000 OA
ATOM     22  C   UNL     1       5.775   4.534  14.367  0.00  0.00    +0.000 C 
ENDBRANCH  18  21
BRANCH  19  23
ATOM     23  O   UNL     1       3.795   2.827  17.645  0.00  0.00    +0.000 OA
ATOM     24  C   UNL     1       2.480   2.290  17.680  0.00  0.00    +0.000 C 
ENDBRANCH  19  23
ENDBRANCH  14  15
ENDBRANCH   7  13
BRANCH   1  25
ATOM     25  C   UNL     1      -2.371  13.101  23.111  0.00  0.00    +0.000 C 
BRANCH  25  26
ATOM     26  C   UNL     1      -3.890  13.062  23.240  0.00  0.00    +0.000 C 
BRANCH  26  28
ATOM     27  C   UNL     1      -6.068  12.859  22.034  0.00  0.00    +0.000 C 
ATOM     28  C   UNL     1      -4.558  12.747  21.907  0.00  0.00    +0.000 C 
ENDBRANCH  26  28
ENDBRANCH  25  26
ENDBRANCH   1  25
TORSDOF 7
ENDMDL
MODEL 4
REMARK VINA RESULT:      -7.1      7.298     10.305
REMARK  Name = 
REMARK  12 active torsions:
REMARK  status: ('A' for Active; 'I' for Inactive)
REMARK    1  A    between atoms: C_1  and  C_2
REMARK    2  A    between atoms: C_2  and  C_3
REMARK    3  A    between atoms: C_3  and  C_4
REMARK    4  A    between atoms: C_4  and  C_5
REMARK    5  A    between atoms: C_9  and  C_10
REMARK    6  A    between atoms: C_11  and  C_12
REMARK    7  A    between atoms: C_13  and  C_14
REMARK    8  A    between atoms: C_17  and  O_18
REMARK    9  A    between atoms: O_18  and  C_19
REMARK   10  A    between atoms: C_20  and  O_21
REMARK   11  A    between atoms: O_21  and  C_22
REMARK   12  A    between atoms: C_25  and  C_26
REMARK                            x       y       z     vdW  Elec       q    Type
REMARK                         _______ _______ _______ _____ _____    ______ ____
ROOT
ATOM      1  C   UNL     1      -2.760  12.423  22.040  0.00  0.00    +0.000 C 
ATOM      2  O   UNL     1      -1.756  12.452  23.043  0.00  0.00    +0.000 OA
ATOM      3  C   UNL     1      -1.049  11.232  23.061  0.00  0.00    +0.000 C 
ATOM      4  C   UNL     1      -0.628  10.802  21.684  0.00  0.00    +0.000 A 
ATOM      5  C   UNL     1       0.338   9.791  21.489  0.00  0.00    +0.000 A 
ATOM      6  C   UNL     1       0.945   9.124  22.700  0.00  0.00    +0.000 C 
ATOM      7  C   UNL     1       0.684   9.456  20.165  0.00  0.00    +0.000 A 
ATOM      8  N   UNL     1       0.111  10.077  19.095  0.00  0.00    +0.000 NA
ATOM      9  C   UNL     1      -0.829  11.028  19.308  0.00  0.00    +0.000 A 
ATOM     10  C   UNL     1      -1.429  11.668  18.087  0.00  0.00    +0.000 C 
ATOM     11  C   UNL     1      -1.238  11.406  20.585  0.00  0.00    +0.000 A 
ATOM     12  O   UNL     1      -2.216  12.347  20.717  0.00  0.00    +0.000 OA
ENDROOT
BRANCH   7  13
ATOM     13  C   UNL     1       1.684   8.422  19.800  0.00  0.00    +0.000 C 
ATOM     14  C   UNL     1       1.994   8.074  18.525  0.00  0.00    +0.000 C 
BRANCH  14  15
ATOM     15  C   UNL     1       2.962   7.069  18.092  0.00  0.00    +0.000 A 
ATOM     16  C   UNL     1       4.002   7.466  17.248  0.00  0.00    +0.000 A 
ATOM     17  C   UNL     1       4.887   6.526  16.721  0.00  0.00    +0.000 A 
ATOM     18  C   UNL     1       4.747   5.168  17.021  0.00  0.00    +0.000 A 
ATOM     19  C   UNL     1       3.692   4.744  17.848  0.00  0.00    +0.000 A 
ATOM     20  C   UNL     1       2.811   5.708  18.380  0.00  0.00    +0.000 A 
BRANCH  18  21
ATOM     21  O   UNL     1       5.718   4.410  16.413  0.00  0.00    +0.000 OA
ATOM     22  C   UNL     1       7.031   4.454  16.943  0.00  0.00    +0.000 C 
ENDBRANCH  18  21
BRANCH  19  23
ATOM     23  O   UNL     1       3.541   3.403  18.096  0.00  0.00    +0.000 OA
ATOM     24  C   UNL     1       3.979   2.897  19.349  0.00  0.00    +0.000 C 
ENDBRANCH  19  23
ENDBRANCH  14  15
ENDBRANCH   7  13
BRANCH   1  25
ATOM     25  C   UNL     1      -3.530  13.732  22.190  0.00  0.00    +0.000 C 
BRANCH  25  26
ATOM     26  C   UNL     1      -5.024  13.496  22.373  0.00  0.00    +0.000 C 
BRANCH  26  28
ATOM     27  C   UNL     1      -6.884  13.106  23.996  0.00  0.00    +0.000 C 
ATOM     28  C   UNL     1      -5.396  13.380  23.847  0.00  0.00    +0.000 C 
ENDBRANCH  26  28
ENDBRANCH  25  26
ENDBRANCH   1  25
TORSDOF 7
ENDMDL
MODEL 5
REMARK VINA RESULT:      -6.9      7.479     10.190
REMARK  Name = 
REMARK  12 active torsions:
REMARK  status: ('A' for Active; 'I' for Inactive)
REMARK    1  A    between atoms: C_1  and  C_2
REMARK    2  A    between atoms: C_2  and  C_3
REMARK    3  A    between atoms: C_3  and  C_4
REMARK    4  A    between atoms: C_4  and  C_5
REMARK    5  A    between atoms: C_9  and  C_10
REMARK    6  A    between atoms: C_11  and  C_12
REMARK    7  A    between atoms: C_13  and  C_14
REMARK    8  A    between atoms: C_17  and  O_18
REMARK    9  A    between atoms: O_18  and  C_19
REMARK   10  A    between atoms: C_20  and  O_21
REMARK   11  A    between atoms: O_21  and  C_22
REMARK   12  A    between atoms: C_25  and  C_26
REMARK                            x       y       z     vdW  Elec       q    Type
REMARK                         _______ _______ _______ _____ _____    ______ ____
ROOT
ATOM      1  C   UNL     1      -4.115  12.048  19.226  0.00  0.00    +0.000 C 
ATOM      2  O   UNL     1      -3.188  12.951  19.807  0.00  0.00    +0.000 OA
ATOM      3  C   UNL     1      -2.041  12.257  20.249  0.00  0.00    +0.000 C 
ATOM      4  C   UNL     1      -1.515  11.313  19.205  0.00  0.00    +0.000 A 
ATOM      5  C   UNL     1      -0.225  10.749  19.303  0.00  0.00    +0.000 A 
ATOM      6  C   UNL     1       0.632  11.099  20.497  0.00  0.00    +0.000 C 
ATOM      7  C   UNL     1       0.195   9.881  18.276  0.00  0.00    +0.000 A 
ATOM      8  N   UNL     1      -0.608   9.583  17.215  0.00  0.00    +0.000 NA
ATOM      9  C   UNL     1      -1.850  10.120  17.155  0.00  0.00    +0.000 A 
ATOM     10  C   UNL     1      -2.689   9.745  15.966  0.00  0.00    +0.000 C 
ATOM     11  C   UNL     1      -2.347  10.974  18.138  0.00  0.00    +0.000 A 
ATOM     12  O   UNL     1      -3.621  11.445  18.024  0.00  0.00    +0.000 OA
ENDROOT
BRANCH   7  13
ATOM     13  C   UNL     1       1.522   9.217  18.235  0.00  0.00    +0.000 C 
ATOM     14  C   UNL     1       1.706   7.873  18.271  0.00  0.00    +0.000 C 
BRANCH  14  15
ATOM     15  C   UNL     1       2.976   7.150  18.236  0.00  0.00    +0.000 A 
ATOM     16  C   UNL     1       3.933   7.532  17.294  0.00  0.00    +0.000 A 
ATOM     17  C   UNL     1       5.114   6.806  17.148  0.00  0.00    +0.000 A 
ATOM     18  C   UNL     1       5.362   5.679  17.939  0.00  0.00    +0.000 A 
ATOM     19  C   UNL     1       4.400   5.264  18.877  0.00  0.00    +0.000 A 
ATOM     20  C   UNL     1       3.214   6.014  19.017  0.00  0.00    +0.000 A 
BRANCH  18  21
ATOM     21  O   UNL     1       6.578   5.112  17.649  0.00  0.00    +0.000 OA
ATOM     22  C   UNL     1       6.749   4.507  16.379  0.00  0.00    +0.000 C 
ENDBRANCH  18  21
BRANCH  19  23
ATOM     23  O   UNL     1       4.637   4.130  19.612  0.00  0.00    +0.000 OA
ATOM     24  C   UNL     1       3.879   2.965  19.315  0.00  0.00    +0.000 C 
ENDBRANCH  19  23
ENDBRANCH  14  15
ENDBRANCH   7  13
BRANCH   1  25
ATOM     25  C   UNL     1      -5.350  12.882  18.896  0.00  0.00    +0.000 C 
BRANCH  25  26
ATOM     26  C   UNL     1      -6.081  12.354  17.667  0.00  0.00    +0.000 C 
BRANCH  26  28
ATOM     27  C   UNL     1      -6.784  14.751  17.726  0.00  0.00    +0.000 C 
ATOM     28  C   UNL     1      -6.762  13.479  16.894  0.00  0.00    +0.000 C 
ENDBRANCH  26  28
ENDBRANCH  25  26
ENDBRANCH   1  25
TORSDOF 7
ENDMDL
MODEL 6
REMARK VINA RESULT:      -6.9      5.755      8.500
REMARK  Name = 
REMARK  12 active torsions:
REMARK  status: ('A' for Active; 'I' for Inactive)
REMARK    1  A    between atoms: C_1  and  C_2
REMARK    2  A    between atoms: C_2  and  C_3
REMARK    3  A    between atoms: C_3  and  C_4
REMARK    4  A    between atoms: C_4  and  C_5
REMARK    5  A    between atoms: C_9  and  C_10
REMARK    6  A    between atoms: C_11  and  C_12
REMARK    7  A    between atoms: C_13  and  C_14
REMARK    8  A    between atoms: C_17  and  O_18
REMARK    9  A    between atoms: O_18  and  C_19
REMARK   10  A    between atoms: C_20  and  O_21
REMARK   11  A    between atoms: O_21  and  C_22
REMARK   12  A    between atoms: C_25  and  C_26
REMARK                            x       y       z     vdW  Elec       q    Type
REMARK                         _______ _______ _______ _____ _____    ______ ____
ROOT
ATOM      1  C   UNL     1       5.462   4.744  15.630  0.00  0.00    +0.000 C 
ATOM      2  O   UNL     1       5.797   6.121  15.544  0.00  0.00    +0.000 OA
ATOM      3  C   UNL     1       4.707   6.914  15.961  0.00  0.00    +0.000 C 
ATOM      4  C   UNL     1       4.119   6.432  17.256  0.00  0.00    +0.000 A 
ATOM      5  C   UNL     1       3.234   7.234  18.009  0.00  0.00    +0.000 A 
ATOM      6  C   UNL     1       2.868   8.602  17.484  0.00  0.00    +0.000 C 
ATOM      7  C   UNL     1       2.736   6.709  19.219  0.00  0.00    +0.000 A 
ATOM      8  N   UNL     1       3.085   5.468  19.660  0.00  0.00    +0.000 NA
ATOM      9  C   UNL     1       3.919   4.710  18.908  0.00  0.00    +0.000 A 
ATOM     10  C   UNL     1       4.258   3.347  19.445  0.00  0.00    +0.000 C 
ATOM     11  C   UNL     1       4.442   5.147  17.693  0.00  0.00    +0.000 A 
ATOM     12  O   UNL     1       5.245   4.311  16.977  0.00  0.00    +0.000 OA
ENDROOT
BRANCH   7  13
ATOM     13  C   UNL     1       1.806   7.432  20.121  0.00  0.00    +0.000 C 
ATOM     14  C   UNL     1       1.588   8.772  20.080  0.00  0.00    +0.000 C 
BRANCH  14  15
ATOM     15  C   UNL     1       0.691   9.550  20.933  0.00  0.00    +0.000 A 
ATOM     16  C   UNL     1       0.566   9.186  22.275  0.00  0.00    +0.000 A 
ATOM     17  C   UNL     1      -0.356   9.827  23.101  0.00  0.00    +0.000 A 
ATOM     18  C   UNL     1      -1.177  10.843  22.601  0.00  0.00    +0.000 A 
ATOM     19  C   UNL     1      -1.083  11.207  21.246  0.00  0.00    +0.000 A 
ATOM     20  C   UNL     1      -0.141  10.555  20.426  0.00  0.00    +0.000 A 
BRANCH  18  21
ATOM     21  O   UNL     1      -2.006  11.350  23.571  0.00  0.00    +0.000 OA
ATOM     22  C   UNL     1      -2.567  12.635  23.367  0.00  0.00    +0.000 C 
ENDBRANCH  18  21
BRANCH  19  23
ATOM     23  O   UNL     1      -1.928  12.173  20.760  0.00  0.00    +0.000 OA
ATOM     24  C   UNL     1      -2.394  12.048  19.423  0.00  0.00    +0.000 C 
ENDBRANCH  19  23
ENDBRANCH  14  15
ENDBRANCH   7  13
BRANCH   1  25
ATOM     25  C   UNL     1       6.659   3.994  15.049  0.00  0.00    +0.000 C 
BRANCH  25  26
ATOM     26  C   UNL     1       6.685   4.057  13.527  0.00  0.00    +0.000 C 
BRANCH  26  28
ATOM     27  C   UNL     1       5.470   2.734  11.790  0.00  0.00    +0.000 C 
ATOM     28  C   UNL     1       5.322   3.731  12.928  0.00  0.00    +0.000 C 
ENDBRANCH  26  28
ENDBRANCH  25  26
ENDBRANCH   1  25
TORSDOF 7
ENDMDL
MODEL 7
REMARK VINA RESULT:      -6.8      6.862     10.278
REMARK  Name = 
REMARK  12 active torsions:
REMARK  status: ('A' for Active; 'I' for Inactive)
REMARK    1  A    between atoms: C_1  and  C_2
REMARK    2  A    between atoms: C_2  and  C_3
REMARK    3  A    between atoms: C_3  and  C_4
REMARK    4  A    between atoms: C_4  and  C_5
REMARK    5  A    between atoms: C_9  and  C_10
REMARK    6  A    between atoms: C_11  and  C_12
REMARK    7  A    between atoms: C_13  and  C_14
REMARK    8  A    between atoms: C_17  and  O_18
REMARK    9  A    between atoms: O_18  and  C_19
REMARK   10  A    between atoms: C_20  and  O_21
REMARK   11  A    between atoms: O_21  and  C_22
REMARK   12  A    between atoms: C_25  and  C_26
REMARK                            x       y       z     vdW  Elec       q    Type
REMARK                         _______ _______ _______ _____ _____    ______ ____
ROOT
ATOM      1  C   UNL     1      -1.515  12.580  21.084  0.00  0.00    +0.000 C 
ATOM      2  O   UNL     1      -1.917  12.228  19.769  0.00  0.00    +0.000 OA
ATOM      3  C   UNL     1      -0.846  11.623  19.078  0.00  0.00    +0.000 C 
ATOM      4  C   UNL     1      -0.174  10.558  19.897  0.00  0.00    +0.000 A 
ATOM      5  C   UNL     1       0.707   9.623  19.312  0.00  0.00    +0.000 A 
ATOM      6  C   UNL     1       0.985   9.714  17.830  0.00  0.00    +0.000 C 
ATOM      7  C   UNL     1       1.287   8.649  20.150  0.00  0.00    +0.000 A 
ATOM      8  N   UNL     1       1.017   8.600  21.486  0.00  0.00    +0.000 NA
ATOM      9  C   UNL     1       0.184   9.521  22.026  0.00  0.00    +0.000 A 
ATOM     10  C   UNL     1      -0.065   9.418  23.505  0.00  0.00    +0.000 C 
ATOM     11  C   UNL     1      -0.416  10.526  21.270  0.00  0.00    +0.000 A 
ATOM     12  O   UNL     1      -1.214  11.438  21.894  0.00  0.00    +0.000 OA
ENDROOT
BRANCH   7  13
ATOM     13  C   UNL     1       2.225   7.599  19.684  0.00  0.00    +0.000 C 
ATOM     14  C   UNL     1       2.535   7.374  18.381  0.00  0.00    +0.000 C 
BRANCH  14  15
ATOM     15  C   UNL     1       3.445   6.362  17.848  0.00  0.00    +0.000 A 
ATOM     16  C   UNL     1       4.393   6.752  16.899  0.00  0.00    +0.000 A 
ATOM     17  C   UNL     1       5.210   5.806  16.282  0.00  0.00    +0.000 A 
ATOM     18  C   UNL     1       5.093   4.449  16.597  0.00  0.00    +0.000 A 
ATOM     19  C   UNL     1       4.129   4.033  17.532  0.00  0.00    +0.000 A 
ATOM     20  C   UNL     1       3.316   5.003  18.152  0.00  0.00    +0.000 A 
BRANCH  18  21
ATOM     21  O   UNL     1       5.989   3.685  15.890  0.00  0.00    +0.000 OA
ATOM     22  C   UNL     1       6.212   4.004  14.528  0.00  0.00    +0.000 C 
ENDBRANCH  18  21
BRANCH  19  23
ATOM     23  O   UNL     1       3.996   2.693  17.795  0.00  0.00    +0.000 OA
ATOM     24  C   UNL     1       2.687   2.141  17.833  0.00  0.00    +0.000 C 
ENDBRANCH  19  23
ENDBRANCH  14  15
ENDBRANCH   7  13
BRANCH   1  25
ATOM     25  C   UNL     1      -2.702  13.325  21.691  0.00  0.00    +0.000 C 
BRANCH  25  26
ATOM     26  C   UNL     1      -2.355  14.771  22.025  0.00  0.00    +0.000 C 
BRANCH  26  28
ATOM     27  C   UNL     1      -4.143  14.301  23.706  0.00  0.00    +0.000 C 
ATOM     28  C   UNL     1      -3.382  15.390  22.967  0.00  0.00    +0.000 C 
ENDBRANCH  26  28
ENDBRANCH  25  26
ENDBRANCH   1  25
TORSDOF 7
ENDMDL
MODEL 8
REMARK VINA RESULT:      -6.8      7.542     10.540
REMARK  Name = 
REMARK  12 active torsions:
REMARK  status: ('A' for Active; 'I' for Inactive)
REMARK    1  A    between atoms: C_1  and  C_2
REMARK    2  A    between atoms: C_2  and  C_3
REMARK    3  A    between atoms: C_3  and  C_4
REMARK    4  A    between atoms: C_4  and  C_5
REMARK    5  A    between atoms: C_9  and  C_10
REMARK    6  A    between atoms: C_11  and  C_12
REMARK    7  A    between atoms: C_13  and  C_14
REMARK    8  A    between atoms: C_17  and  O_18
REMARK    9  A    between atoms: O_18  and  C_19
REMARK   10  A    between atoms: C_20  and  O_21
REMARK   11  A    between atoms: O_21  and  C_22
REMARK   12  A    between atoms: C_25  and  C_26
REMARK                            x       y       z     vdW  Elec       q    Type
REMARK                         _______ _______ _______ _____ _____    ______ ____
ROOT
ATOM      1  C   UNL     1      -2.676  12.646  22.008  0.00  0.00    +0.000 C 
ATOM      2  O   UNL     1      -1.724  12.564  23.057  0.00  0.00    +0.000 OA
ATOM      3  C   UNL     1      -1.105  11.296  23.056  0.00  0.00    +0.000 C 
ATOM      4  C   UNL     1      -0.648  10.891  21.684  0.00  0.00    +0.000 A 
ATOM      5  C   UNL     1       0.253   9.822  21.491  0.00  0.00    +0.000 A 
ATOM      6  C   UNL     1       0.751   9.065  22.700  0.00  0.00    +0.000 C 
ATOM      7  C   UNL     1       0.639   9.514  20.171  0.00  0.00    +0.000 A 
ATOM      8  N   UNL     1       0.164  10.216  19.103  0.00  0.00    +0.000 NA
ATOM      9  C   UNL     1      -0.715  11.223  19.313  0.00  0.00    +0.000 A 
ATOM     10  C   UNL     1      -1.208  11.952  18.093  0.00  0.00    +0.000 C 
ATOM     11  C   UNL     1      -1.160  11.580  20.584  0.00  0.00    +0.000 A 
ATOM     12  O   UNL     1      -2.075  12.583  20.710  0.00  0.00    +0.000 OA
ENDROOT
BRANCH   7  13
ATOM     13  C   UNL     1       1.580   8.425  19.810  0.00  0.00    +0.000 C 
ATOM     14  C   UNL     1       1.945   8.120  18.539  0.00  0.00    +0.000 C 
BRANCH  14  15
ATOM     15  C   UNL     1       2.862   7.067  18.108  0.00  0.00    +0.000 A 
ATOM     16  C   UNL     1       3.953   7.418  17.310  0.00  0.00    +0.000 A 
ATOM     17  C   UNL     1       4.793   6.437  16.785  0.00  0.00    +0.000 A 
ATOM     18  C   UNL     1       4.558   5.083  17.043  0.00  0.00    +0.000 A 
ATOM     19  C   UNL     1       3.450   4.707  17.825  0.00  0.00    +0.000 A 
ATOM     20  C   UNL     1       2.615   5.711  18.354  0.00  0.00    +0.000 A 
BRANCH  18  21
ATOM     21  O   UNL     1       5.498   4.281  16.445  0.00  0.00    +0.000 OA
ATOM     22  C   UNL     1       6.746   4.856  16.099  0.00  0.00    +0.000 C 
ENDBRANCH  18  21
BRANCH  19  23
ATOM     23  O   UNL     1       3.207   3.372  18.030  0.00  0.00    +0.000 OA
ATOM     24  C   UNL     1       3.640   2.790  19.252  0.00  0.00    +0.000 C 
ENDBRANCH  19  23
ENDBRANCH  14  15
ENDBRANCH   7  13
BRANCH   1  25
ATOM     25  C   UNL     1      -3.358  14.002  22.177  0.00  0.00    +0.000 C 
BRANCH  25  26
ATOM     26  C   UNL     1      -2.786  14.784  23.354  0.00  0.00    +0.000 C 
BRANCH  26  28
ATOM     27  C   UNL     1      -4.071  16.531  24.594  0.00  0.00    +0.000 C 
ATOM     28  C   UNL     1      -3.841  15.038  24.424  0.00  0.00    +0.000 C 
ENDBRANCH  26  28
ENDBRANCH  25  26
ENDBRANCH   1  25
TORSDOF 7
ENDMDL
MODEL 9
REMARK VINA RESULT:      -6.8      7.405      9.764
REMARK  Name = 
REMARK  12 active torsions:
REMARK  status: ('A' for Active; 'I' for Inactive)
REMARK    1  A    between atoms: C_1  and  C_2
REMARK    2  A    between atoms: C_2  and  C_3
REMARK    3  A    between atoms: C_3  and  C_4
REMARK    4  A    between atoms: C_4  and  C_5
REMARK    5  A    between atoms: C_9  and  C_10
REMARK    6  A    between atoms: C_11  and  C_12
REMARK    7  A    between atoms: C_13  and  C_14
REMARK    8  A    between atoms: C_17  and  O_18
REMARK    9  A    between atoms: O_18  and  C_19
REMARK   10  A    between atoms: C_20  and  O_21
REMARK   11  A    between atoms: O_21  and  C_22
REMARK   12  A    between atoms: C_25  and  C_26
REMARK                            x       y       z     vdW  Elec       q    Type
REMARK                         _______ _______ _______ _____ _____    ______ ____
ROOT
ATOM      1  C   UNL     1      -3.931  12.119  19.582  0.00  0.00    +0.000 C 
ATOM      2  O   UNL     1      -2.951  12.972  20.152  0.00  0.00    +0.000 OA
ATOM      3  C   UNL     1      -1.817  12.225  20.533  0.00  0.00    +0.000 C 
ATOM      4  C   UNL     1      -1.363  11.291  19.448  0.00  0.00    +0.000 A 
ATOM      5  C   UNL     1      -0.092  10.678  19.484  0.00  0.00    +0.000 A 
ATOM      6  C   UNL     1       0.819  10.965  20.654  0.00  0.00    +0.000 C 
ATOM      7  C   UNL     1       0.259   9.824  18.420  0.00  0.00    +0.000 A 
ATOM      8  N   UNL     1      -0.592   9.583  17.382  0.00  0.00    +0.000 NA
ATOM      9  C   UNL     1      -1.814  10.167  17.382  0.00  0.00    +0.000 A 
ATOM     10  C   UNL     1      -2.709   9.855  16.214  0.00  0.00    +0.000 C 
ATOM     11  C   UNL     1      -2.244  11.011  18.403  0.00  0.00    +0.000 A 
ATOM     12  O   UNL     1      -3.503  11.531  18.348  0.00  0.00    +0.000 OA
ENDROOT
BRANCH   7  13
ATOM     13  C   UNL     1       1.557   9.114  18.314  0.00  0.00    +0.000 C 
ATOM     14  C   UNL     1       1.697   7.764  18.361  0.00  0.00    +0.000 C 
BRANCH  14  15
ATOM     15  C   UNL     1       2.938   6.998  18.265  0.00  0.00    +0.000 A 
ATOM     16  C   UNL     1       3.335   6.232  19.364  0.00  0.00    +0.000 A 
ATOM     17  C   UNL     1       4.563   5.572  19.361  0.00  0.00    +0.000 A 
ATOM     18  C   UNL     1       5.422   5.666  18.262  0.00  0.00    +0.000 A 
ATOM     19  C   UNL     1       5.052   6.452  17.156  0.00  0.00    +0.000 A 
ATOM     20  C   UNL     1       3.804   7.107  17.171  0.00  0.00    +0.000 A 
BRANCH  18  21
ATOM     21  O   UNL     1       6.572   4.939  18.452  0.00  0.00    +0.000 OA
ATOM     22  C   UNL     1       7.699   5.601  19.001  0.00  0.00    +0.000 C 
ENDBRANCH  18  21
BRANCH  19  23
ATOM     23  O   UNL     1       5.926   6.571  16.106  0.00  0.00    +0.000 OA
ATOM     24  C   UNL     1       5.985   5.516  15.156  0.00  0.00    +0.000 C 
ENDBRANCH  19  23
ENDBRANCH  14  15
ENDBRANCH   7  13
BRANCH   1  25
ATOM     25  C   UNL     1      -5.146  13.005  19.319  0.00  0.00    +0.000 C 
BRANCH  25  26
ATOM     26  C   UNL     1      -5.848  12.637  18.017  0.00  0.00    +0.000 C 
BRANCH  26  28
ATOM     27  C   UNL     1      -7.786  13.601  19.265  0.00  0.00    +0.000 C 
ATOM     28  C   UNL     1      -7.363  12.621  18.183  0.00  0.00    +0.000 C 
ENDBRANCH  26  28
ENDBRANCH  25  26
ENDBRANCH   1  25
TORSDOF 7
ENDMDL
