MODEL 1
REMARK VINA RESULT:      -7.8      0.000      0.000
REMARK  Name = 
REMARK  7 active torsions:
REMARK  status: ('A' for Active; 'I' for Inactive)
REMARK    1  A    between atoms: C_1  and  N_2
REMARK    2  A    between atoms: C_7  and  C_8
REMARK    3  A    between atoms: C_8  and  O_10
REMARK    4  A    between atoms: O_10  and  C_11
REMARK    5  A    between atoms: C_17  and  O_18
REMARK    6  A    between atoms: O_18  and  C_19
REMARK    7  A    between atoms: C_19  and  C_21
REMARK                            x       y       z     vdW  Elec       q    Type
REMARK                         _______ _______ _______ _____ _____    ______ ____
ROOT
ATOM      1  C   UNL     1       6.869   4.816  13.761  0.00  0.00    +0.000 C 
ATOM      2  N   UNL     1       5.973   4.739  14.906  0.00  0.00    +0.000 NA
ATOM      3  C   UNL     1       6.406   3.721  15.869  0.00  0.00    +0.000 C 
ATOM      4  C   UNL     1       7.424   4.456  16.740  0.00  0.00    +0.000 C 
ATOM      5  C   UNL     1       7.000   5.919  16.720  0.00  0.00    +0.000 C 
ATOM      6  C   UNL     1       5.822   5.957  15.746  0.00  0.00    +0.000 C 
ATOM      7  C   UNL     1       4.473   5.820  16.505  0.00  0.00    +0.000 C 
ATOM      8  C   UNL     1       4.340   4.444  17.212  0.00  0.00    +0.000 C 
ATOM      9  C   UNL     1       5.070   3.299  16.495  0.00  0.00    +0.000 C 
ENDROOT
BRANCH   7  10
ATOM     10  C   UNL     1       4.145   6.935  17.499  0.00  0.00    +0.000 C 
ATOM     11  O   UNL     1       4.922   7.842  17.784  0.00  0.00    +0.000 OA
BRANCH  10  12
ATOM     12  O   UNL     1       2.876   6.771  18.062  0.00  0.00    +0.000 OA
BRANCH  12  13
ATOM     13  C   UNL     1       2.152   7.813  18.701  0.00  0.00    +0.000 A 
ATOM     14  C   UNL     1       1.704   8.832  17.851  0.00  0.00    +0.000 A 
ATOM     15  C   UNL     1       0.971   9.903  18.370  0.00  0.00    +0.000 A 
ATOM     16  C   UNL     1       0.678   9.952  19.727  0.00  0.00    +0.000 A 
ATOM     17  C   UNL     1       1.112   8.937  20.577  0.00  0.00    +0.000 A 
ATOM     18  C   UNL     1       1.848   7.856  20.059  0.00  0.00    +0.000 A 
ENDBRANCH  12  13
ENDBRANCH  10  12
ENDBRANCH   7  10
BRANCH   8  19
ATOM     19  O   UNL     1       4.866   4.473  18.556  0.00  0.00    +0.000 OA
BRANCH  19  20
ATOM     20  C   UNL     1       4.506   3.411  19.326  0.00  0.00    +0.000 C 
ATOM     21  O   UNL     1       5.264   2.648  19.908  0.00  0.00    +0.000 OA
BRANCH  20  22
ATOM     22  C   UNL     1       3.037   3.344  19.476  0.00  0.00    +0.000 A 
ATOM     23  C   UNL     1       2.432   4.245  20.363  0.00  0.00    +0.000 A 
ATOM     24  C   UNL     1       1.050   4.223  20.550  0.00  0.00    +0.000 A 
ATOM     25  C   UNL     1       0.271   3.299  19.857  0.00  0.00    +0.000 A 
ATOM     26  C   UNL     1       0.866   2.403  18.967  0.00  0.00    +0.000 A 
ATOM     27  C   UNL     1       2.250   2.423  18.775  0.00  0.00    +0.000 A 
ENDBRANCH  20  22
ENDBRANCH  19  20
ENDBRANCH   8  19
TORSDOF 6
ENDMDL
MODEL 2
REMARK VINA RESULT:      -7.7      2.078      4.955
REMARK  Name = 
REMARK  7 active torsions:
REMARK  status: ('A' for Active; 'I' for Inactive)
REMARK    1  A    between atoms: C_1  and  N_2
REMARK    2  A    between atoms: C_7  and  C_8
REMARK    3  A    between atoms: C_8  and  O_10
REMARK    4  A    between atoms: O_10  and  C_11
REMARK    5  A    between atoms: C_17  and  O_18
REMARK    6  A    between atoms: O_18  and  C_19
REMARK    7  A    between atoms: C_19  and  C_21
REMARK                            x       y       z     vdW  Elec       q    Type
REMARK                         _______ _______ _______ _____ _____    ______ ____
ROOT
ATOM      1  C   UNL     1       1.485   2.509  21.816  0.00  0.00    +0.000 C 
ATOM      2  N   UNL     1       2.368   3.256  20.931  0.00  0.00    +0.000 NA
ATOM      3  C   UNL     1       3.029   2.382  19.956  0.00  0.00    +0.000 C 
ATOM      4  C   UNL     1       2.013   2.275  18.819  0.00  0.00    +0.000 C 
ATOM      5  C   UNL     1       1.222   3.576  18.852  0.00  0.00    +0.000 C 
ATOM      6  C   UNL     1       1.758   4.312  20.081  0.00  0.00    +0.000 C 
ATOM      7  C   UNL     1       2.899   5.290  19.684  0.00  0.00    +0.000 C 
ATOM      8  C   UNL     1       4.136   4.542  19.117  0.00  0.00    +0.000 C 
ATOM      9  C   UNL     1       4.340   3.138  19.702  0.00  0.00    +0.000 C 
ENDROOT
BRANCH   7  10
ATOM     10  C   UNL     1       2.512   6.424  18.733  0.00  0.00    +0.000 C 
ATOM     11  O   UNL     1       2.125   6.245  17.582  0.00  0.00    +0.000 OA
BRANCH  10  12
ATOM     12  O   UNL     1       2.685   7.678  19.326  0.00  0.00    +0.000 OA
BRANCH  12  13
ATOM     13  C   UNL     1       1.641   8.409  19.954  0.00  0.00    +0.000 A 
ATOM     14  C   UNL     1       1.144   9.488  19.214  0.00  0.00    +0.000 A 
ATOM     15  C   UNL     1       0.106  10.270  19.730  0.00  0.00    +0.000 A 
ATOM     16  C   UNL     1      -0.437   9.972  20.973  0.00  0.00    +0.000 A 
ATOM     17  C   UNL     1       0.047   8.894  21.711  0.00  0.00    +0.000 A 
ATOM     18  C   UNL     1       1.088   8.102  21.195  0.00  0.00    +0.000 A 
ENDBRANCH  12  13
ENDBRANCH  10  12
ENDBRANCH   7  10
BRANCH   8  19
ATOM     19  O   UNL     1       4.054   4.370  17.686  0.00  0.00    +0.000 OA
BRANCH  19  20
ATOM     20  C   UNL     1       5.258   4.250  17.062  0.00  0.00    +0.000 C 
ATOM     21  O   UNL     1       5.562   3.408  16.230  0.00  0.00    +0.000 OA
BRANCH  20  22
ATOM     22  C   UNL     1       6.158   5.361  17.439  0.00  0.00    +0.000 A 
ATOM     23  C   UNL     1       7.195   5.083  18.340  0.00  0.00    +0.000 A 
ATOM     24  C   UNL     1       8.070   6.093  18.736  0.00  0.00    +0.000 A 
ATOM     25  C   UNL     1       7.909   7.385  18.238  0.00  0.00    +0.000 A 
ATOM     26  C   UNL     1       6.883   7.668  17.334  0.00  0.00    +0.000 A 
ATOM     27  C   UNL     1       6.005   6.657  16.932  0.00  0.00    +0.000 A 
ENDBRANCH  20  22
ENDBRANCH  19  20
ENDBRANCH   8  19
TORSDOF 6
ENDMDL
MODEL 3
REMARK VINA RESULT:      -7.7      1.787      4.879
REMARK  Name = 
REMARK  7 active torsions:
REMARK  status: ('A' for Active; 'I' for Inactive)
REMARK    1  A    between atoms: C_1  and  N_2
REMARK    2  A    between atoms: C_7  and  C_8
REMARK    3  A    between atoms: C_8  and  O_10
REMARK    4  A    between atoms: O_10  and  C_11
REMARK    5  A    between atoms: C_17  and  O_18
REMARK    6  A    between atoms: O_18  and  C_19
REMARK    7  A    between atoms: C_19  and  C_21
REMARK                            x       y       z     vdW  Elec       q    Type
REMARK                         _______ _______ _______ _____ _____    ______ ____
ROOT
ATOM      1  C   UNL     1       1.324   2.832  20.774  0.00  0.00    +0.000 C 
ATOM      2  N   UNL     1       2.478   3.475  20.162  0.00  0.00    +0.000 NA
ATOM      3  C   UNL     1       3.242   2.543  19.326  0.00  0.00    +0.000 C 
ATOM      4  C   UNL     1       2.523   2.594  17.977  0.00  0.00    +0.000 C 
ATOM      5  C   UNL     1       1.913   3.987  17.891  0.00  0.00    +0.000 C 
ATOM      6  C   UNL     1       2.224   4.620  19.248  0.00  0.00    +0.000 C 
ATOM      7  C   UNL     1       3.538   5.448  19.182  0.00  0.00    +0.000 C 
ATOM      8  C   UNL     1       4.774   4.556  18.885  0.00  0.00    +0.000 C 
ATOM      9  C   UNL     1       4.658   3.125  19.428  0.00  0.00    +0.000 C 
ENDROOT
BRANCH   7  10
ATOM     10  C   UNL     1       3.532   6.643  18.228  0.00  0.00    +0.000 C 
ATOM     11  O   UNL     1       4.540   7.081  17.680  0.00  0.00    +0.000 OA
BRANCH  10  12
ATOM     12  O   UNL     1       2.253   7.187  18.087  0.00  0.00    +0.000 OA
BRANCH  12  13
ATOM     13  C   UNL     1       1.780   8.302  18.830  0.00  0.00    +0.000 A 
ATOM     14  C   UNL     1       1.585   9.471  18.085  0.00  0.00    +0.000 A 
ATOM     15  C   UNL     1       1.111  10.628  18.712  0.00  0.00    +0.000 A 
ATOM     16  C   UNL     1       0.824  10.615  20.070  0.00  0.00    +0.000 A 
ATOM     17  C   UNL     1       1.006   9.451  20.816  0.00  0.00    +0.000 A 
ATOM     18  C   UNL     1       1.480   8.285  20.190  0.00  0.00    +0.000 A 
ENDBRANCH  12  13
ENDBRANCH  10  12
ENDBRANCH   7  10
BRANCH   8  19
ATOM     19  O   UNL     1       5.018   4.427  17.468  0.00  0.00    +0.000 OA
BRANCH  19  20
ATOM     20  C   UNL     1       6.332   4.466  17.116  0.00  0.00    +0.000 C 
ATOM     21  O   UNL     1       7.288   4.433  17.878  0.00  0.00    +0.000 OA
BRANCH  20  22
ATOM     22  C   UNL     1       6.484   4.442  15.645  0.00  0.00    +0.000 A 
ATOM     23  C   UNL     1       5.541   3.715  14.905  0.00  0.00    +0.000 A 
ATOM     24  C   UNL     1       5.638   3.651  13.516  0.00  0.00    +0.000 A 
ATOM     25  C   UNL     1       6.678   4.309  12.862  0.00  0.00    +0.000 A 
ATOM     26  C   UNL     1       7.617   5.041  13.592  0.00  0.00    +0.000 A 
ATOM     27  C   UNL     1       7.522   5.109  14.985  0.00  0.00    +0.000 A 
ENDBRANCH  20  22
ENDBRANCH  19  20
ENDBRANCH   8  19
TORSDOF 6
ENDMDL
MODEL 4
REMARK VINA RESULT:      -7.7      2.087      5.056
REMARK  Name = 
REMARK  7 active torsions:
REMARK  status: ('A' for Active; 'I' for Inactive)
REMARK    1  A    between atoms: C_1  and  N_2
REMARK    2  A    between atoms: C_7  and  C_8
REMARK    3  A    between atoms: C_8  and  O_10
REMARK    4  A    between atoms: O_10  and  C_11
REMARK    5  A    between atoms: C_17  and  O_18
REMARK    6  A    between atoms: O_18  and  C_19
REMARK    7  A    between atoms: C_19  and  C_21
REMARK                            x       y       z     vdW  Elec       q    Type
REMARK                         _______ _______ _______ _____ _____    ______ ____
ROOT
ATOM      1  C   UNL     1       1.502   2.473  21.853  0.00  0.00    +0.000 C 
ATOM      2  N   UNL     1       2.382   3.255  20.997  0.00  0.00    +0.000 NA
ATOM      3  C   UNL     1       2.999   2.432  19.951  0.00  0.00    +0.000 C 
ATOM      4  C   UNL     1       1.954   2.423  18.835  0.00  0.00    +0.000 C 
ATOM      5  C   UNL     1       1.197   3.737  18.972  0.00  0.00    +0.000 C 
ATOM      6  C   UNL     1       1.779   4.379  20.232  0.00  0.00    +0.000 C 
ATOM      7  C   UNL     1       2.935   5.353  19.871  0.00  0.00    +0.000 C 
ATOM      8  C   UNL     1       4.139   4.616  19.227  0.00  0.00    +0.000 C 
ATOM      9  C   UNL     1       4.322   3.172  19.715  0.00  0.00    +0.000 C 
ENDROOT
BRANCH   7  10
ATOM     10  C   UNL     1       2.554   6.556  19.006  0.00  0.00    +0.000 C 
ATOM     11  O   UNL     1       2.321   6.482  17.803  0.00  0.00    +0.000 OA
BRANCH  10  12
ATOM     12  O   UNL     1       2.539   7.742  19.746  0.00  0.00    +0.000 OA
BRANCH  12  13
ATOM     13  C   UNL     1       1.473   8.680  19.717  0.00  0.00    +0.000 A 
ATOM     14  C   UNL     1       0.756   8.800  20.914  0.00  0.00    +0.000 A 
ATOM     15  C   UNL     1      -0.308   9.703  21.003  0.00  0.00    +0.000 A 
ATOM     16  C   UNL     1      -0.648  10.488  19.909  0.00  0.00    +0.000 A 
ATOM     17  C   UNL     1       0.067  10.380  18.718  0.00  0.00    +0.000 A 
ATOM     18  C   UNL     1       1.140   9.476  18.623  0.00  0.00    +0.000 A 
ENDBRANCH  12  13
ENDBRANCH  10  12
ENDBRANCH   7  10
BRANCH   8  19
ATOM     19  O   UNL     1       4.020   4.539  17.790  0.00  0.00    +0.000 OA
BRANCH  19  20
ATOM     20  C   UNL     1       5.202   4.382  17.134  0.00  0.00    +0.000 C 
ATOM     21  O   UNL     1       5.442   3.561  16.260  0.00  0.00    +0.000 OA
BRANCH  20  22
ATOM     22  C   UNL     1       6.169   5.427  17.534  0.00  0.00    +0.000 A 
ATOM     23  C   UNL     1       6.054   6.686  16.928  0.00  0.00    +0.000 A 
ATOM     24  C   UNL     1       6.942   7.708  17.260  0.00  0.00    +0.000 A 
ATOM     25  C   UNL     1       7.950   7.474  18.195  0.00  0.00    +0.000 A 
ATOM     26  C   UNL     1       8.066   6.225  18.807  0.00  0.00    +0.000 A 
ATOM     27  C   UNL     1       7.176   5.198  18.478  0.00  0.00    +0.000 A 
ENDBRANCH  20  22
ENDBRANCH  19  20
ENDBRANCH   8  19
TORSDOF 6
ENDMDL
MODEL 5
REMARK VINA RESULT:      -7.6      1.803      4.877
REMARK  Name = 
REMARK  7 active torsions:
REMARK  status: ('A' for Active; 'I' for Inactive)
REMARK    1  A    between atoms: C_1  and  N_2
REMARK    2  A    between atoms: C_7  and  C_8
REMARK    3  A    between atoms: C_8  and  O_10
REMARK    4  A    between atoms: O_10  and  C_11
REMARK    5  A    between atoms: C_17  and  O_18
REMARK    6  A    between atoms: O_18  and  C_19
REMARK    7  A    between atoms: C_19  and  C_21
REMARK                            x       y       z     vdW  Elec       q    Type
REMARK                         _______ _______ _______ _____ _____    ______ ____
ROOT
ATOM      1  C   UNL     1       1.606   2.662  20.290  0.00  0.00    +0.000 C 
ATOM      2  N   UNL     1       2.681   3.438  19.689  0.00  0.00    +0.000 NA
ATOM      3  C   UNL     1       3.455   2.645  18.729  0.00  0.00    +0.000 C 
ATOM      4  C   UNL     1       2.661   2.775  17.429  0.00  0.00    +0.000 C 
ATOM      5  C   UNL     1       1.959   4.124  17.510  0.00  0.00    +0.000 C 
ATOM      6  C   UNL     1       2.304   4.645  18.906  0.00  0.00    +0.000 C 
ATOM      7  C   UNL     1       3.556   5.564  18.858  0.00  0.00    +0.000 C 
ATOM      8  C   UNL     1       4.828   4.792  18.414  0.00  0.00    +0.000 C 
ATOM      9  C   UNL     1       4.834   3.311  18.818  0.00  0.00    +0.000 C 
ENDROOT
BRANCH   7  10
ATOM     10  C   UNL     1       3.421   6.841  18.027  0.00  0.00    +0.000 C 
ATOM     11  O   UNL     1       4.348   7.347  17.401  0.00  0.00    +0.000 OA
BRANCH  10  12
ATOM     12  O   UNL     1       2.130   7.371  18.100  0.00  0.00    +0.000 OA
BRANCH  12  13
ATOM     13  C   UNL     1       1.708   8.295  19.094  0.00  0.00    +0.000 A 
ATOM     14  C   UNL     1       1.403   9.577  18.620  0.00  0.00    +0.000 A 
ATOM     15  C   UNL     1       0.966  10.564  19.509  0.00  0.00    +0.000 A 
ATOM     16  C   UNL     1       0.825  10.271  20.859  0.00  0.00    +0.000 A 
ATOM     17  C   UNL     1       1.117   8.994  21.336  0.00  0.00    +0.000 A 
ATOM     18  C   UNL     1       1.555   7.997  20.446  0.00  0.00    +0.000 A 
ENDBRANCH  12  13
ENDBRANCH  10  12
ENDBRANCH   7  10
BRANCH   8  19
ATOM     19  O   UNL     1       5.001   4.815  16.981  0.00  0.00    +0.000 OA
BRANCH  19  20
ATOM     20  C   UNL     1       6.298   4.849  16.569  0.00  0.00    +0.000 C 
ATOM     21  O   UNL     1       7.281   4.990  17.283  0.00  0.00    +0.000 OA
BRANCH  20  22
ATOM     22  C   UNL     1       6.397   4.577  15.119  0.00  0.00    +0.000 A 
ATOM     23  C   UNL     1       7.471   5.148  14.422  0.00  0.00    +0.000 A 
ATOM     24  C   UNL     1       7.611   4.931  13.052  0.00  0.00    +0.000 A 
ATOM     25  C   UNL     1       6.677   4.150  12.374  0.00  0.00    +0.000 A 
ATOM     26  C   UNL     1       5.609   3.573  13.063  0.00  0.00    +0.000 A 
ATOM     27  C   UNL     1       5.466   3.786  14.437  0.00  0.00    +0.000 A 
ENDBRANCH  20  22
ENDBRANCH  19  20
ENDBRANCH   8  19
TORSDOF 6
ENDMDL
MODEL 6
REMARK VINA RESULT:      -7.5      1.912      4.965
REMARK  Name = 
REMARK  7 active torsions:
REMARK  status: ('A' for Active; 'I' for Inactive)
REMARK    1  A    between atoms: C_1  and  N_2
REMARK    2  A    between atoms: C_7  and  C_8
REMARK    3  A    between atoms: C_8  and  O_10
REMARK    4  A    between atoms: O_10  and  C_11
REMARK    5  A    between atoms: C_17  and  O_18
REMARK    6  A    between atoms: O_18  and  C_19
REMARK    7  A    between atoms: C_19  and  C_21
REMARK                            x       y       z     vdW  Elec       q    Type
REMARK                         _______ _______ _______ _____ _____    ______ ____
ROOT
ATOM      1  C   UNL     1       2.432   2.655  20.107  0.00  0.00    +0.000 C 
ATOM      2  N   UNL     1       3.302   3.615  19.442  0.00  0.00    +0.000 NA
ATOM      3  C   UNL     1       4.030   3.007  18.323  0.00  0.00    +0.000 C 
ATOM      4  C   UNL     1       3.052   3.114  17.154  0.00  0.00    +0.000 C 
ATOM      5  C   UNL     1       2.199   4.343  17.444  0.00  0.00    +0.000 C 
ATOM      6  C   UNL     1       2.666   4.808  18.824  0.00  0.00    +0.000 C 
ATOM      7  C   UNL     1       3.770   5.895  18.695  0.00  0.00    +0.000 C 
ATOM      8  C   UNL     1       5.056   5.342  18.023  0.00  0.00    +0.000 C 
ATOM      9  C   UNL     1       5.310   3.852  18.291  0.00  0.00    +0.000 C 
ENDROOT
BRANCH   7  10
ATOM     10  C   UNL     1       3.356   7.195  18.005  0.00  0.00    +0.000 C 
ATOM     11  O   UNL     1       4.122   7.886  17.340  0.00  0.00    +0.000 OA
BRANCH  10  12
ATOM     12  O   UNL     1       2.017   7.510  18.254  0.00  0.00    +0.000 OA
BRANCH  12  13
ATOM     13  C   UNL     1       1.595   8.487  19.195  0.00  0.00    +0.000 A 
ATOM     14  C   UNL     1       1.492   8.033  20.516  0.00  0.00    +0.000 A 
ATOM     15  C   UNL     1       1.096   8.913  21.528  0.00  0.00    +0.000 A 
ATOM     16  C   UNL     1       0.814  10.239  21.226  0.00  0.00    +0.000 A 
ATOM     17  C   UNL     1       0.924  10.700  19.915  0.00  0.00    +0.000 A 
ATOM     18  C   UNL     1       1.324   9.820  18.894  0.00  0.00    +0.000 A 
ENDBRANCH  12  13
ENDBRANCH  10  12
ENDBRANCH   7  10
BRANCH   8  19
ATOM     19  O   UNL     1       5.022   5.489  16.588  0.00  0.00    +0.000 OA
BRANCH  19  20
ATOM     20  C   UNL     1       6.243   5.642  16.007  0.00  0.00    +0.000 C 
ATOM     21  O   UNL     1       7.218   6.189  16.503  0.00  0.00    +0.000 OA
BRANCH  20  22
ATOM     22  C   UNL     1       6.295   4.950  14.701  0.00  0.00    +0.000 A 
ATOM     23  C   UNL     1       7.406   5.191  13.881  0.00  0.00    +0.000 A 
ATOM     24  C   UNL     1       7.505   4.571  12.636  0.00  0.00    +0.000 A 
ATOM     25  C   UNL     1       6.493   3.715  12.204  0.00  0.00    +0.000 A 
ATOM     26  C   UNL     1       5.388   3.465  13.019  0.00  0.00    +0.000 A 
ATOM     27  C   UNL     1       5.285   4.082  14.269  0.00  0.00    +0.000 A 
ENDBRANCH  20  22
ENDBRANCH  19  20
ENDBRANCH   8  19
TORSDOF 6
ENDMDL
MODEL 7
REMARK VINA RESULT:      -7.5      1.817      4.997
REMARK  Name = 
REMARK  7 active torsions:
REMARK  status: ('A' for Active; 'I' for Inactive)
REMARK    1  A    between atoms: C_1  and  N_2
REMARK    2  A    between atoms: C_7  and  C_8
REMARK    3  A    between atoms: C_8  and  O_10
REMARK    4  A    between atoms: O_10  and  C_11
REMARK    5  A    between atoms: C_17  and  O_18
REMARK    6  A    between atoms: O_18  and  C_19
REMARK    7  A    between atoms: C_19  and  C_21
REMARK                            x       y       z     vdW  Elec       q    Type
REMARK                         _______ _______ _______ _____ _____    ______ ____
ROOT
ATOM      1  C   UNL     1       1.991   2.730  20.293  0.00  0.00    +0.000 C 
ATOM      2  N   UNL     1       3.017   3.517  19.623  0.00  0.00    +0.000 NA
ATOM      3  C   UNL     1       3.732   2.733  18.611  0.00  0.00    +0.000 C 
ATOM      4  C   UNL     1       2.851   2.860  17.367  0.00  0.00    +0.000 C 
ATOM      5  C   UNL     1       2.146   4.203  17.500  0.00  0.00    +0.000 C 
ATOM      6  C   UNL     1       2.579   4.723  18.871  0.00  0.00    +0.000 C 
ATOM      7  C   UNL     1       3.818   5.652  18.742  0.00  0.00    +0.000 C 
ATOM      8  C   UNL     1       5.063   4.892  18.211  0.00  0.00    +0.000 C 
ATOM      9  C   UNL     1       5.108   3.410  18.609  0.00  0.00    +0.000 C 
ENDROOT
BRANCH   7  10
ATOM     10  C   UNL     1       3.618   6.930  17.927  0.00  0.00    +0.000 C 
ATOM     11  O   UNL     1       4.535   7.551  17.398  0.00  0.00    +0.000 OA
BRANCH  10  12
ATOM     12  O   UNL     1       2.274   7.315  17.891  0.00  0.00    +0.000 OA
BRANCH  12  13
ATOM     13  C   UNL     1       1.743   8.407  18.628  0.00  0.00    +0.000 A 
ATOM     14  C   UNL     1       1.560   8.166  19.995  0.00  0.00    +0.000 A 
ATOM     15  C   UNL     1       1.053   9.175  20.820  0.00  0.00    +0.000 A 
ATOM     16  C   UNL     1       0.741  10.419  20.287  0.00  0.00    +0.000 A 
ATOM     17  C   UNL     1       0.929  10.669  18.929  0.00  0.00    +0.000 A 
ATOM     18  C   UNL     1       1.441   9.658  18.095  0.00  0.00    +0.000 A 
ENDBRANCH  12  13
ENDBRANCH  10  12
ENDBRANCH   7  10
BRANCH   8  19
ATOM     19  O   UNL     1       5.140   4.921  16.770  0.00  0.00    +0.000 OA
BRANCH  19  20
ATOM     20  C   UNL     1       6.391   5.129  16.275  0.00  0.00    +0.000 C 
ATOM     21  O   UNL     1       7.368   5.499  16.909  0.00  0.00    +0.000 OA
BRANCH  20  22
ATOM     22  C   UNL     1       6.465   4.737  14.851  0.00  0.00    +0.000 A 
ATOM     23  C   UNL     1       5.459   3.896  14.355  0.00  0.00    +0.000 A 
ATOM     24  C   UNL     1       5.482   3.488  13.022  0.00  0.00    +0.000 A 
ATOM     25  C   UNL     1       6.510   3.914  12.183  0.00  0.00    +0.000 A 
ATOM     26  C   UNL     1       7.511   4.757  12.669  0.00  0.00    +0.000 A 
ATOM     27  C   UNL     1       7.491   5.171  14.004  0.00  0.00    +0.000 A 
ENDBRANCH  20  22
ENDBRANCH  19  20
ENDBRANCH   8  19
TORSDOF 6
ENDMDL
MODEL 8
REMARK VINA RESULT:      -7.5      1.888      5.646
REMARK  Name = 
REMARK  7 active torsions:
REMARK  status: ('A' for Active; 'I' for Inactive)
REMARK    1  A    between atoms: C_1  and  N_2
REMARK    2  A    between atoms: C_7  and  C_8
REMARK    3  A    between atoms: C_8  and  O_10
REMARK    4  A    between atoms: O_10  and  C_11
REMARK    5  A    between atoms: C_17  and  O_18
REMARK    6  A    between atoms: O_18  and  C_19
REMARK    7  A    between atoms: C_19  and  C_21
REMARK                            x       y       z     vdW  Elec       q    Type
REMARK                         _______ _______ _______ _____ _____    ______ ____
ROOT
ATOM      1  C   UNL     1       0.780   1.429  19.112  0.00  0.00    +0.000 C 
ATOM      2  N   UNL     1       1.600   2.542  18.656  0.00  0.00    +0.000 NA
ATOM      3  C   UNL     1       0.939   3.833  18.877  0.00  0.00    +0.000 C 
ATOM      4  C   UNL     1       1.301   4.183  20.320  0.00  0.00    +0.000 C 
ATOM      5  C   UNL     1       2.647   3.517  20.578  0.00  0.00    +0.000 C 
ATOM      6  C   UNL     1       2.928   2.727  19.298  0.00  0.00    +0.000 C 
ATOM      7  C   UNL     1       3.795   3.562  18.315  0.00  0.00    +0.000 C 
ATOM      8  C   UNL     1       3.055   4.836  17.823  0.00  0.00    +0.000 C 
ATOM      9  C   UNL     1       1.530   4.681  17.743  0.00  0.00    +0.000 C 
ENDROOT
BRANCH   7  10
ATOM     10  C   UNL     1       5.191   3.945  18.809  0.00  0.00    +0.000 C 
ATOM     11  O   UNL     1       5.567   3.798  19.968  0.00  0.00    +0.000 OA
BRANCH  10  12
ATOM     12  O   UNL     1       5.964   4.508  17.789  0.00  0.00    +0.000 OA
BRANCH  12  13
ATOM     13  C   UNL     1       6.764   5.672  17.952  0.00  0.00    +0.000 A 
ATOM     14  C   UNL     1       6.529   6.688  17.018  0.00  0.00    +0.000 A 
ATOM     15  C   UNL     1       7.252   7.883  17.090  0.00  0.00    +0.000 A 
ATOM     16  C   UNL     1       8.194   8.067  18.093  0.00  0.00    +0.000 A 
ATOM     17  C   UNL     1       8.426   7.063  19.032  0.00  0.00    +0.000 A 
ATOM     18  C   UNL     1       7.700   5.860  18.966  0.00  0.00    +0.000 A 
ENDBRANCH  12  13
ENDBRANCH  10  12
ENDBRANCH   7  10
BRANCH   8  19
ATOM     19  O   UNL     1       3.297   5.968  18.685  0.00  0.00    +0.000 OA
BRANCH  19  20
ATOM     20  C   UNL     1       3.068   7.178  18.105  0.00  0.00    +0.000 C 
ATOM     21  O   UNL     1       3.473   7.546  17.012  0.00  0.00    +0.000 OA
BRANCH  20  22
ATOM     22  C   UNL     1       2.147   7.990  18.930  0.00  0.00    +0.000 A 
ATOM     23  C   UNL     1       1.949   7.599  20.261  0.00  0.00    +0.000 A 
ATOM     24  C   UNL     1       1.086   8.322  21.083  0.00  0.00    +0.000 A 
ATOM     25  C   UNL     1       0.415   9.434  20.577  0.00  0.00    +0.000 A 
ATOM     26  C   UNL     1       0.612   9.833  19.254  0.00  0.00    +0.000 A 
ATOM     27  C   UNL     1       1.478   9.112  18.427  0.00  0.00    +0.000 A 
ENDBRANCH  20  22
ENDBRANCH  19  20
ENDBRANCH   8  19
TORSDOF 6
ENDMDL
MODEL 9
REMARK VINA RESULT:      -7.5      1.876      5.708
REMARK  Name = 
REMARK  7 active torsions:
REMARK  status: ('A' for Active; 'I' for Inactive)
REMARK    1  A    between atoms: C_1  and  N_2
REMARK    2  A    between atoms: C_7  and  C_8
REMARK    3  A    between atoms: C_8  and  O_10
REMARK    4  A    between atoms: O_10  and  C_11
REMARK    5  A    between atoms: C_17  and  O_18
REMARK    6  A    between atoms: O_18  and  C_19
REMARK    7  A    between atoms: C_19  and  C_21
REMARK                            x       y       z     vdW  Elec       q    Type
REMARK                         _______ _______ _______ _____ _____    ______ ____
ROOT
ATOM      1  C   UNL     1       0.757   1.418  18.903  0.00  0.00    +0.000 C 
ATOM      2  N   UNL     1       1.578   2.547  18.489  0.00  0.00    +0.000 NA
ATOM      3  C   UNL     1       0.932   3.830  18.784  0.00  0.00    +0.000 C 
ATOM      4  C   UNL     1       1.321   4.105  20.236  0.00  0.00    +0.000 C 
ATOM      5  C   UNL     1       2.665   3.417  20.438  0.00  0.00    +0.000 C 
ATOM      6  C   UNL     1       2.919   2.690  19.116  0.00  0.00    +0.000 C 
ATOM      7  C   UNL     1       3.776   3.566  18.161  0.00  0.00    +0.000 C 
ATOM      8  C   UNL     1       3.038   4.868  17.746  0.00  0.00    +0.000 C 
ATOM      9  C   UNL     1       1.511   4.729  17.684  0.00  0.00    +0.000 C 
ENDROOT
BRANCH   7  10
ATOM     10  C   UNL     1       5.183   3.914  18.649  0.00  0.00    +0.000 C 
ATOM     11  O   UNL     1       5.574   3.716  19.796  0.00  0.00    +0.000 OA
BRANCH  10  12
ATOM     12  O   UNL     1       5.948   4.510  17.642  0.00  0.00    +0.000 OA
BRANCH  12  13
ATOM     13  C   UNL     1       6.690   5.709  17.816  0.00  0.00    +0.000 A 
ATOM     14  C   UNL     1       7.604   5.692  18.877  0.00  0.00    +0.000 A 
ATOM     15  C   UNL     1       8.397   6.814  19.133  0.00  0.00    +0.000 A 
ATOM     16  C   UNL     1       8.286   7.943  18.331  0.00  0.00    +0.000 A 
ATOM     17  C   UNL     1       7.385   7.963  17.268  0.00  0.00    +0.000 A 
ATOM     18  C   UNL     1       6.587   6.836  17.004  0.00  0.00    +0.000 A 
ENDBRANCH  12  13
ENDBRANCH  10  12
ENDBRANCH   7  10
BRANCH   8  19
ATOM     19  O   UNL     1       3.304   5.954  18.658  0.00  0.00    +0.000 OA
BRANCH  19  20
ATOM     20  C   UNL     1       3.078   7.193  18.142  0.00  0.00    +0.000 C 
ATOM     21  O   UNL     1       3.491   7.618  17.072  0.00  0.00    +0.000 OA
BRANCH  20  22
ATOM     22  C   UNL     1       2.153   7.961  19.002  0.00  0.00    +0.000 A 
ATOM     23  C   UNL     1       1.509   9.071  18.438  0.00  0.00    +0.000 A 
ATOM     24  C   UNL     1       0.631   9.836  19.204  0.00  0.00    +0.000 A 
ATOM     25  C   UNL     1       0.397   9.499  20.536  0.00  0.00    +0.000 A 
ATOM     26  C   UNL     1       1.030   8.391  21.102  0.00  0.00    +0.000 A 
ATOM     27  C   UNL     1       1.909   7.619  20.338  0.00  0.00    +0.000 A 
ENDBRANCH  20  22
ENDBRANCH  19  20
ENDBRANCH   8  19
TORSDOF 6
ENDMDL
