MODEL 1
REMARK VINA RESULT:      -7.4      0.000      0.000
REMARK  Name = 
REMARK  14 active torsions:
REMARK  status: ('A' for Active; 'I' for Inactive)
REMARK    1  A    between atoms: C_1  and  O_2
REMARK    2  A    between atoms: O_2  and  C_3
REMARK    3  A    between atoms: C_5  and  C_6
REMARK    4  A    between atoms: C_7  and  C_8
REMARK    5  A    between atoms: C_15  and  O_16
REMARK    6  A    between atoms: O_16  and  C_17
REMARK    7  A    between atoms: C_18  and  C_19
REMARK    8  A    between atoms: C_19  and  C_20
REMARK    9  A    between atoms: C_21  and  C_22
REMARK   10  A    between atoms: C_21  and  C_23
REMARK   11  A    between atoms: C_23  and  C_24
REMARK   12  A    between atoms: C_24  and  C_25
REMARK   13  A    between atoms: C_26  and  C_27
REMARK   14  A    between atoms: C_26  and  C_28
REMARK                            x       y       z     vdW  Elec       q    Type
REMARK                         _______ _______ _______ _____ _____    ______ ____
ROOT
ATOM      1  C   UNL     1       6.758   5.520  16.253  0.00  0.00    +0.000 A 
ATOM      2  C   UNL     1       7.689   6.500  16.616  0.00  0.00    +0.000 A 
ATOM      3  C   UNL     1       7.321   7.591  17.399  0.00  0.00    +0.000 A 
ATOM      4  C   UNL     1       5.989   7.722  17.790  0.00  0.00    +0.000 A 
ATOM      5  C   UNL     1       5.046   6.737  17.478  0.00  0.00    +0.000 A 
ATOM      6  C   UNL     1       5.435   5.592  16.747  0.00  0.00    +0.000 A 
ENDROOT
BRANCH   1   8
ATOM      7  C   UNL     1       6.951   4.647  14.053  0.00  0.00    +0.000 C 
ATOM      8  O   UNL     1       7.099   4.447  15.462  0.00  0.00    +0.000 OA
ENDBRANCH   1   8
BRANCH   3   9
ATOM      9  C   UNL     1       8.371   8.498  17.874  0.00  0.00    +0.000 C 
ATOM     10  C   UNL     1       8.188   9.799  18.136  0.00  0.00    +0.000 C 
BRANCH  10  11
ATOM     11  C   UNL     1       9.236  10.672  18.672  0.00  0.00    +0.000 A 
ATOM     12  C   UNL     1       9.323  10.845  20.054  0.00  0.00    +0.000 A 
ATOM     13  C   UNL     1      10.318  11.652  20.607  0.00  0.00    +0.000 A 
ATOM     14  C   UNL     1      11.239  12.291  19.777  0.00  0.00    +0.000 A 
ATOM     15  C   UNL     1      11.178  12.111  18.398  0.00  0.00    +0.000 A 
ATOM     16  C   UNL     1      10.185  11.301  17.845  0.00  0.00    +0.000 A 
ENDBRANCH  10  11
ENDBRANCH   3   9
BRANCH   5  17
ATOM     17  O   UNL     1       3.727   6.830  17.851  0.00  0.00    +0.000 OA
ATOM     18  C   UNL     1       3.120   8.115  17.738  0.00  0.00    +0.000 C 
ENDBRANCH   5  17
BRANCH   6  19
ATOM     19  C   UNL     1       4.481   4.409  16.620  0.00  0.00    +0.000 C 
BRANCH  19  20
ATOM     20  C   UNL     1       4.414   3.503  17.815  0.00  0.00    +0.000 C 
ATOM     21  C   UNL     1       3.431   2.626  18.124  0.00  0.00    +0.000 C 
ATOM     22  C   UNL     1       2.144   2.514  17.346  0.00  0.00    +0.000 C 
BRANCH  21  23
ATOM     23  C   UNL     1       3.528   1.639  19.288  0.00  0.00    +0.000 C 
BRANCH  23  24
ATOM     24  C   UNL     1       3.096   2.231  20.635  0.00  0.00    +0.000 C 
BRANCH  24  25
ATOM     25  C   UNL     1       3.035   3.725  20.734  0.00  0.00    +0.000 C 
ATOM     26  C   UNL     1       1.882   4.408  20.570  0.00  0.00    +0.000 C 
ATOM     27  C   UNL     1       0.551   3.751  20.296  0.00  0.00    +0.000 C 
ATOM     28  C   UNL     1       1.836   5.910  20.643  0.00  0.00    +0.000 C 
ENDBRANCH  24  25
ENDBRANCH  23  24
ENDBRANCH  21  23
ENDBRANCH  19  20
ENDBRANCH   6  19
TORSDOF 9
ENDMDL
MODEL 2
REMARK VINA RESULT:      -7.2      2.937      7.544
REMARK  Name = 
REMARK  14 active torsions:
REMARK  status: ('A' for Active; 'I' for Inactive)
REMARK    1  A    between atoms: C_1  and  O_2
REMARK    2  A    between atoms: O_2  and  C_3
REMARK    3  A    between atoms: C_5  and  C_6
REMARK    4  A    between atoms: C_7  and  C_8
REMARK    5  A    between atoms: C_15  and  O_16
REMARK    6  A    between atoms: O_16  and  C_17
REMARK    7  A    between atoms: C_18  and  C_19
REMARK    8  A    between atoms: C_19  and  C_20
REMARK    9  A    between atoms: C_21  and  C_22
REMARK   10  A    between atoms: C_21  and  C_23
REMARK   11  A    between atoms: C_23  and  C_24
REMARK   12  A    between atoms: C_24  and  C_25
REMARK   13  A    between atoms: C_26  and  C_27
REMARK   14  A    between atoms: C_26  and  C_28
REMARK                            x       y       z     vdW  Elec       q    Type
REMARK                         _______ _______ _______ _____ _____    ______ ____
ROOT
ATOM      1  C   UNL     1       4.314   4.996  18.301  0.00  0.00    +0.000 A 
ATOM      2  C   UNL     1       3.214   5.861  18.336  0.00  0.00    +0.000 A 
ATOM      3  C   UNL     1       3.310   7.170  17.872  0.00  0.00    +0.000 A 
ATOM      4  C   UNL     1       4.540   7.631  17.402  0.00  0.00    +0.000 A 
ATOM      5  C   UNL     1       5.644   6.778  17.316  0.00  0.00    +0.000 A 
ATOM      6  C   UNL     1       5.528   5.428  17.717  0.00  0.00    +0.000 A 
ENDROOT
BRANCH   1   8
ATOM      7  C   UNL     1       3.319   3.492  19.845  0.00  0.00    +0.000 C 
ATOM      8  O   UNL     1       4.244   3.707  18.775  0.00  0.00    +0.000 OA
ENDBRANCH   1   8
BRANCH   3   9
ATOM      9  C   UNL     1       2.088   7.976  17.791  0.00  0.00    +0.000 C 
ATOM     10  C   UNL     1       1.883   9.114  18.467  0.00  0.00    +0.000 C 
BRANCH  10  11
ATOM     11  C   UNL     1       0.679   9.937  18.322  0.00  0.00    +0.000 A 
ATOM     12  C   UNL     1       0.689  11.236  18.835  0.00  0.00    +0.000 A 
ATOM     13  C   UNL     1      -0.428  12.060  18.701  0.00  0.00    +0.000 A 
ATOM     14  C   UNL     1      -1.567  11.589  18.046  0.00  0.00    +0.000 A 
ATOM     15  C   UNL     1      -1.583  10.305  17.510  0.00  0.00    +0.000 A 
ATOM     16  C   UNL     1      -0.465   9.482  17.642  0.00  0.00    +0.000 A 
ENDBRANCH  10  11
ENDBRANCH   3   9
BRANCH   5  17
ATOM     17  O   UNL     1       6.868   7.196  16.854  0.00  0.00    +0.000 OA
ATOM     18  C   UNL     1       7.573   8.130  17.667  0.00  0.00    +0.000 C 
ENDBRANCH   5  17
BRANCH   6  19
ATOM     19  C   UNL     1       6.644   4.439  17.395  0.00  0.00    +0.000 C 
BRANCH  19  20
ATOM     20  C   UNL     1       7.308   4.627  16.062  0.00  0.00    +0.000 C 
ATOM     21  C   UNL     1       6.725   4.580  14.842  0.00  0.00    +0.000 C 
ATOM     22  C   UNL     1       5.284   4.193  14.626  0.00  0.00    +0.000 C 
BRANCH  21  23
ATOM     23  C   UNL     1       7.463   4.934  13.550  0.00  0.00    +0.000 C 
BRANCH  23  24
ATOM     24  C   UNL     1       6.740   4.468  12.281  0.00  0.00    +0.000 C 
BRANCH  24  25
ATOM     25  C   UNL     1       6.909   3.031  11.890  0.00  0.00    +0.000 C 
ATOM     26  C   UNL     1       5.876   2.281  11.453  0.00  0.00    +0.000 C 
ATOM     27  C   UNL     1       4.469   2.804  11.292  0.00  0.00    +0.000 C 
ATOM     28  C   UNL     1       6.049   0.831  11.089  0.00  0.00    +0.000 C 
ENDBRANCH  24  25
ENDBRANCH  23  24
ENDBRANCH  21  23
ENDBRANCH  19  20
ENDBRANCH   6  19
TORSDOF 9
ENDMDL
MODEL 3
REMARK VINA RESULT:      -7.2      4.306      7.534
REMARK  Name = 
REMARK  14 active torsions:
REMARK  status: ('A' for Active; 'I' for Inactive)
REMARK    1  A    between atoms: C_1  and  O_2
REMARK    2  A    between atoms: O_2  and  C_3
REMARK    3  A    between atoms: C_5  and  C_6
REMARK    4  A    between atoms: C_7  and  C_8
REMARK    5  A    between atoms: C_15  and  O_16
REMARK    6  A    between atoms: O_16  and  C_17
REMARK    7  A    between atoms: C_18  and  C_19
REMARK    8  A    between atoms: C_19  and  C_20
REMARK    9  A    between atoms: C_21  and  C_22
REMARK   10  A    between atoms: C_21  and  C_23
REMARK   11  A    between atoms: C_23  and  C_24
REMARK   12  A    between atoms: C_24  and  C_25
REMARK   13  A    between atoms: C_26  and  C_27
REMARK   14  A    between atoms: C_26  and  C_28
REMARK                            x       y       z     vdW  Elec       q    Type
REMARK                         _______ _______ _______ _____ _____    ______ ____
ROOT
ATOM      1  C   UNL     1       4.702   6.125  16.899  0.00  0.00    +0.000 A 
ATOM      2  C   UNL     1       3.821   6.797  17.754  0.00  0.00    +0.000 A 
ATOM      3  C   UNL     1       2.986   6.100  18.623  0.00  0.00    +0.000 A 
ATOM      4  C   UNL     1       3.007   4.706  18.607  0.00  0.00    +0.000 A 
ATOM      5  C   UNL     1       3.906   4.009  17.795  0.00  0.00    +0.000 A 
ATOM      6  C   UNL     1       4.807   4.716  16.966  0.00  0.00    +0.000 A 
ENDROOT
BRANCH   1   8
ATOM      7  C   UNL     1       4.913   7.171  14.778  0.00  0.00    +0.000 C 
ATOM      8  O   UNL     1       5.519   6.795  16.018  0.00  0.00    +0.000 OA
ENDBRANCH   1   8
BRANCH   3   9
ATOM      9  C   UNL     1       2.201   6.862  19.600  0.00  0.00    +0.000 C 
ATOM     10  C   UNL     1       1.976   8.180  19.530  0.00  0.00    +0.000 C 
BRANCH  10  11
ATOM     11  C   UNL     1       1.134   8.910  20.483  0.00  0.00    +0.000 A 
ATOM     12  C   UNL     1       0.195   9.817  19.989  0.00  0.00    +0.000 A 
ATOM     13  C   UNL     1      -0.641  10.518  20.860  0.00  0.00    +0.000 A 
ATOM     14  C   UNL     1      -0.543  10.312  22.236  0.00  0.00    +0.000 A 
ATOM     15  C   UNL     1       0.374   9.395  22.741  0.00  0.00    +0.000 A 
ATOM     16  C   UNL     1       1.207   8.692  21.870  0.00  0.00    +0.000 A 
ENDBRANCH  10  11
ENDBRANCH   3   9
BRANCH   5  17
ATOM     17  O   UNL     1       3.958   2.636  17.756  0.00  0.00    +0.000 OA
ATOM     18  C   UNL     1       2.718   1.946  17.881  0.00  0.00    +0.000 C 
ENDBRANCH   5  17
BRANCH   6  19
ATOM     19  C   UNL     1       5.946   3.976  16.274  0.00  0.00    +0.000 C 
BRANCH  19  20
ATOM     20  C   UNL     1       5.687   3.580  14.849  0.00  0.00    +0.000 C 
ATOM     21  C   UNL     1       6.384   3.961  13.753  0.00  0.00    +0.000 C 
ATOM     22  C   UNL     1       7.495   4.980  13.790  0.00  0.00    +0.000 C 
BRANCH  21  23
ATOM     23  C   UNL     1       6.131   3.383  12.360  0.00  0.00    +0.000 C 
BRANCH  23  24
ATOM     24  C   UNL     1       4.645   3.213  12.024  0.00  0.00    +0.000 C 
BRANCH  24  25
ATOM     25  C   UNL     1       4.057   4.173  11.035  0.00  0.00    +0.000 C 
ATOM     26  C   UNL     1       3.172   3.780  10.094  0.00  0.00    +0.000 C 
ATOM     27  C   UNL     1       2.673   2.363   9.952  0.00  0.00    +0.000 C 
ATOM     28  C   UNL     1       2.608   4.746   9.087  0.00  0.00    +0.000 C 
ENDBRANCH  24  25
ENDBRANCH  23  24
ENDBRANCH  21  23
ENDBRANCH  19  20
ENDBRANCH   6  19
TORSDOF 9
ENDMDL
MODEL 4
REMARK VINA RESULT:      -7.1      3.596      7.688
REMARK  Name = 
REMARK  14 active torsions:
REMARK  status: ('A' for Active; 'I' for Inactive)
REMARK    1  A    between atoms: C_1  and  O_2
REMARK    2  A    between atoms: O_2  and  C_3
REMARK    3  A    between atoms: C_5  and  C_6
REMARK    4  A    between atoms: C_7  and  C_8
REMARK    5  A    between atoms: C_15  and  O_16
REMARK    6  A    between atoms: O_16  and  C_17
REMARK    7  A    between atoms: C_18  and  C_19
REMARK    8  A    between atoms: C_19  and  C_20
REMARK    9  A    between atoms: C_21  and  C_22
REMARK   10  A    between atoms: C_21  and  C_23
REMARK   11  A    between atoms: C_23  and  C_24
REMARK   12  A    between atoms: C_24  and  C_25
REMARK   13  A    between atoms: C_26  and  C_27
REMARK   14  A    between atoms: C_26  and  C_28
REMARK                            x       y       z     vdW  Elec       q    Type
REMARK                         _______ _______ _______ _____ _____    ______ ____
ROOT
ATOM      1  C   UNL     1       2.540   3.952  19.384  0.00  0.00    +0.000 A 
ATOM      2  C   UNL     1       1.767   4.892  20.076  0.00  0.00    +0.000 A 
ATOM      3  C   UNL     1       2.155   6.227  20.154  0.00  0.00    +0.000 A 
ATOM      4  C   UNL     1       3.357   6.617  19.564  0.00  0.00    +0.000 A 
ATOM      5  C   UNL     1       4.127   5.709  18.831  0.00  0.00    +0.000 A 
ATOM      6  C   UNL     1       3.697   4.371  18.687  0.00  0.00    +0.000 A 
ENDROOT
BRANCH   1   8
ATOM      7  C   UNL     1       0.917   2.357  18.705  0.00  0.00    +0.000 C 
ATOM      8  O   UNL     1       2.184   2.625  19.314  0.00  0.00    +0.000 OA
ENDBRANCH   1   8
BRANCH   3   9
ATOM      9  C   UNL     1       1.229   7.191  20.758  0.00  0.00    +0.000 C 
ATOM     10  C   UNL     1       1.440   8.512  20.814  0.00  0.00    +0.000 C 
BRANCH  10  11
ATOM     11  C   UNL     1       0.471   9.464  21.364  0.00  0.00    +0.000 A 
ATOM     12  C   UNL     1       0.069   9.321  22.693  0.00  0.00    +0.000 A 
ATOM     13  C   UNL     1      -0.835  10.218  23.262  0.00  0.00    +0.000 A 
ATOM     14  C   UNL     1      -1.344  11.271  22.502  0.00  0.00    +0.000 A 
ATOM     15  C   UNL     1      -0.937  11.440  21.182  0.00  0.00    +0.000 A 
ATOM     16  C   UNL     1      -0.029  10.545  20.614  0.00  0.00    +0.000 A 
ENDBRANCH  10  11
ENDBRANCH   3   9
BRANCH   5  17
ATOM     17  O   UNL     1       5.313   6.058  18.232  0.00  0.00    +0.000 OA
ATOM     18  C   UNL     1       5.346   7.316  17.563  0.00  0.00    +0.000 C 
ENDBRANCH   5  17
BRANCH   6  19
ATOM     19  C   UNL     1       4.395   3.449  17.692  0.00  0.00    +0.000 C 
BRANCH  19  20
ATOM     20  C   UNL     1       4.750   4.072  16.373  0.00  0.00    +0.000 C 
ATOM     21  C   UNL     1       5.988   4.367  15.913  0.00  0.00    +0.000 C 
ATOM     22  C   UNL     1       7.238   4.219  16.743  0.00  0.00    +0.000 C 
BRANCH  21  23
ATOM     23  C   UNL     1       6.253   4.864  14.491  0.00  0.00    +0.000 C 
BRANCH  23  24
ATOM     24  C   UNL     1       6.114   3.774  13.422  0.00  0.00    +0.000 C 
BRANCH  24  25
ATOM     25  C   UNL     1       4.921   3.856  12.518  0.00  0.00    +0.000 C 
ATOM     26  C   UNL     1       4.702   2.954  11.537  0.00  0.00    +0.000 C 
ATOM     27  C   UNL     1       5.604   1.776  11.264  0.00  0.00    +0.000 C 
ATOM     28  C   UNL     1       3.516   3.061  10.616  0.00  0.00    +0.000 C 
ENDBRANCH  24  25
ENDBRANCH  23  24
ENDBRANCH  21  23
ENDBRANCH  19  20
ENDBRANCH   6  19
TORSDOF 9
ENDMDL
MODEL 5
REMARK VINA RESULT:      -7.1      6.559     10.101
REMARK  Name = 
REMARK  14 active torsions:
REMARK  status: ('A' for Active; 'I' for Inactive)
REMARK    1  A    between atoms: C_1  and  O_2
REMARK    2  A    between atoms: O_2  and  C_3
REMARK    3  A    between atoms: C_5  and  C_6
REMARK    4  A    between atoms: C_7  and  C_8
REMARK    5  A    between atoms: C_15  and  O_16
REMARK    6  A    between atoms: O_16  and  C_17
REMARK    7  A    between atoms: C_18  and  C_19
REMARK    8  A    between atoms: C_19  and  C_20
REMARK    9  A    between atoms: C_21  and  C_22
REMARK   10  A    between atoms: C_21  and  C_23
REMARK   11  A    between atoms: C_23  and  C_24
REMARK   12  A    between atoms: C_24  and  C_25
REMARK   13  A    between atoms: C_26  and  C_27
REMARK   14  A    between atoms: C_26  and  C_28
REMARK                            x       y       z     vdW  Elec       q    Type
REMARK                         _______ _______ _______ _____ _____    ______ ____
ROOT
ATOM      1  C   UNL     1       0.527  10.411  20.890  0.00  0.00    +0.000 A 
ATOM      2  C   UNL     1       1.248   9.435  20.192  0.00  0.00    +0.000 A 
ATOM      3  C   UNL     1       1.116   9.289  18.813  0.00  0.00    +0.000 A 
ATOM      4  C   UNL     1       0.216  10.107  18.131  0.00  0.00    +0.000 A 
ATOM      5  C   UNL     1      -0.485  11.117  18.795  0.00  0.00    +0.000 A 
ATOM      6  C   UNL     1      -0.296  11.317  20.181  0.00  0.00    +0.000 A 
ENDROOT
BRANCH   1   8
ATOM      7  C   UNL     1      -0.182   9.671  23.031  0.00  0.00    +0.000 C 
ATOM      8  O   UNL     1       0.628  10.557  22.254  0.00  0.00    +0.000 OA
ENDBRANCH   1   8
BRANCH   3   9
ATOM      9  C   UNL     1       2.011   8.357  18.120  0.00  0.00    +0.000 C 
ATOM     10  C   UNL     1       2.454   7.204  18.637  0.00  0.00    +0.000 C 
BRANCH  10  11
ATOM     11  C   UNL     1       3.296   6.256  17.902  0.00  0.00    +0.000 A 
ATOM     12  C   UNL     1       2.969   4.899  17.939  0.00  0.00    +0.000 A 
ATOM     13  C   UNL     1       3.732   3.966  17.236  0.00  0.00    +0.000 A 
ATOM     14  C   UNL     1       4.831   4.387  16.487  0.00  0.00    +0.000 A 
ATOM     15  C   UNL     1       5.156   5.739  16.423  0.00  0.00    +0.000 A 
ATOM     16  C   UNL     1       4.391   6.672  17.122  0.00  0.00    +0.000 A 
ENDBRANCH  10  11
ENDBRANCH   3   9
BRANCH   5  17
ATOM     17  O   UNL     1      -1.376  11.944  18.154  0.00  0.00    +0.000 OA
ATOM     18  C   UNL     1      -2.288  11.325  17.251  0.00  0.00    +0.000 C 
ENDBRANCH   5  17
BRANCH   6  19
ATOM     19  C   UNL     1      -0.862  12.562  20.856  0.00  0.00    +0.000 C 
BRANCH  19  20
ATOM     20  C   UNL     1      -2.217  12.398  21.480  0.00  0.00    +0.000 C 
ATOM     21  C   UNL     1      -2.645  12.912  22.657  0.00  0.00    +0.000 C 
ATOM     22  C   UNL     1      -1.746  13.654  23.613  0.00  0.00    +0.000 C 
BRANCH  21  23
ATOM     23  C   UNL     1      -4.094  12.812  23.134  0.00  0.00    +0.000 C 
BRANCH  23  24
ATOM     24  C   UNL     1      -5.109  13.412  22.153  0.00  0.00    +0.000 C 
BRANCH  24  25
ATOM     25  C   UNL     1      -5.842  12.455  21.262  0.00  0.00    +0.000 C 
ATOM     26  C   UNL     1      -7.048  11.948  21.594  0.00  0.00    +0.000 C 
ATOM     27  C   UNL     1      -7.785  12.299  22.863  0.00  0.00    +0.000 C 
ATOM     28  C   UNL     1      -7.764  10.966  20.706  0.00  0.00    +0.000 C 
ENDBRANCH  24  25
ENDBRANCH  23  24
ENDBRANCH  21  23
ENDBRANCH  19  20
ENDBRANCH   6  19
TORSDOF 9
ENDMDL
MODEL 6
REMARK VINA RESULT:      -7.0      2.975      7.560
REMARK  Name = 
REMARK  14 active torsions:
REMARK  status: ('A' for Active; 'I' for Inactive)
REMARK    1  A    between atoms: C_1  and  O_2
REMARK    2  A    between atoms: O_2  and  C_3
REMARK    3  A    between atoms: C_5  and  C_6
REMARK    4  A    between atoms: C_7  and  C_8
REMARK    5  A    between atoms: C_15  and  O_16
REMARK    6  A    between atoms: O_16  and  C_17
REMARK    7  A    between atoms: C_18  and  C_19
REMARK    8  A    between atoms: C_19  and  C_20
REMARK    9  A    between atoms: C_21  and  C_22
REMARK   10  A    between atoms: C_21  and  C_23
REMARK   11  A    between atoms: C_23  and  C_24
REMARK   12  A    between atoms: C_24  and  C_25
REMARK   13  A    between atoms: C_26  and  C_27
REMARK   14  A    between atoms: C_26  and  C_28
REMARK                            x       y       z     vdW  Elec       q    Type
REMARK                         _______ _______ _______ _____ _____    ______ ____
ROOT
ATOM      1  C   UNL     1       4.163   4.506  17.089  0.00  0.00    +0.000 A 
ATOM      2  C   UNL     1       3.202   5.439  17.494  0.00  0.00    +0.000 A 
ATOM      3  C   UNL     1       3.527   6.782  17.664  0.00  0.00    +0.000 A 
ATOM      4  C   UNL     1       4.846   7.188  17.464  0.00  0.00    +0.000 A 
ATOM      5  C   UNL     1       5.817   6.287  17.018  0.00  0.00    +0.000 A 
ATOM      6  C   UNL     1       5.472   4.939  16.773  0.00  0.00    +0.000 A 
ENDROOT
BRANCH   1   8
ATOM      7  C   UNL     1       2.672   2.726  17.586  0.00  0.00    +0.000 C 
ATOM      8  O   UNL     1       3.866   3.171  16.936  0.00  0.00    +0.000 OA
ENDBRANCH   1   8
BRANCH   3   9
ATOM      9  C   UNL     1       2.445   7.735  17.938  0.00  0.00    +0.000 C 
ATOM     10  C   UNL     1       2.104   8.164  19.159  0.00  0.00    +0.000 C 
BRANCH  10  11
ATOM     11  C   UNL     1       1.062   9.165  19.404  0.00  0.00    +0.000 A 
ATOM     12  C   UNL     1       0.650   9.397  20.718  0.00  0.00    +0.000 A 
ATOM     13  C   UNL     1      -0.324  10.356  20.997  0.00  0.00    +0.000 A 
ATOM     14  C   UNL     1      -0.892  11.095  19.960  0.00  0.00    +0.000 A 
ATOM     15  C   UNL     1      -0.476  10.890  18.647  0.00  0.00    +0.000 A 
ATOM     16  C   UNL     1       0.501   9.934  18.369  0.00  0.00    +0.000 A 
ENDBRANCH  10  11
ENDBRANCH   3   9
BRANCH   5  17
ATOM     17  O   UNL     1       7.124   6.653  16.807  0.00  0.00    +0.000 OA
ATOM     18  C   UNL     1       7.549   7.879  17.395  0.00  0.00    +0.000 C 
ENDBRANCH   5  17
BRANCH   6  19
ATOM     19  C   UNL     1       6.455   4.019  16.057  0.00  0.00    +0.000 C 
BRANCH  19  20
ATOM     20  C   UNL     1       6.205   3.824  14.589  0.00  0.00    +0.000 C 
ATOM     21  C   UNL     1       6.830   4.445  13.562  0.00  0.00    +0.000 C 
ATOM     22  C   UNL     1       7.825   5.562  13.750  0.00  0.00    +0.000 C 
BRANCH  21  23
ATOM     23  C   UNL     1       6.606   4.066  12.097  0.00  0.00    +0.000 C 
BRANCH  23  24
ATOM     24  C   UNL     1       5.222   3.466  11.821  0.00  0.00    +0.000 C 
BRANCH  24  25
ATOM     25  C   UNL     1       5.137   1.974  11.715  0.00  0.00    +0.000 C 
ATOM     26  C   UNL     1       6.174   1.225  11.285  0.00  0.00    +0.000 C 
ATOM     27  C   UNL     1       7.515   1.796  10.893  0.00  0.00    +0.000 C 
ATOM     28  C   UNL     1       6.070  -0.271  11.154  0.00  0.00    +0.000 C 
ENDBRANCH  24  25
ENDBRANCH  23  24
ENDBRANCH  21  23
ENDBRANCH  19  20
ENDBRANCH   6  19
TORSDOF 9
ENDMDL
MODEL 7
REMARK VINA RESULT:      -7.0      5.664     10.021
REMARK  Name = 
REMARK  14 active torsions:
REMARK  status: ('A' for Active; 'I' for Inactive)
REMARK    1  A    between atoms: C_1  and  O_2
REMARK    2  A    between atoms: O_2  and  C_3
REMARK    3  A    between atoms: C_5  and  C_6
REMARK    4  A    between atoms: C_7  and  C_8
REMARK    5  A    between atoms: C_15  and  O_16
REMARK    6  A    between atoms: O_16  and  C_17
REMARK    7  A    between atoms: C_18  and  C_19
REMARK    8  A    between atoms: C_19  and  C_20
REMARK    9  A    between atoms: C_21  and  C_22
REMARK   10  A    between atoms: C_21  and  C_23
REMARK   11  A    between atoms: C_23  and  C_24
REMARK   12  A    between atoms: C_24  and  C_25
REMARK   13  A    between atoms: C_26  and  C_27
REMARK   14  A    between atoms: C_26  and  C_28
REMARK                            x       y       z     vdW  Elec       q    Type
REMARK                         _______ _______ _______ _____ _____    ______ ____
ROOT
ATOM      1  C   UNL     1      -0.056  10.873  20.747  0.00  0.00    +0.000 A 
ATOM      2  C   UNL     1       0.764   9.948  20.090  0.00  0.00    +0.000 A 
ATOM      3  C   UNL     1       0.559   9.626  18.751  0.00  0.00    +0.000 A 
ATOM      4  C   UNL     1      -0.510  10.211  18.072  0.00  0.00    +0.000 A 
ATOM      5  C   UNL     1      -1.318  11.169  18.690  0.00  0.00    +0.000 A 
ATOM      6  C   UNL     1      -1.065  11.553  20.026  0.00  0.00    +0.000 A 
ENDROOT
BRANCH   1   8
ATOM      7  C   UNL     1      -0.531  10.318  23.006  0.00  0.00    +0.000 C 
ATOM      8  O   UNL     1       0.118  11.188  22.075  0.00  0.00    +0.000 OA
ENDBRANCH   1   8
BRANCH   3   9
ATOM      9  C   UNL     1       1.543   8.771  18.078  0.00  0.00    +0.000 C 
ATOM     10  C   UNL     1       2.173   7.740  18.656  0.00  0.00    +0.000 C 
BRANCH  10  11
ATOM     11  C   UNL     1       3.104   6.859  17.946  0.00  0.00    +0.000 A 
ATOM     12  C   UNL     1       4.182   7.429  17.268  0.00  0.00    +0.000 A 
ATOM     13  C   UNL     1       5.104   6.625  16.597  0.00  0.00    +0.000 A 
ATOM     14  C   UNL     1       4.954   5.239  16.603  0.00  0.00    +0.000 A 
ATOM     15  C   UNL     1       3.896   4.654  17.294  0.00  0.00    +0.000 A 
ATOM     16  C   UNL     1       2.977   5.458  17.968  0.00  0.00    +0.000 A 
ENDBRANCH  10  11
ENDBRANCH   3   9
BRANCH   5  17
ATOM     17  O   UNL     1      -2.376  11.768  18.051  0.00  0.00    +0.000 OA
ATOM     18  C   UNL     1      -3.498  10.941  17.758  0.00  0.00    +0.000 C 
ENDBRANCH   5  17
BRANCH   6  19
ATOM     19  C   UNL     1      -1.778  12.764  20.619  0.00  0.00    +0.000 C 
BRANCH  19  20
ATOM     20  C   UNL     1      -1.260  14.100  20.172  0.00  0.00    +0.000 C 
ATOM     21  C   UNL     1      -0.523  14.977  20.894  0.00  0.00    +0.000 C 
ATOM     22  C   UNL     1      -0.207  14.787  22.355  0.00  0.00    +0.000 C 
BRANCH  21  23
ATOM     23  C   UNL     1       0.083  16.247  20.297  0.00  0.00    +0.000 C 
BRANCH  23  24
ATOM     24  C   UNL     1       1.512  16.060  19.773  0.00  0.00    +0.000 C 
BRANCH  24  25
ATOM     25  C   UNL     1       1.737  14.951  18.791  0.00  0.00    +0.000 C 
ATOM     26  C   UNL     1       2.276  13.768  19.156  0.00  0.00    +0.000 C 
ATOM     27  C   UNL     1       2.681  13.432  20.571  0.00  0.00    +0.000 C 
ATOM     28  C   UNL     1       2.524  12.670  18.157  0.00  0.00    +0.000 C 
ENDBRANCH  24  25
ENDBRANCH  23  24
ENDBRANCH  21  23
ENDBRANCH  19  20
ENDBRANCH   6  19
TORSDOF 9
ENDMDL
MODEL 8
REMARK VINA RESULT:      -7.0      4.298      6.379
REMARK  Name = 
REMARK  14 active torsions:
REMARK  status: ('A' for Active; 'I' for Inactive)
REMARK    1  A    between atoms: C_1  and  O_2
REMARK    2  A    between atoms: O_2  and  C_3
REMARK    3  A    between atoms: C_5  and  C_6
REMARK    4  A    between atoms: C_7  and  C_8
REMARK    5  A    between atoms: C_15  and  O_16
REMARK    6  A    between atoms: O_16  and  C_17
REMARK    7  A    between atoms: C_18  and  C_19
REMARK    8  A    between atoms: C_19  and  C_20
REMARK    9  A    between atoms: C_21  and  C_22
REMARK   10  A    between atoms: C_21  and  C_23
REMARK   11  A    between atoms: C_23  and  C_24
REMARK   12  A    between atoms: C_24  and  C_25
REMARK   13  A    between atoms: C_26  and  C_27
REMARK   14  A    between atoms: C_26  and  C_28
REMARK                            x       y       z     vdW  Elec       q    Type
REMARK                         _______ _______ _______ _____ _____    ______ ____
ROOT
ATOM      1  C   UNL     1       2.065   8.104  18.822  0.00  0.00    +0.000 A 
ATOM      2  C   UNL     1       2.027   9.413  18.325  0.00  0.00    +0.000 A 
ATOM      3  C   UNL     1       1.491  10.455  19.077  0.00  0.00    +0.000 A 
ATOM      4  C   UNL     1       0.948  10.173  20.331  0.00  0.00    +0.000 A 
ATOM      5  C   UNL     1       1.010   8.884  20.869  0.00  0.00    +0.000 A 
ATOM      6  C   UNL     1       1.621   7.840  20.138  0.00  0.00    +0.000 A 
ENDROOT
BRANCH   1   8
ATOM      7  C   UNL     1       3.870   7.270  17.524  0.00  0.00    +0.000 C 
ATOM      8  O   UNL     1       2.571   7.059  18.085  0.00  0.00    +0.000 OA
ENDBRANCH   1   8
BRANCH   3   9
ATOM      9  C   UNL     1       1.621  11.824  18.569  0.00  0.00    +0.000 C 
ATOM     10  C   UNL     1       1.894  12.893  19.329  0.00  0.00    +0.000 C 
BRANCH  10  11
ATOM     11  C   UNL     1       2.084  14.243  18.790  0.00  0.00    +0.000 A 
ATOM     12  C   UNL     1       3.202  14.497  17.994  0.00  0.00    +0.000 A 
ATOM     13  C   UNL     1       3.409  15.762  17.445  0.00  0.00    +0.000 A 
ATOM     14  C   UNL     1       2.494  16.786  17.688  0.00  0.00    +0.000 A 
ATOM     15  C   UNL     1       1.363  16.542  18.462  0.00  0.00    +0.000 A 
ATOM     16  C   UNL     1       1.154  15.276  19.008  0.00  0.00    +0.000 A 
ENDBRANCH  10  11
ENDBRANCH   3   9
BRANCH   5  17
ATOM     17  O   UNL     1       0.489   8.571  22.101  0.00  0.00    +0.000 OA
ATOM     18  C   UNL     1      -0.162   9.624  22.807  0.00  0.00    +0.000 C 
ENDBRANCH   5  17
BRANCH   6  19
ATOM     19  C   UNL     1       1.911   6.505  20.815  0.00  0.00    +0.000 C 
BRANCH  19  20
ATOM     20  C   UNL     1       1.204   5.317  20.230  0.00  0.00    +0.000 C 
ATOM     21  C   UNL     1       1.326   4.023  20.607  0.00  0.00    +0.000 C 
ATOM     22  C   UNL     1       2.325   3.549  21.631  0.00  0.00    +0.000 C 
BRANCH  21  23
ATOM     23  C   UNL     1       0.448   2.904  20.045  0.00  0.00    +0.000 C 
BRANCH  23  24
ATOM     24  C   UNL     1       0.862   2.441  18.643  0.00  0.00    +0.000 C 
BRANCH  24  25
ATOM     25  C   UNL     1       1.922   3.240  17.948  0.00  0.00    +0.000 C 
ATOM     26  C   UNL     1       3.188   2.789  17.815  0.00  0.00    +0.000 C 
ATOM     27  C   UNL     1       3.657   1.447  18.322  0.00  0.00    +0.000 C 
ATOM     28  C   UNL     1       4.253   3.610  17.139  0.00  0.00    +0.000 C 
ENDBRANCH  24  25
ENDBRANCH  23  24
ENDBRANCH  21  23
ENDBRANCH  19  20
ENDBRANCH   6  19
TORSDOF 9
ENDMDL
MODEL 9
REMARK VINA RESULT:      -6.9      0.820      2.719
REMARK  Name = 
REMARK  14 active torsions:
REMARK  status: ('A' for Active; 'I' for Inactive)
REMARK    1  A    between atoms: C_1  and  O_2
REMARK    2  A    between atoms: O_2  and  C_3
REMARK    3  A    between atoms: C_5  and  C_6
REMARK    4  A    between atoms: C_7  and  C_8
REMARK    5  A    between atoms: C_15  and  O_16
REMARK    6  A    between atoms: O_16  and  C_17
REMARK    7  A    between atoms: C_18  and  C_19
REMARK    8  A    between atoms: C_19  and  C_20
REMARK    9  A    between atoms: C_21  and  C_22
REMARK   10  A    between atoms: C_21  and  C_23
REMARK   11  A    between atoms: C_23  and  C_24
REMARK   12  A    between atoms: C_24  and  C_25
REMARK   13  A    between atoms: C_26  and  C_27
REMARK   14  A    between atoms: C_26  and  C_28
REMARK                            x       y       z     vdW  Elec       q    Type
REMARK                         _______ _______ _______ _____ _____    ______ ____
ROOT
ATOM      1  C   UNL     1       4.884   6.412  17.681  0.00  0.00    +0.000 A 
ATOM      2  C   UNL     1       5.909   7.331  17.940  0.00  0.00    +0.000 A 
ATOM      3  C   UNL     1       7.193   7.140  17.436  0.00  0.00    +0.000 A 
ATOM      4  C   UNL     1       7.463   5.990  16.695  0.00  0.00    +0.000 A 
ATOM      5  C   UNL     1       6.451   5.078  16.386  0.00  0.00    +0.000 A 
ATOM      6  C   UNL     1       5.130   5.307  16.833  0.00  0.00    +0.000 A 
ENDROOT
BRANCH   1   8
ATOM      7  C   UNL     1       2.944   7.775  17.803  0.00  0.00    +0.000 C 
ATOM      8  O   UNL     1       3.615   6.572  18.188  0.00  0.00    +0.000 OA
ENDBRANCH   1   8
BRANCH   3   9
ATOM      9  C   UNL     1       8.179   8.212  17.610  0.00  0.00    +0.000 C 
ATOM     10  C   UNL     1       8.117   9.152  18.561  0.00  0.00    +0.000 C 
BRANCH  10  11
ATOM     11  C   UNL     1       9.147  10.176  18.757  0.00  0.00    +0.000 A 
ATOM     12  C   UNL     1       9.707  10.788  17.635  0.00  0.00    +0.000 A 
ATOM     13  C   UNL     1      10.676  11.782  17.777  0.00  0.00    +0.000 A 
ATOM     14  C   UNL     1      11.091  12.173  19.050  0.00  0.00    +0.000 A 
ATOM     15  C   UNL     1      10.526  11.587  20.179  0.00  0.00    +0.000 A 
ATOM     16  C   UNL     1       9.554  10.596  20.037  0.00  0.00    +0.000 A 
ENDBRANCH  10  11
ENDBRANCH   3   9
BRANCH   5  17
ATOM     17  O   UNL     1       6.680   3.937  15.655  0.00  0.00    +0.000 OA
ATOM     18  C   UNL     1       6.672   4.073  14.236  0.00  0.00    +0.000 C 
ENDBRANCH   5  17
BRANCH   6  19
ATOM     19  C   UNL     1       3.984   4.456  16.295  0.00  0.00    +0.000 C 
BRANCH  19  20
ATOM     20  C   UNL     1       3.433   3.438  17.250  0.00  0.00    +0.000 C 
ATOM     21  C   UNL     1       2.146   3.294  17.642  0.00  0.00    +0.000 C 
ATOM     22  C   UNL     1       1.050   4.255  17.256  0.00  0.00    +0.000 C 
BRANCH  21  23
ATOM     23  C   UNL     1       1.661   2.128  18.505  0.00  0.00    +0.000 C 
BRANCH  23  24
ATOM     24  C   UNL     1       1.405   2.510  19.967  0.00  0.00    +0.000 C 
BRANCH  24  25
ATOM     25  C   UNL     1       0.959   3.915  20.236  0.00  0.00    +0.000 C 
ATOM     26  C   UNL     1       1.822   4.879  20.622  0.00  0.00    +0.000 C 
ATOM     27  C   UNL     1       3.304   4.656  20.799  0.00  0.00    +0.000 C 
ATOM     28  C   UNL     1       1.361   6.281  20.917  0.00  0.00    +0.000 C 
ENDBRANCH  24  25
ENDBRANCH  23  24
ENDBRANCH  21  23
ENDBRANCH  19  20
ENDBRANCH   6  19
TORSDOF 9
ENDMDL
