MODEL 1
REMARK VINA RESULT:      -8.0      0.000      0.000
REMARK  Name = 
REMARK  3 active torsions:
REMARK  status: ('A' for Active; 'I' for Inactive)
REMARK    1  A    between atoms: C_12  and  C_13
REMARK    2  A    between atoms: C_12  and  C_18
REMARK    3  A    between atoms: C_14  and  C_15
REMARK                            x       y       z     vdW  Elec       q    Type
REMARK                         _______ _______ _______ _____ _____    ______ ____
ROOT
ATOM      1  O   UNL     1       7.806   5.523  19.215  0.00  0.00    +0.000 OA
ATOM      2  C   UNL     1       6.627   5.270  19.006  0.00  0.00    +0.000 C 
ATOM      3  N   UNL     1       6.081   4.075  19.379  0.00  0.00    +0.000 N 
ATOM      4  C   UNL     1       4.745   3.725  19.211  0.00  0.00    +0.000 A 
ATOM      5  C   UNL     1       4.199   2.582  19.817  0.00  0.00    +0.000 A 
ATOM      6 CL   UNL     1       5.144   1.595  20.870  0.00  0.00    +0.000 Cl
ATOM      7  C   UNL     1       2.867   2.236  19.593  0.00  0.00    +0.000 A 
ATOM      8  C   UNL     1       2.092   3.021  18.744  0.00  0.00    +0.000 A 
ATOM      9 CL   UNL     1       0.460   2.585  18.424  0.00  0.00    +0.000 Cl
ATOM     10  C   UNL     1       2.635   4.154  18.137  0.00  0.00    +0.000 A 
ATOM     11  C   UNL     1       3.970   4.529  18.387  0.00  0.00    +0.000 A 
ATOM     12  C   UNL     1       4.639   5.736  17.731  0.00  0.00    +0.000 C 
ATOM     13  O   UNL     1       5.775   6.192  18.493  0.00  0.00    +0.000 OA
ATOM     14  H   UNL     1       6.697   3.464  19.904  0.00  0.00    +0.000 HD
ENDROOT
BRANCH  12  15
ATOM     15  C   UNL     1       5.065   5.406  16.259  0.00  0.00    +0.000 C 
ATOM     16  F   UNL     1       4.475   4.273  15.793  0.00  0.00    +0.000 F 
ATOM     17  F   UNL     1       4.738   6.388  15.384  0.00  0.00    +0.000 F 
ATOM     18  F   UNL     1       6.401   5.209  16.145  0.00  0.00    +0.000 F 
ENDBRANCH  12  15
BRANCH  12  19
ATOM     19  C   UNL     1       3.622   6.866  17.755  0.00  0.00    +0.000 C 
ATOM     20  C   UNL     1       2.751   7.836  17.775  0.00  0.00    +0.000 C 
BRANCH  20  21
ATOM     21  C   UNL     1       1.715   8.824  17.735  0.00  0.00    +0.000 C 
ATOM     22  C   UNL     1       1.236   9.462  19.009  0.00  0.00    +0.000 C 
ATOM     23  C   UNL     1       2.098  10.245  18.061  0.00  0.00    +0.000 C 
ENDBRANCH  20  21
ENDBRANCH  12  19
TORSDOF 3
ENDMDL
MODEL 2
REMARK VINA RESULT:      -8.0      2.749      4.132
REMARK  Name = 
REMARK  3 active torsions:
REMARK  status: ('A' for Active; 'I' for Inactive)
REMARK    1  A    between atoms: C_12  and  C_13
REMARK    2  A    between atoms: C_12  and  C_18
REMARK    3  A    between atoms: C_14  and  C_15
REMARK                            x       y       z     vdW  Elec       q    Type
REMARK                         _______ _______ _______ _____ _____    ______ ____
ROOT
ATOM      1  O   UNL     1       5.236   2.270  19.758  0.00  0.00    +0.000 OA
ATOM      2  C   UNL     1       4.945   3.389  19.357  0.00  0.00    +0.000 C 
ATOM      3  N   UNL     1       3.704   3.918  19.568  0.00  0.00    +0.000 N 
ATOM      4  C   UNL     1       3.306   5.193  19.179  0.00  0.00    +0.000 A 
ATOM      5  C   UNL     1       2.101   5.759  19.624  0.00  0.00    +0.000 A 
ATOM      6 CL   UNL     1       1.088   4.928  20.746  0.00  0.00    +0.000 Cl
ATOM      7  C   UNL     1       1.712   7.023  19.179  0.00  0.00    +0.000 A 
ATOM      8  C   UNL     1       2.517   7.705  18.272  0.00  0.00    +0.000 A 
ATOM      9 CL   UNL     1       2.031   9.244  17.682  0.00  0.00    +0.000 Cl
ATOM     10  C   UNL     1       3.712   7.140  17.825  0.00  0.00    +0.000 A 
ATOM     11  C   UNL     1       4.130   5.880  18.297  0.00  0.00    +0.000 A 
ATOM     12  C   UNL     1       5.408   5.188  17.825  0.00  0.00    +0.000 C 
ATOM     13  O   UNL     1       5.861   4.205  18.778  0.00  0.00    +0.000 OA
ATOM     14  H   UNL     1       3.086   3.354  20.143  0.00  0.00    +0.000 HD
ENDROOT
BRANCH  12  15
ATOM     15  C   UNL     1       5.199   4.531  16.418  0.00  0.00    +0.000 C 
ATOM     16  F   UNL     1       5.188   5.449  15.416  0.00  0.00    +0.000 F 
ATOM     17  F   UNL     1       6.173   3.641  16.103  0.00  0.00    +0.000 F 
ATOM     18  F   UNL     1       4.021   3.866  16.333  0.00  0.00    +0.000 F 
ENDBRANCH  12  15
BRANCH  12  19
ATOM     19  C   UNL     1       6.487   6.257  17.764  0.00  0.00    +0.000 C 
ATOM     20  C   UNL     1       7.412   7.174  17.710  0.00  0.00    +0.000 C 
BRANCH  20  21
ATOM     21  C   UNL     1       8.355   8.243  17.570  0.00  0.00    +0.000 C 
ATOM     22  C   UNL     1       7.920   9.663  17.800  0.00  0.00    +0.000 C 
ATOM     23  C   UNL     1       8.772   8.970  18.824  0.00  0.00    +0.000 C 
ENDBRANCH  20  21
ENDBRANCH  12  19
TORSDOF 3
ENDMDL
MODEL 3
REMARK VINA RESULT:      -7.7      3.390      5.298
REMARK  Name = 
REMARK  3 active torsions:
REMARK  status: ('A' for Active; 'I' for Inactive)
REMARK    1  A    between atoms: C_12  and  C_13
REMARK    2  A    between atoms: C_12  and  C_18
REMARK    3  A    between atoms: C_14  and  C_15
REMARK                            x       y       z     vdW  Elec       q    Type
REMARK                         _______ _______ _______ _____ _____    ______ ____
ROOT
ATOM      1  O   UNL     1       2.223   3.624  21.893  0.00  0.00    +0.000 OA
ATOM      2  C   UNL     1       2.386   4.553  21.114  0.00  0.00    +0.000 C 
ATOM      3  N   UNL     1       1.620   5.681  21.186  0.00  0.00    +0.000 N 
ATOM      4  C   UNL     1       1.765   6.795  20.364  0.00  0.00    +0.000 A 
ATOM      5  C   UNL     1       1.106   8.004  20.635  0.00  0.00    +0.000 A 
ATOM      6 CL   UNL     1       0.142   8.194  22.053  0.00  0.00    +0.000 Cl
ATOM      7  C   UNL     1       1.239   9.087  19.766  0.00  0.00    +0.000 A 
ATOM      8  C   UNL     1       2.011   8.949  18.617  0.00  0.00    +0.000 A 
ATOM      9 CL   UNL     1       2.152  10.260  17.514  0.00  0.00    +0.000 Cl
ATOM     10  C   UNL     1       2.663   7.745  18.344  0.00  0.00    +0.000 A 
ATOM     11  C   UNL     1       2.562   6.658  19.235  0.00  0.00    +0.000 A 
ATOM     12  C   UNL     1       3.219   5.302  18.983  0.00  0.00    +0.000 C 
ATOM     13  O   UNL     1       3.396   4.563  20.208  0.00  0.00    +0.000 OA
ATOM     14  H   UNL     1       0.979   5.719  21.971  0.00  0.00    +0.000 HD
ENDROOT
BRANCH  12  15
ATOM     15  C   UNL     1       2.389   4.463  17.952  0.00  0.00    +0.000 C 
ATOM     16  F   UNL     1       3.126   4.104  16.868  0.00  0.00    +0.000 F 
ATOM     17  F   UNL     1       1.908   3.310  18.478  0.00  0.00    +0.000 F 
ATOM     18  F   UNL     1       1.324   5.149  17.473  0.00  0.00    +0.000 F 
ENDBRANCH  12  15
BRANCH  12  19
ATOM     19  C   UNL     1       4.613   5.585  18.447  0.00  0.00    +0.000 C 
ATOM     20  C   UNL     1       5.809   5.828  17.986  0.00  0.00    +0.000 C 
BRANCH  20  21
ATOM     21  C   UNL     1       7.135   6.178  17.575  0.00  0.00    +0.000 C 
ATOM     22  C   UNL     1       7.551   7.622  17.531  0.00  0.00    +0.000 C 
ATOM     23  C   UNL     1       8.064   6.732  18.625  0.00  0.00    +0.000 C 
ENDBRANCH  20  21
ENDBRANCH  12  19
TORSDOF 3
ENDMDL
MODEL 4
REMARK VINA RESULT:      -7.7      2.462      4.617
REMARK  Name = 
REMARK  3 active torsions:
REMARK  status: ('A' for Active; 'I' for Inactive)
REMARK    1  A    between atoms: C_12  and  C_13
REMARK    2  A    between atoms: C_12  and  C_18
REMARK    3  A    between atoms: C_14  and  C_15
REMARK                            x       y       z     vdW  Elec       q    Type
REMARK                         _______ _______ _______ _____ _____    ______ ____
ROOT
ATOM      1  O   UNL     1       3.273   8.498  17.656  0.00  0.00    +0.000 OA
ATOM      2  C   UNL     1       3.531   7.302  17.668  0.00  0.00    +0.000 C 
ATOM      3  N   UNL     1       2.938   6.458  18.563  0.00  0.00    +0.000 N 
ATOM      4  C   UNL     1       3.147   5.084  18.619  0.00  0.00    +0.000 A 
ATOM      5  C   UNL     1       2.341   4.244  19.404  0.00  0.00    +0.000 A 
ATOM      6 CL   UNL     1       0.993   4.870  20.279  0.00  0.00    +0.000 Cl
ATOM      7  C   UNL     1       2.606   2.877  19.471  0.00  0.00    +0.000 A 
ATOM      8  C   UNL     1       3.691   2.357  18.772  0.00  0.00    +0.000 A 
ATOM      9 CL   UNL     1       4.057   0.681  18.878  0.00  0.00    +0.000 Cl
ATOM     10  C   UNL     1       4.497   3.191  17.996  0.00  0.00    +0.000 A 
ATOM     11  C   UNL     1       4.214   4.569  17.895  0.00  0.00    +0.000 A 
ATOM     12  C   UNL     1       5.072   5.544  17.092  0.00  0.00    +0.000 C 
ATOM     13  O   UNL     1       4.333   6.731  16.736  0.00  0.00    +0.000 OA
ATOM     14  H   UNL     1       2.222   6.879  19.146  0.00  0.00    +0.000 HD
ENDROOT
BRANCH  12  15
ATOM     15  C   UNL     1       6.371   5.926  17.881  0.00  0.00    +0.000 C 
ATOM     16  F   UNL     1       6.217   5.785  19.225  0.00  0.00    +0.000 F 
ATOM     17  F   UNL     1       7.437   5.160  17.542  0.00  0.00    +0.000 F 
ATOM     18  F   UNL     1       6.735   7.215  17.677  0.00  0.00    +0.000 F 
ENDBRANCH  12  15
BRANCH  12  19
ATOM     19  C   UNL     1       5.422   4.848  15.787  0.00  0.00    +0.000 C 
ATOM     20  C   UNL     1       5.723   4.250  14.667  0.00  0.00    +0.000 C 
BRANCH  20  21
ATOM     21  C   UNL     1       6.059   3.486  13.504  0.00  0.00    +0.000 C 
ATOM     22  C   UNL     1       5.259   3.650  12.242  0.00  0.00    +0.000 C 
ATOM     23  C   UNL     1       6.640   4.231  12.329  0.00  0.00    +0.000 C 
ENDBRANCH  20  21
ENDBRANCH  12  19
TORSDOF 3
ENDMDL
MODEL 5
REMARK VINA RESULT:      -7.5      3.404      4.535
REMARK  Name = 
REMARK  3 active torsions:
REMARK  status: ('A' for Active; 'I' for Inactive)
REMARK    1  A    between atoms: C_12  and  C_13
REMARK    2  A    between atoms: C_12  and  C_18
REMARK    3  A    between atoms: C_14  and  C_15
REMARK                            x       y       z     vdW  Elec       q    Type
REMARK                         _______ _______ _______ _____ _____    ______ ____
ROOT
ATOM      1  O   UNL     1       1.850   2.814  17.021  0.00  0.00    +0.000 OA
ATOM      2  C   UNL     1       2.576   3.789  17.168  0.00  0.00    +0.000 C 
ATOM      3  N   UNL     1       3.885   3.762  16.783  0.00  0.00    +0.000 N 
ATOM      4  C   UNL     1       4.765   4.835  16.881  0.00  0.00    +0.000 A 
ATOM      5  C   UNL     1       6.025   4.817  16.262  0.00  0.00    +0.000 A 
ATOM      6 CL   UNL     1       6.514   3.488  15.278  0.00  0.00    +0.000 Cl
ATOM      7  C   UNL     1       6.900   5.893  16.417  0.00  0.00    +0.000 A 
ATOM      8  C   UNL     1       6.521   6.971  17.210  0.00  0.00    +0.000 A 
ATOM      9 CL   UNL     1       7.604   8.286  17.445  0.00  0.00    +0.000 Cl
ATOM     10  C   UNL     1       5.271   6.988  17.830  0.00  0.00    +0.000 A 
ATOM     11  C   UNL     1       4.368   5.921  17.650  0.00  0.00    +0.000 A 
ATOM     12  C   UNL     1       2.999   5.858  18.324  0.00  0.00    +0.000 C 
ATOM     13  O   UNL     1       2.101   4.976  17.620  0.00  0.00    +0.000 OA
ATOM     14  H   UNL     1       4.178   2.918  16.302  0.00  0.00    +0.000 HD
ENDROOT
BRANCH  12  15
ATOM     15  C   UNL     1       3.135   5.416  19.822  0.00  0.00    +0.000 C 
ATOM     16  F   UNL     1       2.364   4.336  20.113  0.00  0.00    +0.000 F 
ATOM     17  F   UNL     1       4.404   5.075  20.157  0.00  0.00    +0.000 F 
ATOM     18  F   UNL     1       2.754   6.393  20.680  0.00  0.00    +0.000 F 
ENDBRANCH  12  15
BRANCH  12  19
ATOM     19  C   UNL     1       2.398   7.251  18.228  0.00  0.00    +0.000 C 
ATOM     20  C   UNL     1       1.883   8.446  18.145  0.00  0.00    +0.000 C 
BRANCH  20  21
ATOM     21  C   UNL     1       1.377   9.770  17.943  0.00  0.00    +0.000 C 
ATOM     22  C   UNL     1      -0.047  10.092  18.302  0.00  0.00    +0.000 C 
ATOM     23  C   UNL     1       1.072  10.591  19.170  0.00  0.00    +0.000 C 
ENDBRANCH  20  21
ENDBRANCH  12  19
TORSDOF 3
ENDMDL
MODEL 6
REMARK VINA RESULT:      -7.3      3.387      5.299
REMARK  Name = 
REMARK  3 active torsions:
REMARK  status: ('A' for Active; 'I' for Inactive)
REMARK    1  A    between atoms: C_12  and  C_13
REMARK    2  A    between atoms: C_12  and  C_18
REMARK    3  A    between atoms: C_14  and  C_15
REMARK                            x       y       z     vdW  Elec       q    Type
REMARK                         _______ _______ _______ _____ _____    ______ ____
ROOT
ATOM      1  O   UNL     1       2.092   2.987  22.011  0.00  0.00    +0.000 OA
ATOM      2  C   UNL     1       2.323   3.835  21.160  0.00  0.00    +0.000 C 
ATOM      3  N   UNL     1       1.717   5.058  21.195  0.00  0.00    +0.000 N 
ATOM      4  C   UNL     1       1.951   6.087  20.289  0.00  0.00    +0.000 A 
ATOM      5  C   UNL     1       1.474   7.389  20.509  0.00  0.00    +0.000 A 
ATOM      6 CL   UNL     1       0.636   7.796  21.961  0.00  0.00    +0.000 Cl
ATOM      7  C   UNL     1       1.690   8.387  19.559  0.00  0.00    +0.000 A 
ATOM      8  C   UNL     1       2.362   8.075  18.382  0.00  0.00    +0.000 A 
ATOM      9 CL   UNL     1       2.599   9.283  17.182  0.00  0.00    +0.000 Cl
ATOM     10  C   UNL     1       2.832   6.780  18.159  0.00  0.00    +0.000 A 
ATOM     11  C   UNL     1       2.649   5.774  19.129  0.00  0.00    +0.000 A 
ATOM     12  C   UNL     1       3.107   4.330  18.938  0.00  0.00    +0.000 C 
ATOM     13  O   UNL     1       3.265   3.652  20.201  0.00  0.00    +0.000 OA
ATOM     14  H   UNL     1       1.138   5.231  22.010  0.00  0.00    +0.000 HD
ENDROOT
BRANCH  12  15
ATOM     15  C   UNL     1       2.111   3.546  18.018  0.00  0.00    +0.000 C 
ATOM     16  F   UNL     1       0.921   4.189  17.880  0.00  0.00    +0.000 F 
ATOM     17  F   UNL     1       2.587   3.362  16.762  0.00  0.00    +0.000 F 
ATOM     18  F   UNL     1       1.819   2.317  18.509  0.00  0.00    +0.000 F 
ENDBRANCH  12  15
BRANCH  12  19
ATOM     19  C   UNL     1       4.489   4.389  18.306  0.00  0.00    +0.000 C 
ATOM     20  C   UNL     1       5.673   4.440  17.764  0.00  0.00    +0.000 C 
BRANCH  20  21
ATOM     21  C   UNL     1       6.936   4.598  17.106  0.00  0.00    +0.000 C 
ATOM     22  C   UNL     1       6.984   4.853  15.626  0.00  0.00    +0.000 C 
ATOM     23  C   UNL     1       7.278   5.970  16.584  0.00  0.00    +0.000 C 
ENDBRANCH  20  21
ENDBRANCH  12  19
TORSDOF 3
ENDMDL
MODEL 7
REMARK VINA RESULT:      -7.2      2.833      4.969
REMARK  Name = 
REMARK  3 active torsions:
REMARK  status: ('A' for Active; 'I' for Inactive)
REMARK    1  A    between atoms: C_12  and  C_13
REMARK    2  A    between atoms: C_12  and  C_18
REMARK    3  A    between atoms: C_14  and  C_15
REMARK                            x       y       z     vdW  Elec       q    Type
REMARK                         _______ _______ _______ _____ _____    ______ ____
ROOT
ATOM      1  O   UNL     1       6.844   8.774  17.190  0.00  0.00    +0.000 OA
ATOM      2  C   UNL     1       6.224   7.720  17.126  0.00  0.00    +0.000 C 
ATOM      3  N   UNL     1       5.057   7.543  17.811  0.00  0.00    +0.000 N 
ATOM      4  C   UNL     1       4.274   6.394  17.764  0.00  0.00    +0.000 A 
ATOM      5  C   UNL     1       2.979   6.358  18.304  0.00  0.00    +0.000 A 
ATOM      6 CL   UNL     1       2.261   7.771  18.987  0.00  0.00    +0.000 Cl
ATOM      7  C   UNL     1       2.238   5.177  18.278  0.00  0.00    +0.000 A 
ATOM      8  C   UNL     1       2.804   4.029  17.733  0.00  0.00    +0.000 A 
ATOM      9 CL   UNL     1       1.921   2.554  17.731  0.00  0.00    +0.000 Cl
ATOM     10  C   UNL     1       4.093   4.061  17.200  0.00  0.00    +0.000 A 
ATOM     11  C   UNL     1       4.834   5.260  17.191  0.00  0.00    +0.000 A 
ATOM     12  C   UNL     1       6.261   5.360  16.655  0.00  0.00    +0.000 C 
ATOM     13  O   UNL     1       6.599   6.715  16.296  0.00  0.00    +0.000 OA
ATOM     14  H   UNL     1       4.712   8.364  18.298  0.00  0.00    +0.000 HD
ENDROOT
BRANCH  12  15
ATOM     15  C   UNL     1       7.289   4.798  17.696  0.00  0.00    +0.000 C 
ATOM     16  F   UNL     1       8.012   5.783  18.291  0.00  0.00    +0.000 F 
ATOM     17  F   UNL     1       6.695   4.107  18.701  0.00  0.00    +0.000 F 
ATOM     18  F   UNL     1       8.190   3.961  17.126  0.00  0.00    +0.000 F 
ENDBRANCH  12  15
BRANCH  12  19
ATOM     19  C   UNL     1       6.303   4.551  15.368  0.00  0.00    +0.000 C 
ATOM     20  C   UNL     1       6.340   3.857  14.265  0.00  0.00    +0.000 C 
BRANCH  20  21
ATOM     21  C   UNL     1       6.254   3.085  13.062  0.00  0.00    +0.000 C 
ATOM     22  C   UNL     1       5.270   3.469  11.992  0.00  0.00    +0.000 C 
ATOM     23  C   UNL     1       6.734   3.731  11.787  0.00  0.00    +0.000 C 
ENDBRANCH  20  21
ENDBRANCH  12  19
TORSDOF 3
ENDMDL
MODEL 8
REMARK VINA RESULT:      -7.1      3.431      5.452
REMARK  Name = 
REMARK  3 active torsions:
REMARK  status: ('A' for Active; 'I' for Inactive)
REMARK    1  A    between atoms: C_12  and  C_13
REMARK    2  A    between atoms: C_12  and  C_18
REMARK    3  A    between atoms: C_14  and  C_15
REMARK                            x       y       z     vdW  Elec       q    Type
REMARK                         _______ _______ _______ _____ _____    ______ ____
ROOT
ATOM      1  O   UNL     1       2.385   3.574  21.794  0.00  0.00    +0.000 OA
ATOM      2  C   UNL     1       2.441   4.490  20.984  0.00  0.00    +0.000 C 
ATOM      3  N   UNL     1       1.793   5.671  21.205  0.00  0.00    +0.000 N 
ATOM      4  C   UNL     1       1.837   6.772  20.356  0.00  0.00    +0.000 A 
ATOM      5  C   UNL     1       1.342   8.027  20.746  0.00  0.00    +0.000 A 
ATOM      6 CL   UNL     1       0.725   8.285  22.336  0.00  0.00    +0.000 Cl
ATOM      7  C   UNL     1       1.361   9.098  19.854  0.00  0.00    +0.000 A 
ATOM      8  C   UNL     1       1.853   8.906  18.567  0.00  0.00    +0.000 A 
ATOM      9 CL   UNL     1       1.845  10.205  17.441  0.00  0.00    +0.000 Cl
ATOM     10  C   UNL     1       2.340   7.658  18.176  0.00  0.00    +0.000 A 
ATOM     11  C   UNL     1       2.357   6.579  19.083  0.00  0.00    +0.000 A 
ATOM     12  C   UNL     1       2.844   5.180  18.713  0.00  0.00    +0.000 C 
ATOM     13  O   UNL     1       3.228   4.426  19.882  0.00  0.00    +0.000 OA
ATOM     14  H   UNL     1       1.343   5.755  22.110  0.00  0.00    +0.000 HD
ENDROOT
BRANCH  12  15
ATOM     15  C   UNL     1       1.751   4.406  17.899  0.00  0.00    +0.000 C 
ATOM     16  F   UNL     1       0.964   5.241  17.169  0.00  0.00    +0.000 F 
ATOM     17  F   UNL     1       2.279   3.520  17.019  0.00  0.00    +0.000 F 
ATOM     18  F   UNL     1       0.914   3.706  18.703  0.00  0.00    +0.000 F 
ENDBRANCH  12  15
BRANCH  12  19
ATOM     19  C   UNL     1       4.104   5.360  17.884  0.00  0.00    +0.000 C 
ATOM     20  C   UNL     1       5.186   5.515  17.172  0.00  0.00    +0.000 C 
BRANCH  20  21
ATOM     21  C   UNL     1       6.395   5.561  16.406  0.00  0.00    +0.000 C 
ATOM     22  C   UNL     1       7.360   4.409  16.455  0.00  0.00    +0.000 C 
ATOM     23  C   UNL     1       6.511   4.618  15.234  0.00  0.00    +0.000 C 
ENDBRANCH  20  21
ENDBRANCH  12  19
TORSDOF 3
ENDMDL
MODEL 9
REMARK VINA RESULT:      -7.0      3.392      4.570
REMARK  Name = 
REMARK  3 active torsions:
REMARK  status: ('A' for Active; 'I' for Inactive)
REMARK    1  A    between atoms: C_12  and  C_13
REMARK    2  A    between atoms: C_12  and  C_18
REMARK    3  A    between atoms: C_14  and  C_15
REMARK                            x       y       z     vdW  Elec       q    Type
REMARK                         _______ _______ _______ _____ _____    ______ ____
ROOT
ATOM      1  O   UNL     1       1.965   2.512  16.897  0.00  0.00    +0.000 OA
ATOM      2  C   UNL     1       2.685   3.479  17.106  0.00  0.00    +0.000 C 
ATOM      3  N   UNL     1       3.934   3.562  16.563  0.00  0.00    +0.000 N 
ATOM      4  C   UNL     1       4.800   4.640  16.721  0.00  0.00    +0.000 A 
ATOM      5  C   UNL     1       5.970   4.767  15.956  0.00  0.00    +0.000 A 
ATOM      6 CL   UNL     1       6.354   3.627  14.721  0.00  0.00    +0.000 Cl
ATOM      7  C   UNL     1       6.837   5.839  16.171  0.00  0.00    +0.000 A 
ATOM      8  C   UNL     1       6.543   6.766  17.166  0.00  0.00    +0.000 A 
ATOM      9 CL   UNL     1       7.622   8.068  17.472  0.00  0.00    +0.000 Cl
ATOM     10  C   UNL     1       5.383   6.638  17.930  0.00  0.00    +0.000 A 
ATOM     11  C   UNL     1       4.484   5.578  17.696  0.00  0.00    +0.000 A 
ATOM     12  C   UNL     1       3.214   5.358  18.515  0.00  0.00    +0.000 C 
ATOM     13  O   UNL     1       2.249   4.562  17.796  0.00  0.00    +0.000 OA
ATOM     14  H   UNL     1       4.178   2.815  15.921  0.00  0.00    +0.000 HD
ENDROOT
BRANCH  12  15
ATOM     15  C   UNL     1       3.549   4.695  19.895  0.00  0.00    +0.000 C 
ATOM     16  F   UNL     1       4.886   4.641  20.130  0.00  0.00    +0.000 F 
ATOM     17  F   UNL     1       3.008   5.361  20.945  0.00  0.00    +0.000 F 
ATOM     18  F   UNL     1       3.101   3.418  19.972  0.00  0.00    +0.000 F 
ENDBRANCH  12  15
BRANCH  12  19
ATOM     19  C   UNL     1       2.580   6.724  18.716  0.00  0.00    +0.000 C 
ATOM     20  C   UNL     1       2.036   7.897  18.889  0.00  0.00    +0.000 C 
BRANCH  20  21
ATOM     21  C   UNL     1       1.526   9.231  18.998  0.00  0.00    +0.000 C 
ATOM     22  C   UNL     1       1.910  10.268  17.981  0.00  0.00    +0.000 C 
ATOM     23  C   UNL     1       0.529   9.679  17.959  0.00  0.00    +0.000 C 
ENDBRANCH  20  21
ENDBRANCH  12  19
TORSDOF 3
ENDMDL
