MODEL 1
REMARK VINA RESULT:      -6.9      0.000      0.000
REMARK  Name = 
REMARK  17 active torsions:
REMARK  status: ('A' for Active; 'I' for Inactive)
REMARK    1  A    between atoms: C_1  and  C_2
REMARK    2  A    between atoms: C_2  and  C_3
REMARK    3  A    between atoms: C_3  and  C_4
REMARK    4  A    between atoms: C_4  and  C_5
REMARK    5  A    between atoms: C_5  and  C_6
REMARK    6  A    between atoms: C_6  and  C_7
REMARK    7  A    between atoms: C_7  and  C_8
REMARK    8  A    between atoms: C_8  and  C_9
REMARK    9  A    between atoms: C_9  and  C_10
REMARK   10  A    between atoms: N_12  and  N_13
REMARK   11  A    between atoms: N_13  and  C_24
REMARK   12  A    between atoms: C_14  and  C_16
REMARK   13  A    between atoms: C_18  and  C_19
REMARK   14  A    between atoms: C_21  and  C_22
REMARK   15  A    between atoms: C_24  and  C_25
REMARK   16  A    between atoms: C_24  and  C_26
REMARK   17  A    between atoms: C_24  and  C_27
REMARK                            x       y       z     vdW  Elec       q    Type
REMARK                         _______ _______ _______ _____ _____    ______ ____
ROOT
ATOM      1  N   UNL     1       3.434   5.428  17.678  0.00  0.00    +0.000 N 
ATOM      2  C   UNL     1       3.332   6.858  17.712  0.00  0.00    +0.000 C 
ATOM      3  O   UNL     1       4.189   7.560  17.159  0.00  0.00    +0.000 OA
ENDROOT
BRANCH   2   4
ATOM      4  C   UNL     1       2.260   7.617  18.485  0.00  0.00    +0.000 A 
ATOM      5  C   UNL     1       2.167   7.691  19.868  0.00  0.00    +0.000 A 
ATOM      6  C   UNL     1       1.369   8.576  20.589  0.00  0.00    +0.000 A 
ATOM      7  C   UNL     1       1.544   8.614  22.083  0.00  0.00    +0.000 C 
ATOM      8  C   UNL     1       0.519   9.396  19.875  0.00  0.00    +0.000 A 
ATOM      9  C   UNL     1       0.467   9.294  18.476  0.00  0.00    +0.000 A 
ATOM     10  C   UNL     1      -0.469  10.174  17.707  0.00  0.00    +0.000 C 
ATOM     11  C   UNL     1       1.340   8.415  17.788  0.00  0.00    +0.000 A 
ENDBRANCH   2   4
BRANCH   1  14
ATOM     12  C   UNL     1       5.834   4.868  17.514  0.00  0.00    +0.000 C 
ATOM     13  O   UNL     1       6.110   5.238  18.657  0.00  0.00    +0.000 OA
ATOM     14  N   UNL     1       4.560   4.883  16.964  0.00  0.00    +0.000 N 
ATOM     15  H   UNL     1       4.414   4.636  15.992  0.00  0.00    +0.000 HD
BRANCH  12  16
ATOM     16  C   UNL     1       6.913   4.432  16.517  0.00  0.00    +0.000 C 
BRANCH  16  17
ATOM     17  C   UNL     1       6.966   5.371  15.303  0.00  0.00    +0.000 C 
BRANCH  17  18
ATOM     18  C   UNL     1       7.391   4.686  13.998  0.00  0.00    +0.000 C 
BRANCH  18  19
ATOM     19  C   UNL     1       6.181   4.021  13.327  0.00  0.00    +0.000 C 
BRANCH  19  20
ATOM     20  C   UNL     1       6.580   3.192  12.107  0.00  0.00    +0.000 C 
BRANCH  20  21
ATOM     21  C   UNL     1       5.370   2.488  11.486  0.00  0.00    +0.000 C 
BRANCH  21  22
ATOM     22  C   UNL     1       4.106   3.331  11.649  0.00  0.00    +0.000 C 
BRANCH  22  24
ATOM     23  C   UNL     1       2.996   4.296   9.611  0.00  0.00    +0.000 C 
ATOM     24  C   UNL     1       3.104   3.084  10.522  0.00  0.00    +0.000 C 
ENDBRANCH  22  24
ENDBRANCH  21  22
ENDBRANCH  20  21
ENDBRANCH  19  20
ENDBRANCH  18  19
ENDBRANCH  17  18
ENDBRANCH  16  17
ENDBRANCH  12  16
ENDBRANCH   1  14
BRANCH   1  25
ATOM     25  C   UNL     1       2.668   4.387  18.437  0.00  0.00    +0.000 C 
ATOM     26  C   UNL     1       1.127   4.500  18.447  0.00  0.00    +0.000 C 
ATOM     27  C   UNL     1       2.875   2.994  17.736  0.00  0.00    +0.000 C 
ATOM     28  C   UNL     1       3.008   4.537  19.962  0.00  0.00    +0.000 C 
ENDBRANCH   1  25
TORSDOF 11
ENDMDL
MODEL 2
REMARK VINA RESULT:      -6.4      4.400      7.392
REMARK  Name = 
REMARK  17 active torsions:
REMARK  status: ('A' for Active; 'I' for Inactive)
REMARK    1  A    between atoms: C_1  and  C_2
REMARK    2  A    between atoms: C_2  and  C_3
REMARK    3  A    between atoms: C_3  and  C_4
REMARK    4  A    between atoms: C_4  and  C_5
REMARK    5  A    between atoms: C_5  and  C_6
REMARK    6  A    between atoms: C_6  and  C_7
REMARK    7  A    between atoms: C_7  and  C_8
REMARK    8  A    between atoms: C_8  and  C_9
REMARK    9  A    between atoms: C_9  and  C_10
REMARK   10  A    between atoms: N_12  and  N_13
REMARK   11  A    between atoms: N_13  and  C_24
REMARK   12  A    between atoms: C_14  and  C_16
REMARK   13  A    between atoms: C_18  and  C_19
REMARK   14  A    between atoms: C_21  and  C_22
REMARK   15  A    between atoms: C_24  and  C_25
REMARK   16  A    between atoms: C_24  and  C_26
REMARK   17  A    between atoms: C_24  and  C_27
REMARK                            x       y       z     vdW  Elec       q    Type
REMARK                         _______ _______ _______ _____ _____    ______ ____
ROOT
ATOM      1  N   UNL     1      -0.675  10.882  19.729  0.00  0.00    +0.000 N 
ATOM      2  C   UNL     1      -0.533  11.021  21.148  0.00  0.00    +0.000 C 
ATOM      3  O   UNL     1       0.083  10.170  21.803  0.00  0.00    +0.000 OA
ENDROOT
BRANCH   2   4
ATOM      4  C   UNL     1      -1.183  12.132  21.965  0.00  0.00    +0.000 A 
ATOM      5  C   UNL     1      -2.355  12.008  22.701  0.00  0.00    +0.000 A 
ATOM      6  C   UNL     1      -2.824  12.911  23.651  0.00  0.00    +0.000 A 
ATOM      7  C   UNL     1      -4.025  12.506  24.464  0.00  0.00    +0.000 C 
ATOM      8  C   UNL     1      -2.119  14.085  23.819  0.00  0.00    +0.000 A 
ATOM      9  C   UNL     1      -0.991  14.338  23.024  0.00  0.00    +0.000 A 
ATOM     10  C   UNL     1      -0.239  15.620  23.200  0.00  0.00    +0.000 C 
ATOM     11  C   UNL     1      -0.524  13.361  22.110  0.00  0.00    +0.000 A 
ENDBRANCH   2   4
BRANCH   1  14
ATOM     12  C   UNL     1       1.173   9.803  18.495  0.00  0.00    +0.000 C 
ATOM     13  O   UNL     1       1.870  10.817  18.437  0.00  0.00    +0.000 OA
ATOM     14  N   UNL     1      -0.057   9.725  19.134  0.00  0.00    +0.000 N 
ATOM     15  H   UNL     1      -0.616   8.881  19.078  0.00  0.00    +0.000 HD
BRANCH  12  16
ATOM     16  C   UNL     1       1.551   8.511  17.763  0.00  0.00    +0.000 C 
BRANCH  16  17
ATOM     17  C   UNL     1       3.025   8.148  17.992  0.00  0.00    +0.000 C 
BRANCH  17  18
ATOM     18  C   UNL     1       3.332   6.652  17.851  0.00  0.00    +0.000 C 
BRANCH  18  19
ATOM     19  C   UNL     1       2.329   5.825  18.666  0.00  0.00    +0.000 C 
BRANCH  19  20
ATOM     20  C   UNL     1       1.733   4.674  17.854  0.00  0.00    +0.000 C 
BRANCH  20  21
ATOM     21  C   UNL     1       2.815   3.694  17.392  0.00  0.00    +0.000 C 
BRANCH  21  22
ATOM     22  C   UNL     1       2.436   2.256  17.749  0.00  0.00    +0.000 C 
BRANCH  22  24
ATOM     23  C   UNL     1       4.093   2.463  19.627  0.00  0.00    +0.000 C 
ATOM     24  C   UNL     1       3.537   1.554  18.541  0.00  0.00    +0.000 C 
ENDBRANCH  22  24
ENDBRANCH  21  22
ENDBRANCH  20  21
ENDBRANCH  19  20
ENDBRANCH  18  19
ENDBRANCH  17  18
ENDBRANCH  16  17
ENDBRANCH  12  16
ENDBRANCH   1  14
BRANCH   1  25
ATOM     25  C   UNL     1      -1.539  11.639  18.766  0.00  0.00    +0.000 C 
ATOM     26  C   UNL     1      -2.911  12.137  19.277  0.00  0.00    +0.000 C 
ATOM     27  C   UNL     1      -0.829  12.995  18.407  0.00  0.00    +0.000 C 
ATOM     28  C   UNL     1      -1.965  10.665  17.611  0.00  0.00    +0.000 C 
ENDBRANCH   1  25
TORSDOF 11
ENDMDL
MODEL 3
REMARK VINA RESULT:      -6.4      4.751      7.881
REMARK  Name = 
REMARK  17 active torsions:
REMARK  status: ('A' for Active; 'I' for Inactive)
REMARK    1  A    between atoms: C_1  and  C_2
REMARK    2  A    between atoms: C_2  and  C_3
REMARK    3  A    between atoms: C_3  and  C_4
REMARK    4  A    between atoms: C_4  and  C_5
REMARK    5  A    between atoms: C_5  and  C_6
REMARK    6  A    between atoms: C_6  and  C_7
REMARK    7  A    between atoms: C_7  and  C_8
REMARK    8  A    between atoms: C_8  and  C_9
REMARK    9  A    between atoms: C_9  and  C_10
REMARK   10  A    between atoms: N_12  and  N_13
REMARK   11  A    between atoms: N_13  and  C_24
REMARK   12  A    between atoms: C_14  and  C_16
REMARK   13  A    between atoms: C_18  and  C_19
REMARK   14  A    between atoms: C_21  and  C_22
REMARK   15  A    between atoms: C_24  and  C_25
REMARK   16  A    between atoms: C_24  and  C_26
REMARK   17  A    between atoms: C_24  and  C_27
REMARK                            x       y       z     vdW  Elec       q    Type
REMARK                         _______ _______ _______ _____ _____    ______ ____
ROOT
ATOM      1  N   UNL     1      -0.240  10.866  21.101  0.00  0.00    +0.000 N 
ATOM      2  C   UNL     1      -0.540  11.095  22.484  0.00  0.00    +0.000 C 
ATOM      3  O   UNL     1      -0.088  10.340  23.356  0.00  0.00    +0.000 OA
ENDROOT
BRANCH   2   4
ATOM      4  C   UNL     1      -1.483  12.183  22.983  0.00  0.00    +0.000 A 
ATOM      5  C   UNL     1      -2.792  11.982  23.402  0.00  0.00    +0.000 A 
ATOM      6  C   UNL     1      -3.578  12.897  24.098  0.00  0.00    +0.000 A 
ATOM      7  C   UNL     1      -4.909  12.420  24.613  0.00  0.00    +0.000 C 
ATOM      8  C   UNL     1      -3.054  14.154  24.315  0.00  0.00    +0.000 A 
ATOM      9  C   UNL     1      -1.782  14.474  23.814  0.00  0.00    +0.000 A 
ATOM     10  C   UNL     1      -1.225  15.844  24.039  0.00  0.00    +0.000 C 
ATOM     11  C   UNL     1      -1.001  13.488  23.160  0.00  0.00    +0.000 A 
ENDBRANCH   2   4
BRANCH   1  14
ATOM     12  C   UNL     1       0.218   8.439  21.091  0.00  0.00    +0.000 C 
ATOM     13  O   UNL     1      -0.884   8.119  21.538  0.00  0.00    +0.000 OA
ATOM     14  N   UNL     1       0.610   9.740  20.807  0.00  0.00    +0.000 N 
ATOM     15  H   UNL     1       1.558   9.943  20.513  0.00  0.00    +0.000 HD
BRANCH  12  16
ATOM     16  C   UNL     1       1.343   7.417  20.887  0.00  0.00    +0.000 C 
BRANCH  16  17
ATOM     17  C   UNL     1       2.335   7.884  19.812  0.00  0.00    +0.000 C 
BRANCH  17  18
ATOM     18  C   UNL     1       2.083   7.285  18.423  0.00  0.00    +0.000 C 
BRANCH  18  19
ATOM     19  C   UNL     1       3.360   6.622  17.889  0.00  0.00    +0.000 C 
BRANCH  19  20
ATOM     20  C   UNL     1       3.312   5.099  18.005  0.00  0.00    +0.000 C 
BRANCH  20  21
ATOM     21  C   UNL     1       1.889   4.565  17.815  0.00  0.00    +0.000 C 
BRANCH  21  22
ATOM     22  C   UNL     1       1.817   3.075  18.148  0.00  0.00    +0.000 C 
BRANCH  22  24
ATOM     23  C   UNL     1       1.062   3.696  20.464  0.00  0.00    +0.000 C 
ATOM     24  C   UNL     1       0.819   2.787  19.269  0.00  0.00    +0.000 C 
ENDBRANCH  22  24
ENDBRANCH  21  22
ENDBRANCH  20  21
ENDBRANCH  19  20
ENDBRANCH  18  19
ENDBRANCH  17  18
ENDBRANCH  16  17
ENDBRANCH  12  16
ENDBRANCH   1  14
BRANCH   1  25
ATOM     25  C   UNL     1      -0.828  11.487  19.870  0.00  0.00    +0.000 C 
ATOM     26  C   UNL     1      -2.300  11.954  19.940  0.00  0.00    +0.000 C 
ATOM     27  C   UNL     1      -0.083  12.842  19.581  0.00  0.00    +0.000 C 
ATOM     28  C   UNL     1      -0.895  10.393  18.747  0.00  0.00    +0.000 C 
ENDBRANCH   1  25
TORSDOF 11
ENDMDL
MODEL 4
REMARK VINA RESULT:      -6.4      4.422      7.253
REMARK  Name = 
REMARK  17 active torsions:
REMARK  status: ('A' for Active; 'I' for Inactive)
REMARK    1  A    between atoms: C_1  and  C_2
REMARK    2  A    between atoms: C_2  and  C_3
REMARK    3  A    between atoms: C_3  and  C_4
REMARK    4  A    between atoms: C_4  and  C_5
REMARK    5  A    between atoms: C_5  and  C_6
REMARK    6  A    between atoms: C_6  and  C_7
REMARK    7  A    between atoms: C_7  and  C_8
REMARK    8  A    between atoms: C_8  and  C_9
REMARK    9  A    between atoms: C_9  and  C_10
REMARK   10  A    between atoms: N_12  and  N_13
REMARK   11  A    between atoms: N_13  and  C_24
REMARK   12  A    between atoms: C_14  and  C_16
REMARK   13  A    between atoms: C_18  and  C_19
REMARK   14  A    between atoms: C_21  and  C_22
REMARK   15  A    between atoms: C_24  and  C_25
REMARK   16  A    between atoms: C_24  and  C_26
REMARK   17  A    between atoms: C_24  and  C_27
REMARK                            x       y       z     vdW  Elec       q    Type
REMARK                         _______ _______ _______ _____ _____    ______ ____
ROOT
ATOM      1  N   UNL     1      -0.682  11.107  20.155  0.00  0.00    +0.000 N 
ATOM      2  C   UNL     1      -0.491  11.113  21.576  0.00  0.00    +0.000 C 
ATOM      3  O   UNL     1       0.153  10.209  22.126  0.00  0.00    +0.000 OA
ENDROOT
BRANCH   2   4
ATOM      4  C   UNL     1      -1.119  12.136  22.516  0.00  0.00    +0.000 A 
ATOM      5  C   UNL     1      -0.663  13.433  22.711  0.00  0.00    +0.000 A 
ATOM      6  C   UNL     1      -1.358  14.457  23.352  0.00  0.00    +0.000 A 
ATOM      7  C   UNL     1      -0.762  15.838  23.305  0.00  0.00    +0.000 C 
ATOM      8  C   UNL     1      -2.570  14.141  23.931  0.00  0.00    +0.000 A 
ATOM      9  C   UNL     1      -3.041  12.820  23.881  0.00  0.00    +0.000 A 
ATOM     10  C   UNL     1      -4.349  12.479  24.525  0.00  0.00    +0.000 C 
ATOM     11  C   UNL     1      -2.321  11.828  23.169  0.00  0.00    +0.000 A 
ENDBRANCH   2   4
BRANCH   1  14
ATOM     12  C   UNL     1       1.130  10.166  18.765  0.00  0.00    +0.000 C 
ATOM     13  O   UNL     1       1.820  11.186  18.781  0.00  0.00    +0.000 OA
ATOM     14  N   UNL     1      -0.077  10.016  19.433  0.00  0.00    +0.000 N 
ATOM     15  H   UNL     1      -0.633   9.177  19.316  0.00  0.00    +0.000 HD
BRANCH  12  16
ATOM     16  C   UNL     1       1.491   8.952  17.901  0.00  0.00    +0.000 C 
BRANCH  16  17
ATOM     17  C   UNL     1       2.274   7.905  18.705  0.00  0.00    +0.000 C 
BRANCH  17  18
ATOM     18  C   UNL     1       2.555   6.607  17.938  0.00  0.00    +0.000 C 
BRANCH  18  19
ATOM     19  C   UNL     1       4.014   6.176  18.139  0.00  0.00    +0.000 C 
BRANCH  19  20
ATOM     20  C   UNL     1       4.962   6.869  17.160  0.00  0.00    +0.000 C 
BRANCH  20  21
ATOM     21  C   UNL     1       5.237   5.998  15.931  0.00  0.00    +0.000 C 
BRANCH  21  22
ATOM     22  C   UNL     1       6.182   4.848  16.279  0.00  0.00    +0.000 C 
BRANCH  22  24
ATOM     23  C   UNL     1       6.262   4.153  13.864  0.00  0.00    +0.000 C 
ATOM     24  C   UNL     1       6.054   3.685  15.296  0.00  0.00    +0.000 C 
ENDBRANCH  22  24
ENDBRANCH  21  22
ENDBRANCH  20  21
ENDBRANCH  19  20
ENDBRANCH  18  19
ENDBRANCH  17  18
ENDBRANCH  16  17
ENDBRANCH  12  16
ENDBRANCH   1  14
BRANCH   1  25
ATOM     25  C   UNL     1      -1.583  11.943  19.299  0.00  0.00    +0.000 C 
ATOM     26  C   UNL     1      -2.949  12.358  19.892  0.00  0.00    +0.000 C 
ATOM     27  C   UNL     1      -0.905  13.343  19.065  0.00  0.00    +0.000 C 
ATOM     28  C   UNL     1      -2.022  11.086  18.059  0.00  0.00    +0.000 C 
ENDBRANCH   1  25
TORSDOF 11
ENDMDL
MODEL 5
REMARK VINA RESULT:      -6.4      4.902      8.223
REMARK  Name = 
REMARK  17 active torsions:
REMARK  status: ('A' for Active; 'I' for Inactive)
REMARK    1  A    between atoms: C_1  and  C_2
REMARK    2  A    between atoms: C_2  and  C_3
REMARK    3  A    between atoms: C_3  and  C_4
REMARK    4  A    between atoms: C_4  and  C_5
REMARK    5  A    between atoms: C_5  and  C_6
REMARK    6  A    between atoms: C_6  and  C_7
REMARK    7  A    between atoms: C_7  and  C_8
REMARK    8  A    between atoms: C_8  and  C_9
REMARK    9  A    between atoms: C_9  and  C_10
REMARK   10  A    between atoms: N_12  and  N_13
REMARK   11  A    between atoms: N_13  and  C_24
REMARK   12  A    between atoms: C_14  and  C_16
REMARK   13  A    between atoms: C_18  and  C_19
REMARK   14  A    between atoms: C_21  and  C_22
REMARK   15  A    between atoms: C_24  and  C_25
REMARK   16  A    between atoms: C_24  and  C_26
REMARK   17  A    between atoms: C_24  and  C_27
REMARK                            x       y       z     vdW  Elec       q    Type
REMARK                         _______ _______ _______ _____ _____    ______ ____
ROOT
ATOM      1  N   UNL     1      -0.569  10.958  21.238  0.00  0.00    +0.000 N 
ATOM      2  C   UNL     1      -1.135  11.024  22.554  0.00  0.00    +0.000 C 
ATOM      3  O   UNL     1      -1.187  10.012  23.265  0.00  0.00    +0.000 OA
ENDROOT
BRANCH   2   4
ATOM      4  C   UNL     1      -1.788  12.271  23.140  0.00  0.00    +0.000 A 
ATOM      5  C   UNL     1      -1.143  13.477  23.382  0.00  0.00    +0.000 A 
ATOM      6  C   UNL     1      -1.760  14.693  23.664  0.00  0.00    +0.000 A 
ATOM      7  C   UNL     1      -0.889  15.919  23.721  0.00  0.00    +0.000 C 
ATOM      8  C   UNL     1      -3.131  14.694  23.813  0.00  0.00    +0.000 A 
ATOM      9  C   UNL     1      -3.843  13.489  23.704  0.00  0.00    +0.000 A 
ATOM     10  C   UNL     1      -5.329  13.493  23.881  0.00  0.00    +0.000 C 
ATOM     11  C   UNL     1      -3.172  12.289  23.360  0.00  0.00    +0.000 A 
ENDBRANCH   2   4
BRANCH   1  14
ATOM     12  C   UNL     1       1.122   9.159  21.318  0.00  0.00    +0.000 C 
ATOM     13  O   UNL     1       1.808   9.695  22.190  0.00  0.00    +0.000 OA
ATOM     14  N   UNL     1      -0.068   9.674  20.821  0.00  0.00    +0.000 N 
ATOM     15  H   UNL     1      -0.544   9.222  20.049  0.00  0.00    +0.000 HD
BRANCH  12  16
ATOM     16  C   UNL     1       1.570   7.883  20.598  0.00  0.00    +0.000 C 
BRANCH  16  17
ATOM     17  C   UNL     1       2.083   8.188  19.184  0.00  0.00    +0.000 C 
BRANCH  17  18
ATOM     18  C   UNL     1       2.213   6.954  18.283  0.00  0.00    +0.000 C 
BRANCH  18  19
ATOM     19  C   UNL     1       2.855   5.796  19.059  0.00  0.00    +0.000 C 
BRANCH  19  20
ATOM     20  C   UNL     1       2.820   4.484  18.274  0.00  0.00    +0.000 C 
BRANCH  20  21
ATOM     21  C   UNL     1       1.457   3.796  18.389  0.00  0.00    +0.000 C 
BRANCH  21  22
ATOM     22  C   UNL     1       0.928   3.872  19.822  0.00  0.00    +0.000 C 
BRANCH  22  24
ATOM     23  C   UNL     1       2.181   3.127  21.869  0.00  0.00    +0.000 C 
ATOM     24  C   UNL     1       1.375   2.676  20.661  0.00  0.00    +0.000 C 
ENDBRANCH  22  24
ENDBRANCH  21  22
ENDBRANCH  20  21
ENDBRANCH  19  20
ENDBRANCH  18  19
ENDBRANCH  17  18
ENDBRANCH  16  17
ENDBRANCH  12  16
ENDBRANCH   1  14
BRANCH   1  25
ATOM     25  C   UNL     1      -0.589  11.964  20.127  0.00  0.00    +0.000 C 
ATOM     26  C   UNL     1      -0.211  11.472  18.712  0.00  0.00    +0.000 C 
ATOM     27  C   UNL     1      -2.071  12.444  19.906  0.00  0.00    +0.000 C 
ATOM     28  C   UNL     1       0.530  13.029  20.403  0.00  0.00    +0.000 C 
ENDBRANCH   1  25
TORSDOF 11
ENDMDL
MODEL 6
REMARK VINA RESULT:      -6.2      4.972      8.279
REMARK  Name = 
REMARK  17 active torsions:
REMARK  status: ('A' for Active; 'I' for Inactive)
REMARK    1  A    between atoms: C_1  and  C_2
REMARK    2  A    between atoms: C_2  and  C_3
REMARK    3  A    between atoms: C_3  and  C_4
REMARK    4  A    between atoms: C_4  and  C_5
REMARK    5  A    between atoms: C_5  and  C_6
REMARK    6  A    between atoms: C_6  and  C_7
REMARK    7  A    between atoms: C_7  and  C_8
REMARK    8  A    between atoms: C_8  and  C_9
REMARK    9  A    between atoms: C_9  and  C_10
REMARK   10  A    between atoms: N_12  and  N_13
REMARK   11  A    between atoms: N_13  and  C_24
REMARK   12  A    between atoms: C_14  and  C_16
REMARK   13  A    between atoms: C_18  and  C_19
REMARK   14  A    between atoms: C_21  and  C_22
REMARK   15  A    between atoms: C_24  and  C_25
REMARK   16  A    between atoms: C_24  and  C_26
REMARK   17  A    between atoms: C_24  and  C_27
REMARK                            x       y       z     vdW  Elec       q    Type
REMARK                         _______ _______ _______ _____ _____    ______ ____
ROOT
ATOM      1  N   UNL     1      -0.865  10.987  21.079  0.00  0.00    +0.000 N 
ATOM      2  C   UNL     1      -1.291  11.084  22.444  0.00  0.00    +0.000 C 
ATOM      3  O   UNL     1      -1.118  10.137  23.223  0.00  0.00    +0.000 OA
ENDROOT
BRANCH   2   4
ATOM      4  C   UNL     1      -2.052  12.274  23.017  0.00  0.00    +0.000 A 
ATOM      5  C   UNL     1      -3.422  12.319  23.240  0.00  0.00    +0.000 A 
ATOM      6  C   UNL     1      -4.098  13.276  23.993  0.00  0.00    +0.000 A 
ATOM      7  C   UNL     1      -5.561  13.047  24.260  0.00  0.00    +0.000 C 
ATOM      8  C   UNL     1      -3.363  14.333  24.489  0.00  0.00    +0.000 A 
ATOM      9  C   UNL     1      -1.992  14.423  24.201  0.00  0.00    +0.000 A 
ATOM     10  C   UNL     1      -1.203  15.581  24.728  0.00  0.00    +0.000 C 
ATOM     11  C   UNL     1      -1.343  13.392  23.477  0.00  0.00    +0.000 A 
ENDBRANCH   2   4
BRANCH   1  14
ATOM     12  C   UNL     1       1.076   9.459  21.064  0.00  0.00    +0.000 C 
ATOM     13  O   UNL     1       1.773  10.163  21.795  0.00  0.00    +0.000 OA
ATOM     14  N   UNL     1      -0.229   9.753  20.692  0.00  0.00    +0.000 N 
ATOM     15  H   UNL     1      -0.721   9.170  20.026  0.00  0.00    +0.000 HD
BRANCH  12  16
ATOM     16  C   UNL     1       1.622   8.198  20.385  0.00  0.00    +0.000 C 
BRANCH  16  17
ATOM     17  C   UNL     1       2.051   8.481  18.938  0.00  0.00    +0.000 C 
BRANCH  17  18
ATOM     18  C   UNL     1       2.098   7.237  18.043  0.00  0.00    +0.000 C 
BRANCH  18  19
ATOM     19  C   UNL     1       3.381   6.438  18.311  0.00  0.00    +0.000 C 
BRANCH  19  20
ATOM     20  C   UNL     1       3.342   5.050  17.672  0.00  0.00    +0.000 C 
BRANCH  20  21
ATOM     21  C   UNL     1       2.275   4.163  18.319  0.00  0.00    +0.000 C 
BRANCH  21  22
ATOM     22  C   UNL     1       2.496   4.059  19.828  0.00  0.00    +0.000 C 
BRANCH  22  24
ATOM     23  C   UNL     1       1.356   2.707  21.615  0.00  0.00    +0.000 C 
ATOM     24  C   UNL     1       1.190   3.810  20.582  0.00  0.00    +0.000 C 
ENDBRANCH  22  24
ENDBRANCH  21  22
ENDBRANCH  20  21
ENDBRANCH  19  20
ENDBRANCH  18  19
ENDBRANCH  17  18
ENDBRANCH  16  17
ENDBRANCH  12  16
ENDBRANCH   1  14
BRANCH   1  25
ATOM     25  C   UNL     1      -1.151  11.883  19.912  0.00  0.00    +0.000 C 
ATOM     26  C   UNL     1      -2.545  12.548  19.847  0.00  0.00    +0.000 C 
ATOM     27  C   UNL     1      -0.209  13.140  19.998  0.00  0.00    +0.000 C 
ATOM     28  C   UNL     1      -1.152  11.012  18.607  0.00  0.00    +0.000 C 
ENDBRANCH   1  25
TORSDOF 11
ENDMDL
MODEL 7
REMARK VINA RESULT:      -6.2      4.458      7.589
REMARK  Name = 
REMARK  17 active torsions:
REMARK  status: ('A' for Active; 'I' for Inactive)
REMARK    1  A    between atoms: C_1  and  C_2
REMARK    2  A    between atoms: C_2  and  C_3
REMARK    3  A    between atoms: C_3  and  C_4
REMARK    4  A    between atoms: C_4  and  C_5
REMARK    5  A    between atoms: C_5  and  C_6
REMARK    6  A    between atoms: C_6  and  C_7
REMARK    7  A    between atoms: C_7  and  C_8
REMARK    8  A    between atoms: C_8  and  C_9
REMARK    9  A    between atoms: C_9  and  C_10
REMARK   10  A    between atoms: N_12  and  N_13
REMARK   11  A    between atoms: N_13  and  C_24
REMARK   12  A    between atoms: C_14  and  C_16
REMARK   13  A    between atoms: C_18  and  C_19
REMARK   14  A    between atoms: C_21  and  C_22
REMARK   15  A    between atoms: C_24  and  C_25
REMARK   16  A    between atoms: C_24  and  C_26
REMARK   17  A    between atoms: C_24  and  C_27
REMARK                            x       y       z     vdW  Elec       q    Type
REMARK                         _______ _______ _______ _____ _____    ______ ____
ROOT
ATOM      1  N   UNL     1      -0.842  11.218  19.850  0.00  0.00    +0.000 N 
ATOM      2  C   UNL     1      -0.770  11.228  21.282  0.00  0.00    +0.000 C 
ATOM      3  O   UNL     1      -0.222  10.297  21.888  0.00  0.00    +0.000 OA
ENDROOT
BRANCH   2   4
ATOM      4  C   UNL     1      -1.420  12.290  22.160  0.00  0.00    +0.000 A 
ATOM      5  C   UNL     1      -2.594  12.126  22.884  0.00  0.00    +0.000 A 
ATOM      6  C   UNL     1      -3.064  12.973  23.885  0.00  0.00    +0.000 A 
ATOM      7  C   UNL     1      -4.267  12.524  24.669  0.00  0.00    +0.000 C 
ATOM      8  C   UNL     1      -2.356  14.133  24.123  0.00  0.00    +0.000 A 
ATOM      9  C   UNL     1      -1.225  14.430  23.348  0.00  0.00    +0.000 A 
ATOM     10  C   UNL     1      -0.471  15.698  23.600  0.00  0.00    +0.000 C 
ATOM     11  C   UNL     1      -0.758  13.507  22.379  0.00  0.00    +0.000 A 
ENDBRANCH   2   4
BRANCH   1  14
ATOM     12  C   UNL     1       1.044  10.160  18.654  0.00  0.00    +0.000 C 
ATOM     13  O   UNL     1       1.794  11.132  18.756  0.00  0.00    +0.000 OA
ATOM     14  N   UNL     1      -0.237  10.092  19.186  0.00  0.00    +0.000 N 
ATOM     15  H   UNL     1      -0.832   9.292  19.000  0.00  0.00    +0.000 HD
BRANCH  12  16
ATOM     16  C   UNL     1       1.414   8.928  17.822  0.00  0.00    +0.000 C 
BRANCH  16  17
ATOM     17  C   UNL     1       2.394   8.017  18.574  0.00  0.00    +0.000 C 
BRANCH  17  18
ATOM     18  C   UNL     1       3.445   7.351  17.678  0.00  0.00    +0.000 C 
BRANCH  18  19
ATOM     19  C   UNL     1       3.306   5.824  17.740  0.00  0.00    +0.000 C 
BRANCH  19  20
ATOM     20  C   UNL     1       4.651   5.129  17.947  0.00  0.00    +0.000 C 
BRANCH  20  21
ATOM     21  C   UNL     1       5.413   4.973  16.628  0.00  0.00    +0.000 C 
BRANCH  21  22
ATOM     22  C   UNL     1       6.908   5.222  16.829  0.00  0.00    +0.000 C 
BRANCH  22  24
ATOM     23  C   UNL     1       7.988   6.510  18.698  0.00  0.00    +0.000 C 
ATOM     24  C   UNL     1       7.183   6.607  17.411  0.00  0.00    +0.000 C 
ENDBRANCH  22  24
ENDBRANCH  21  22
ENDBRANCH  20  21
ENDBRANCH  19  20
ENDBRANCH  18  19
ENDBRANCH  17  18
ENDBRANCH  16  17
ENDBRANCH  12  16
ENDBRANCH   1  14
BRANCH   1  25
ATOM     25  C   UNL     1      -1.624  12.092  18.917  0.00  0.00    +0.000 C 
ATOM     26  C   UNL     1      -1.858  11.572  17.480  0.00  0.00    +0.000 C 
ATOM     27  C   UNL     1      -3.100  12.209  19.450  0.00  0.00    +0.000 C 
ATOM     28  C   UNL     1      -0.797  13.399  18.652  0.00  0.00    +0.000 C 
ENDBRANCH   1  25
TORSDOF 11
ENDMDL
MODEL 8
REMARK VINA RESULT:      -6.2      4.222      7.259
REMARK  Name = 
REMARK  17 active torsions:
REMARK  status: ('A' for Active; 'I' for Inactive)
REMARK    1  A    between atoms: C_1  and  C_2
REMARK    2  A    between atoms: C_2  and  C_3
REMARK    3  A    between atoms: C_3  and  C_4
REMARK    4  A    between atoms: C_4  and  C_5
REMARK    5  A    between atoms: C_5  and  C_6
REMARK    6  A    between atoms: C_6  and  C_7
REMARK    7  A    between atoms: C_7  and  C_8
REMARK    8  A    between atoms: C_8  and  C_9
REMARK    9  A    between atoms: C_9  and  C_10
REMARK   10  A    between atoms: N_12  and  N_13
REMARK   11  A    between atoms: N_13  and  C_24
REMARK   12  A    between atoms: C_14  and  C_16
REMARK   13  A    between atoms: C_18  and  C_19
REMARK   14  A    between atoms: C_21  and  C_22
REMARK   15  A    between atoms: C_24  and  C_25
REMARK   16  A    between atoms: C_24  and  C_26
REMARK   17  A    between atoms: C_24  and  C_27
REMARK                            x       y       z     vdW  Elec       q    Type
REMARK                         _______ _______ _______ _____ _____    ______ ____
ROOT
ATOM      1  N   UNL     1      -0.177  11.116  19.623  0.00  0.00    +0.000 N 
ATOM      2  C   UNL     1       0.187  11.446  20.970  0.00  0.00    +0.000 C 
ATOM      3  O   UNL     1       0.925  10.694  21.621  0.00  0.00    +0.000 OA
ENDROOT
BRANCH   2   4
ATOM      4  C   UNL     1      -0.355  12.651  21.728  0.00  0.00    +0.000 A 
ATOM      5  C   UNL     1      -1.489  12.651  22.531  0.00  0.00    +0.000 A 
ATOM      6  C   UNL     1      -1.855  13.650  23.430  0.00  0.00    +0.000 A 
ATOM      7  C   UNL     1      -3.027  13.378  24.333  0.00  0.00    +0.000 C 
ATOM      8  C   UNL     1      -1.079  14.790  23.468  0.00  0.00    +0.000 A 
ATOM      9  C   UNL     1       0.015  14.917  22.598  0.00  0.00    +0.000 A 
ATOM     10  C   UNL     1       0.844  16.162  22.633  0.00  0.00    +0.000 C 
ATOM     11  C   UNL     1       0.377  13.847  21.742  0.00  0.00    +0.000 A 
ENDBRANCH   2   4
BRANCH   1  14
ATOM     12  C   UNL     1       1.538   9.885  18.340  0.00  0.00    +0.000 C 
ATOM     13  O   UNL     1       2.238  10.874  18.120  0.00  0.00    +0.000 OA
ATOM     14  N   UNL     1       0.371   9.894  19.092  0.00  0.00    +0.000 N 
ATOM     15  H   UNL     1      -0.200   9.061  19.171  0.00  0.00    +0.000 HD
BRANCH  12  16
ATOM     16  C   UNL     1       1.833   8.520  17.708  0.00  0.00    +0.000 C 
BRANCH  16  17
ATOM     17  C   UNL     1       2.656   7.632  18.652  0.00  0.00    +0.000 C 
BRANCH  17  18
ATOM     18  C   UNL     1       2.636   6.142  18.288  0.00  0.00    +0.000 C 
BRANCH  18  19
ATOM     19  C   UNL     1       4.069   5.612  18.140  0.00  0.00    +0.000 C 
BRANCH  19  20
ATOM     20  C   UNL     1       4.191   4.151  18.573  0.00  0.00    +0.000 C 
BRANCH  20  21
ATOM     21  C   UNL     1       3.833   3.195  17.432  0.00  0.00    +0.000 C 
BRANCH  21  22
ATOM     22  C   UNL     1       3.129   1.947  17.966  0.00  0.00    +0.000 C 
BRANCH  22  24
ATOM     23  C   UNL     1       0.809   2.498  18.762  0.00  0.00    +0.000 C 
ATOM     24  C   UNL     1       2.252   2.261  19.178  0.00  0.00    +0.000 C 
ENDBRANCH  22  24
ENDBRANCH  21  22
ENDBRANCH  20  21
ENDBRANCH  19  20
ENDBRANCH  18  19
ENDBRANCH  17  18
ENDBRANCH  16  17
ENDBRANCH  12  16
ENDBRANCH   1  14
BRANCH   1  25
ATOM     25  C   UNL     1      -1.206  11.731  18.723  0.00  0.00    +0.000 C 
ATOM     26  C   UNL     1      -2.533  12.192  19.366  0.00  0.00    +0.000 C 
ATOM     27  C   UNL     1      -0.643  13.089  18.163  0.00  0.00    +0.000 C 
ATOM     28  C   UNL     1      -1.704  10.634  17.717  0.00  0.00    +0.000 C 
ENDBRANCH   1  25
TORSDOF 11
ENDMDL
MODEL 9
REMARK VINA RESULT:      -6.1      4.210      7.302
REMARK  Name = 
REMARK  17 active torsions:
REMARK  status: ('A' for Active; 'I' for Inactive)
REMARK    1  A    between atoms: C_1  and  C_2
REMARK    2  A    between atoms: C_2  and  C_3
REMARK    3  A    between atoms: C_3  and  C_4
REMARK    4  A    between atoms: C_4  and  C_5
REMARK    5  A    between atoms: C_5  and  C_6
REMARK    6  A    between atoms: C_6  and  C_7
REMARK    7  A    between atoms: C_7  and  C_8
REMARK    8  A    between atoms: C_8  and  C_9
REMARK    9  A    between atoms: C_9  and  C_10
REMARK   10  A    between atoms: N_12  and  N_13
REMARK   11  A    between atoms: N_13  and  C_24
REMARK   12  A    between atoms: C_14  and  C_16
REMARK   13  A    between atoms: C_18  and  C_19
REMARK   14  A    between atoms: C_21  and  C_22
REMARK   15  A    between atoms: C_24  and  C_25
REMARK   16  A    between atoms: C_24  and  C_26
REMARK   17  A    between atoms: C_24  and  C_27
REMARK                            x       y       z     vdW  Elec       q    Type
REMARK                         _______ _______ _______ _____ _____    ______ ____
ROOT
ATOM      1  N   UNL     1      -0.324  11.109  19.864  0.00  0.00    +0.000 N 
ATOM      2  C   UNL     1      -0.078  11.210  21.272  0.00  0.00    +0.000 C 
ATOM      3  O   UNL     1       0.630  10.372  21.847  0.00  0.00    +0.000 OA
ENDROOT
BRANCH   2   4
ATOM      4  C   UNL     1      -0.717  12.258  22.176  0.00  0.00    +0.000 A 
ATOM      5  C   UNL     1      -0.331  13.589  22.261  0.00  0.00    +0.000 A 
ATOM      6  C   UNL     1      -1.051  14.613  22.871  0.00  0.00    +0.000 A 
ATOM      7  C   UNL     1      -0.542  16.019  22.701  0.00  0.00    +0.000 C 
ATOM      8  C   UNL     1      -2.211  14.270  23.535  0.00  0.00    +0.000 A 
ATOM      9  C   UNL     1      -2.604  12.924  23.598  0.00  0.00    +0.000 A 
ATOM     10  C   UNL     1      -3.855  12.556  24.333  0.00  0.00    +0.000 C 
ATOM     11  C   UNL     1      -1.864  11.929  22.913  0.00  0.00    +0.000 A 
ENDBRANCH   2   4
BRANCH   1  14
ATOM     12  C   UNL     1       1.499  10.160  18.493  0.00  0.00    +0.000 C 
ATOM     13  O   UNL     1       2.159  11.199  18.457  0.00  0.00    +0.000 OA
ATOM     14  N   UNL     1       0.303  10.006  19.181  0.00  0.00    +0.000 N 
ATOM     15  H   UNL     1      -0.230   9.147  19.108  0.00  0.00    +0.000 HD
BRANCH  12  16
ATOM     16  C   UNL     1       1.884   8.921  17.678  0.00  0.00    +0.000 C 
BRANCH  16  17
ATOM     17  C   UNL     1       2.489   7.828  18.571  0.00  0.00    +0.000 C 
BRANCH  17  18
ATOM     18  C   UNL     1       3.193   6.705  17.799  0.00  0.00    +0.000 C 
BRANCH  18  19
ATOM     19  C   UNL     1       3.285   5.442  18.665  0.00  0.00    +0.000 C 
BRANCH  19  20
ATOM     20  C   UNL     1       3.835   4.246  17.887  0.00  0.00    +0.000 C 
BRANCH  20  21
ATOM     21  C   UNL     1       4.707   4.695  16.710  0.00  0.00    +0.000 C 
BRANCH  21  22
ATOM     22  C   UNL     1       6.191   4.612  17.069  0.00  0.00    +0.000 C 
BRANCH  22  24
ATOM     23  C   UNL     1       7.413   6.628  17.941  0.00  0.00    +0.000 C 
ATOM     24  C   UNL     1       6.941   5.890  16.698  0.00  0.00    +0.000 C 
ENDBRANCH  22  24
ENDBRANCH  21  22
ENDBRANCH  20  21
ENDBRANCH  19  20
ENDBRANCH  18  19
ENDBRANCH  17  18
ENDBRANCH  16  17
ENDBRANCH  12  16
ENDBRANCH   1  14
BRANCH   1  25
ATOM     25  C   UNL     1      -1.298  11.849  18.998  0.00  0.00    +0.000 C 
ATOM     26  C   UNL     1      -1.684  11.207  17.647  0.00  0.00    +0.000 C 
ATOM     27  C   UNL     1      -2.690  11.898  19.730  0.00  0.00    +0.000 C 
ATOM     28  C   UNL     1      -0.628  13.190  18.533  0.00  0.00    +0.000 C 
ENDBRANCH   1  25
TORSDOF 11
ENDMDL
