MODEL 1
REMARK VINA RESULT:      -8.5      0.000      0.000
REMARK  Name = 
REMARK  7 active torsions:
REMARK  status: ('A' for Active; 'I' for Inactive)
REMARK    1  A    between atoms: C_2  and  C_3
REMARK    2  A    between atoms: C_3  and  C_4
REMARK    3  A    between atoms: N_7  and  C_8
REMARK    4  A    between atoms: C_11  and  C_12
REMARK    5  A    between atoms: C_12  and  C_13
REMARK    6  A    between atoms: C_13  and  N_14
REMARK    7  A    between atoms: C_17  and  C_18
REMARK                            x       y       z     vdW  Elec       q    Type
REMARK                         _______ _______ _______ _____ _____    ______ ____
ROOT
ATOM      1  C   UNL     1       1.535   4.967  20.497  0.00  0.00    +0.000 C 
ENDROOT
BRANCH   1   2
ATOM      2  N   UNL     1       1.965   3.903  19.566  0.00  0.00    +0.000 NA
ATOM      3  C   UNL     1       2.023   4.409  18.186  0.00  0.00    +0.000 C 
ATOM      4  C   UNL     1       2.708   3.460  17.200  0.00  0.00    +0.000 C 
ATOM      5  C   UNL     1       4.107   3.035  17.664  0.00  0.00    +0.000 C 
ATOM      6  C   UNL     1       3.919   2.410  19.062  0.00  0.00    +0.000 C 
ATOM      7  C   UNL     1       3.262   3.384  20.036  0.00  0.00    +0.000 C 
BRANCH   5   8
ATOM      8  C   UNL     1       5.230   4.068  17.595  0.00  0.00    +0.000 A 
ATOM      9  C   UNL     1       5.651   4.698  18.788  0.00  0.00    +0.000 A 
ATOM     10  C   UNL     1       6.693   5.647  18.810  0.00  0.00    +0.000 A 
ATOM     11  C   UNL     1       7.357   5.990  17.638  0.00  0.00    +0.000 A 
ATOM     12  C   UNL     1       6.964   5.361  16.480  0.00  0.00    +0.000 A 
ATOM     13  C   UNL     1       5.948   4.421  16.456  0.00  0.00    +0.000 A 
ATOM     14  O   UNL     1       5.794   3.921  15.197  0.00  0.00    +0.000 OA
ATOM     15  C   UNL     1       6.721   4.717  14.438  0.00  0.00    +0.000 C 
ATOM     16  O   UNL     1       7.525   5.577  15.258  0.00  0.00    +0.000 OA
ENDBRANCH   5   8
ENDBRANCH   1   2
BRANCH   1  17
ATOM     17  C   UNL     1       2.322   6.277  20.370  0.00  0.00    +0.000 C 
BRANCH  17  21
ATOM     18  C   UNL     1       1.252  10.306  19.142  0.00  0.00    +0.000 C 
ATOM     19  C   UNL     1       0.474   9.693  20.309  0.00  0.00    +0.000 C 
ATOM     20  C   UNL     1       1.199   8.465  20.852  0.00  0.00    +0.000 C 
ATOM     21  C   UNL     1       1.492   7.423  19.759  0.00  0.00    +0.000 C 
ATOM     22  C   UNL     1       2.183   8.058  18.541  0.00  0.00    +0.000 C 
ATOM     23  C   UNL     1       1.432   9.280  18.026  0.00  0.00    +0.000 C 
BRANCH  18  26
ATOM     24  O   UNL     1       2.009  12.929  19.748  0.00  0.00    +0.000 OA
ATOM     25  C   UNL     1       1.026  12.753  19.036  0.00  0.00    +0.000 C 
ATOM     26  N   UNL     1       0.601  11.503  18.642  0.00  0.00    +0.000 N 
ATOM     27  H   UNL     1      -0.291  11.414  18.170  0.00  0.00    +0.000 HD
BRANCH  25  28
ATOM     28  C   UNL     1       0.267  13.925  18.444  0.00  0.00    +0.000 C 
BRANCH  28  29
ATOM     29  C   UNL     1       0.357  15.215  19.210  0.00  0.00    +0.000 C 
ATOM     30  C   UNL     1      -0.135  16.477  18.547  0.00  0.00    +0.000 C 
ATOM     31  C   UNL     1      -0.884  15.908  19.718  0.00  0.00    +0.000 C 
ENDBRANCH  28  29
ENDBRANCH  25  28
ENDBRANCH  18  26
ENDBRANCH  17  21
ENDBRANCH   1  17
TORSDOF 7
ENDMDL
MODEL 2
REMARK VINA RESULT:      -8.1      1.056      1.500
REMARK  Name = 
REMARK  7 active torsions:
REMARK  status: ('A' for Active; 'I' for Inactive)
REMARK    1  A    between atoms: C_2  and  C_3
REMARK    2  A    between atoms: C_3  and  C_4
REMARK    3  A    between atoms: N_7  and  C_8
REMARK    4  A    between atoms: C_11  and  C_12
REMARK    5  A    between atoms: C_12  and  C_13
REMARK    6  A    between atoms: C_13  and  N_14
REMARK    7  A    between atoms: C_17  and  C_18
REMARK                            x       y       z     vdW  Elec       q    Type
REMARK                         _______ _______ _______ _____ _____    ______ ____
ROOT
ATOM      1  C   UNL     1       1.088   4.582  19.912  0.00  0.00    +0.000 C 
ENDROOT
BRANCH   1   2
ATOM      2  N   UNL     1       1.719   3.514  19.108  0.00  0.00    +0.000 NA
ATOM      3  C   UNL     1       1.906   3.950  17.717  0.00  0.00    +0.000 C 
ATOM      4  C   UNL     1       2.787   3.018  16.882  0.00  0.00    +0.000 C 
ATOM      5  C   UNL     1       4.147   2.747  17.536  0.00  0.00    +0.000 C 
ATOM      6  C   UNL     1       3.840   2.181  18.937  0.00  0.00    +0.000 C 
ATOM      7  C   UNL     1       2.986   3.141  19.762  0.00  0.00    +0.000 C 
BRANCH   5   8
ATOM      8  C   UNL     1       5.179   3.873  17.537  0.00  0.00    +0.000 A 
ATOM      9  C   UNL     1       5.476   4.525  18.756  0.00  0.00    +0.000 A 
ATOM     10  C   UNL     1       6.429   5.559  18.842  0.00  0.00    +0.000 A 
ATOM     11  C   UNL     1       7.127   5.970  17.713  0.00  0.00    +0.000 A 
ATOM     12  C   UNL     1       6.856   5.321  16.530  0.00  0.00    +0.000 A 
ATOM     13  C   UNL     1       5.928   4.298  16.443  0.00  0.00    +0.000 A 
ATOM     14  O   UNL     1       5.890   3.800  15.174  0.00  0.00    +0.000 OA
ATOM     15  C   UNL     1       6.786   4.680  14.475  0.00  0.00    +0.000 C 
ATOM     16  O   UNL     1       7.465   5.598  15.344  0.00  0.00    +0.000 OA
ENDBRANCH   5   8
ENDBRANCH   1   2
BRANCH   1  17
ATOM     17  C   UNL     1       2.051   5.329  20.843  0.00  0.00    +0.000 C 
BRANCH  17  21
ATOM     18  C   UNL     1       0.908   9.207  19.252  0.00  0.00    +0.000 C 
ATOM     19  C   UNL     1       2.158   8.545  18.668  0.00  0.00    +0.000 C 
ATOM     20  C   UNL     1       2.210   7.068  19.045  0.00  0.00    +0.000 C 
ATOM     21  C   UNL     1       2.107   6.843  20.564  0.00  0.00    +0.000 C 
ATOM     22  C   UNL     1       0.908   7.592  21.167  0.00  0.00    +0.000 C 
ATOM     23  C   UNL     1       0.890   9.063  20.771  0.00  0.00    +0.000 C 
BRANCH  18  26
ATOM     24  O   UNL     1      -1.440  10.727  19.220  0.00  0.00    +0.000 OA
ATOM     25  C   UNL     1      -0.397  11.252  18.842  0.00  0.00    +0.000 C 
ATOM     26  N   UNL     1       0.818  10.603  18.864  0.00  0.00    +0.000 N 
ATOM     27  H   UNL     1       1.615  11.038  18.415  0.00  0.00    +0.000 HD
BRANCH  25  28
ATOM     28  C   UNL     1      -0.360  12.708  18.422  0.00  0.00    +0.000 C 
BRANCH  28  29
ATOM     29  C   UNL     1       0.450  13.621  19.298  0.00  0.00    +0.000 C 
ATOM     30  C   UNL     1       0.680  15.038  18.837  0.00  0.00    +0.000 C 
ATOM     31  C   UNL     1      -0.194  14.773  20.030  0.00  0.00    +0.000 C 
ENDBRANCH  28  29
ENDBRANCH  25  28
ENDBRANCH  18  26
ENDBRANCH  17  21
ENDBRANCH   1  17
TORSDOF 7
ENDMDL
MODEL 3
REMARK VINA RESULT:      -8.0      1.064      1.332
REMARK  Name = 
REMARK  7 active torsions:
REMARK  status: ('A' for Active; 'I' for Inactive)
REMARK    1  A    between atoms: C_2  and  C_3
REMARK    2  A    between atoms: C_3  and  C_4
REMARK    3  A    between atoms: N_7  and  C_8
REMARK    4  A    between atoms: C_11  and  C_12
REMARK    5  A    between atoms: C_12  and  C_13
REMARK    6  A    between atoms: C_13  and  N_14
REMARK    7  A    between atoms: C_17  and  C_18
REMARK                            x       y       z     vdW  Elec       q    Type
REMARK                         _______ _______ _______ _____ _____    ______ ____
ROOT
ATOM      1  C   UNL     1       1.195   4.263  20.603  0.00  0.00    +0.000 C 
ENDROOT
BRANCH   1   2
ATOM      2  N   UNL     1       1.697   3.331  19.572  0.00  0.00    +0.000 NA
ATOM      3  C   UNL     1       1.754   3.988  18.258  0.00  0.00    +0.000 C 
ATOM      4  C   UNL     1       2.506   3.189  17.191  0.00  0.00    +0.000 C 
ATOM      5  C   UNL     1       3.916   2.786  17.640  0.00  0.00    +0.000 C 
ATOM      6  C   UNL     1       3.736   2.002  18.956  0.00  0.00    +0.000 C 
ATOM      7  C   UNL     1       3.010   2.829  20.014  0.00  0.00    +0.000 C 
BRANCH   5   8
ATOM      8  C   UNL     1       4.984   3.876  17.710  0.00  0.00    +0.000 A 
ATOM      9  C   UNL     1       5.255   4.485  18.957  0.00  0.00    +0.000 A 
ATOM     10  C   UNL     1       6.238   5.483  19.108  0.00  0.00    +0.000 A 
ATOM     11  C   UNL     1       6.993   5.899  18.018  0.00  0.00    +0.000 A 
ATOM     12  C   UNL     1       6.747   5.290  16.809  0.00  0.00    +0.000 A 
ATOM     13  C   UNL     1       5.790   4.302  16.659  0.00  0.00    +0.000 A 
ATOM     14  O   UNL     1       5.785   3.838  15.376  0.00  0.00    +0.000 OA
ATOM     15  C   UNL     1       6.737   4.704  14.735  0.00  0.00    +0.000 C 
ATOM     16  O   UNL     1       7.411   5.575  15.655  0.00  0.00    +0.000 OA
ENDBRANCH   5   8
ENDBRANCH   1   2
BRANCH   1  17
ATOM     17  C   UNL     1       2.052   5.520  20.794  0.00  0.00    +0.000 C 
BRANCH  17  21
ATOM     18  C   UNL     1       1.482   9.720  19.838  0.00  0.00    +0.000 C 
ATOM     19  C   UNL     1       0.489   9.075  20.807  0.00  0.00    +0.000 C 
ATOM     20  C   UNL     1       1.028   7.746  21.324  0.00  0.00    +0.000 C 
ATOM     21  C   UNL     1       1.414   6.784  20.186  0.00  0.00    +0.000 C 
ATOM     22  C   UNL     1       2.331   7.463  19.157  0.00  0.00    +0.000 C 
ATOM     23  C   UNL     1       1.760   8.787  18.662  0.00  0.00    +0.000 C 
BRANCH  18  26
ATOM     24  O   UNL     1       1.428  12.069  21.357  0.00  0.00    +0.000 OA
ATOM     25  C   UNL     1       0.981  12.099  20.214  0.00  0.00    +0.000 C 
ATOM     26  N   UNL     1       1.006  11.010  19.371  0.00  0.00    +0.000 N 
ATOM     27  H   UNL     1       0.503  11.057  18.493  0.00  0.00    +0.000 HD
BRANCH  25  28
ATOM     28  C   UNL     1       0.465  13.390  19.610  0.00  0.00    +0.000 C 
BRANCH  28  29
ATOM     29  C   UNL     1       1.513  14.343  19.110  0.00  0.00    +0.000 C 
ATOM     30  C   UNL     1       2.958  14.050  19.428  0.00  0.00    +0.000 C 
ATOM     31  C   UNL     1       2.468  13.946  18.011  0.00  0.00    +0.000 C 
ENDBRANCH  28  29
ENDBRANCH  25  28
ENDBRANCH  18  26
ENDBRANCH  17  21
ENDBRANCH   1  17
TORSDOF 7
ENDMDL
MODEL 4
REMARK VINA RESULT:      -8.0      1.309      1.710
REMARK  Name = 
REMARK  7 active torsions:
REMARK  status: ('A' for Active; 'I' for Inactive)
REMARK    1  A    between atoms: C_2  and  C_3
REMARK    2  A    between atoms: C_3  and  C_4
REMARK    3  A    between atoms: N_7  and  C_8
REMARK    4  A    between atoms: C_11  and  C_12
REMARK    5  A    between atoms: C_12  and  C_13
REMARK    6  A    between atoms: C_13  and  N_14
REMARK    7  A    between atoms: C_17  and  C_18
REMARK                            x       y       z     vdW  Elec       q    Type
REMARK                         _______ _______ _______ _____ _____    ______ ____
ROOT
ATOM      1  C   UNL     1       1.270   4.639  20.440  0.00  0.00    +0.000 C 
ENDROOT
BRANCH   1   2
ATOM      2  N   UNL     1       2.064   3.659  19.668  0.00  0.00    +0.000 NA
ATOM      3  C   UNL     1       1.932   3.902  18.224  0.00  0.00    +0.000 C 
ATOM      4  C   UNL     1       2.920   3.111  17.364  0.00  0.00    +0.000 C 
ATOM      5  C   UNL     1       4.376   3.313  17.800  0.00  0.00    +0.000 C 
ATOM      6  C   UNL     1       4.432   2.917  19.290  0.00  0.00    +0.000 C 
ATOM      7  C   UNL     1       3.460   3.739  20.133  0.00  0.00    +0.000 C 
BRANCH   5   8
ATOM      8  C   UNL     1       5.037   4.655  17.492  0.00  0.00    +0.000 A 
ATOM      9  C   UNL     1       4.440   5.505  16.533  0.00  0.00    +0.000 A 
ATOM     10  C   UNL     1       4.977   6.767  16.207  0.00  0.00    +0.000 A 
ATOM     11  C   UNL     1       6.127   7.226  16.839  0.00  0.00    +0.000 A 
ATOM     12  C   UNL     1       6.696   6.411  17.790  0.00  0.00    +0.000 A 
ATOM     13  C   UNL     1       6.165   5.176  18.119  0.00  0.00    +0.000 A 
ATOM     14  O   UNL     1       6.892   4.599  19.119  0.00  0.00    +0.000 OA
ATOM     15  C   UNL     1       7.972   5.533  19.287  0.00  0.00    +0.000 C 
ATOM     16  O   UNL     1       7.812   6.725  18.504  0.00  0.00    +0.000 OA
ENDBRANCH   5   8
ENDBRANCH   1   2
BRANCH   1  17
ATOM     17  C   UNL     1       1.988   5.967  20.707  0.00  0.00    +0.000 C 
BRANCH  17  21
ATOM     18  C   UNL     1       1.472  10.020  19.227  0.00  0.00    +0.000 C 
ATOM     19  C   UNL     1       0.484   9.523  20.283  0.00  0.00    +0.000 C 
ATOM     20  C   UNL     1       1.009   8.261  20.959  0.00  0.00    +0.000 C 
ATOM     21  C   UNL     1       1.361   7.154  19.950  0.00  0.00    +0.000 C 
ATOM     22  C   UNL     1       2.274   7.679  18.830  0.00  0.00    +0.000 C 
ATOM     23  C   UNL     1       1.717   8.939  18.177  0.00  0.00    +0.000 C 
BRANCH  18  26
ATOM     24  O   UNL     1       1.993  12.603  20.166  0.00  0.00    +0.000 OA
ATOM     25  C   UNL     1       1.286  12.473  19.172  0.00  0.00    +0.000 C 
ATOM     26  N   UNL     1       1.010  11.247  18.605  0.00  0.00    +0.000 N 
ATOM     27  H   UNL     1       0.315  11.192  17.871  0.00  0.00    +0.000 HD
BRANCH  25  28
ATOM     28  C   UNL     1       0.751  13.680  18.428  0.00  0.00    +0.000 C 
BRANCH  28  29
ATOM     29  C   UNL     1       0.530  14.914  19.257  0.00  0.00    +0.000 C 
ATOM     30  C   UNL     1      -0.194  16.078  18.630  0.00  0.00    +0.000 C 
ATOM     31  C   UNL     1      -0.849  15.296  19.734  0.00  0.00    +0.000 C 
ENDBRANCH  28  29
ENDBRANCH  25  28
ENDBRANCH  18  26
ENDBRANCH  17  21
ENDBRANCH   1  17
TORSDOF 7
ENDMDL
MODEL 5
REMARK VINA RESULT:      -7.9      2.134      2.554
REMARK  Name = 
REMARK  7 active torsions:
REMARK  status: ('A' for Active; 'I' for Inactive)
REMARK    1  A    between atoms: C_2  and  C_3
REMARK    2  A    between atoms: C_3  and  C_4
REMARK    3  A    between atoms: N_7  and  C_8
REMARK    4  A    between atoms: C_11  and  C_12
REMARK    5  A    between atoms: C_12  and  C_13
REMARK    6  A    between atoms: C_13  and  N_14
REMARK    7  A    between atoms: C_17  and  C_18
REMARK                            x       y       z     vdW  Elec       q    Type
REMARK                         _______ _______ _______ _____ _____    ______ ____
ROOT
ATOM      1  C   UNL     1       1.366   5.765  20.049  0.00  0.00    +0.000 C 
ENDROOT
BRANCH   1   2
ATOM      2  N   UNL     1       1.830   4.506  19.428  0.00  0.00    +0.000 NA
ATOM      3  C   UNL     1       2.015   4.676  17.979  0.00  0.00    +0.000 C 
ATOM      4  C   UNL     1       2.742   3.513  17.300  0.00  0.00    +0.000 C 
ATOM      5  C   UNL     1       4.083   3.184  17.967  0.00  0.00    +0.000 C 
ATOM      6  C   UNL     1       3.763   2.905  19.449  0.00  0.00    +0.000 C 
ATOM      7  C   UNL     1       3.066   4.090  20.113  0.00  0.00    +0.000 C 
BRANCH   5   8
ATOM      8  C   UNL     1       5.244   4.155  17.757  0.00  0.00    +0.000 A 
ATOM      9  C   UNL     1       5.748   4.866  18.870  0.00  0.00    +0.000 A 
ATOM     10  C   UNL     1       6.829   5.764  18.762  0.00  0.00    +0.000 A 
ATOM     11  C   UNL     1       7.450   5.973  17.536  0.00  0.00    +0.000 A 
ATOM     12  C   UNL     1       6.976   5.265  16.457  0.00  0.00    +0.000 A 
ATOM     13  C   UNL     1       5.922   4.374  16.561  0.00  0.00    +0.000 A 
ATOM     14  O   UNL     1       5.688   3.774  15.359  0.00  0.00    +0.000 OA
ATOM     15  C   UNL     1       6.610   4.458  14.493  0.00  0.00    +0.000 C 
ATOM     16  O   UNL     1       7.487   5.348  15.197  0.00  0.00    +0.000 OA
ENDBRANCH   5   8
ENDBRANCH   1   2
BRANCH   1  17
ATOM     17  C   UNL     1       2.184   7.003  19.661  0.00  0.00    +0.000 C 
BRANCH  17  21
ATOM     18  C   UNL     1      -0.423  10.228  20.958  0.00  0.00    +0.000 C 
ATOM     19  C   UNL     1       0.712  10.581  19.995  0.00  0.00    +0.000 C 
ATOM     20  C   UNL     1       1.284   9.321  19.353  0.00  0.00    +0.000 C 
ATOM     21  C   UNL     1       1.730   8.279  20.394  0.00  0.00    +0.000 C 
ATOM     22  C   UNL     1       0.623   7.999  21.423  0.00  0.00    +0.000 C 
ATOM     23  C   UNL     1       0.076   9.279  22.044  0.00  0.00    +0.000 C 
BRANCH  18  26
ATOM     24  O   UNL     1      -2.366  11.835  19.745  0.00  0.00    +0.000 OA
ATOM     25  C   UNL     1      -1.933  12.167  20.844  0.00  0.00    +0.000 C 
ATOM     26  N   UNL     1      -1.012  11.418  21.543  0.00  0.00    +0.000 N 
ATOM     27  H   UNL     1      -0.593  11.810  22.378  0.00  0.00    +0.000 HD
BRANCH  25  28
ATOM     28  C   UNL     1      -2.476  13.387  21.563  0.00  0.00    +0.000 C 
BRANCH  28  29
ATOM     29  C   UNL     1      -2.547  13.284  23.060  0.00  0.00    +0.000 C 
ATOM     30  C   UNL     1      -2.069  14.455  23.882  0.00  0.00    +0.000 C 
ATOM     31  C   UNL     1      -3.531  14.109  23.853  0.00  0.00    +0.000 C 
ENDBRANCH  28  29
ENDBRANCH  25  28
ENDBRANCH  18  26
ENDBRANCH  17  21
ENDBRANCH   1  17
TORSDOF 7
ENDMDL
MODEL 6
REMARK VINA RESULT:      -7.8      5.379     10.017
REMARK  Name = 
REMARK  7 active torsions:
REMARK  status: ('A' for Active; 'I' for Inactive)
REMARK    1  A    between atoms: C_2  and  C_3
REMARK    2  A    between atoms: C_3  and  C_4
REMARK    3  A    between atoms: N_7  and  C_8
REMARK    4  A    between atoms: C_11  and  C_12
REMARK    5  A    between atoms: C_12  and  C_13
REMARK    6  A    between atoms: C_13  and  N_14
REMARK    7  A    between atoms: C_17  and  C_18
REMARK                            x       y       z     vdW  Elec       q    Type
REMARK                         _______ _______ _______ _____ _____    ______ ____
ROOT
ATOM      1  C   UNL     1       8.290   9.793  17.803  0.00  0.00    +0.000 C 
ENDROOT
BRANCH   1   2
ATOM      2  N   UNL     1       9.305  10.841  18.044  0.00  0.00    +0.000 NA
ATOM      3  C   UNL     1       8.719  12.180  17.885  0.00  0.00    +0.000 C 
ATOM      4  C   UNL     1       9.619  13.318  18.371  0.00  0.00    +0.000 C 
ATOM      5  C   UNL     1      10.094  13.119  19.816  0.00  0.00    +0.000 C 
ATOM      6  C   UNL     1      10.797  11.747  19.847  0.00  0.00    +0.000 C 
ATOM      7  C   UNL     1       9.871  10.624  19.387  0.00  0.00    +0.000 C 
BRANCH   5   8
ATOM      8  C   UNL     1       9.077  13.319  20.938  0.00  0.00    +0.000 A 
ATOM      9  C   UNL     1       9.240  12.596  22.142  0.00  0.00    +0.000 A 
ATOM     10  C   UNL     1       8.356  12.739  23.231  0.00  0.00    +0.000 A 
ATOM     11  C   UNL     1       7.284  13.620  23.156  0.00  0.00    +0.000 A 
ATOM     12  C   UNL     1       7.137  14.341  21.993  0.00  0.00    +0.000 A 
ATOM     13  C   UNL     1       8.009  14.211  20.927  0.00  0.00    +0.000 A 
ATOM     14  O   UNL     1       7.665  15.072  19.926  0.00  0.00    +0.000 OA
ATOM     15  C   UNL     1       6.448  15.650  20.427  0.00  0.00    +0.000 C 
ATOM     16  O   UNL     1       6.149  15.252  21.772  0.00  0.00    +0.000 OA
ENDBRANCH   5   8
ENDBRANCH   1   2
BRANCH   1  17
ATOM     17  C   UNL     1       8.595   8.448  18.475  0.00  0.00    +0.000 C 
BRANCH  17  21
ATOM     18  C   UNL     1       5.450   5.484  18.021  0.00  0.00    +0.000 C 
ATOM     19  C   UNL     1       6.836   4.986  18.433  0.00  0.00    +0.000 C 
ATOM     20  C   UNL     1       7.706   6.145  18.908  0.00  0.00    +0.000 C 
ATOM     21  C   UNL     1       7.798   7.277  17.869  0.00  0.00    +0.000 C 
ATOM     22  C   UNL     1       6.406   7.710  17.379  0.00  0.00    +0.000 C 
ATOM     23  C   UNL     1       5.567   6.526  16.912  0.00  0.00    +0.000 C 
BRANCH  18  26
ATOM     24  O   UNL     1       2.654   5.549  17.973  0.00  0.00    +0.000 OA
ATOM     25  C   UNL     1       3.221   4.506  17.663  0.00  0.00    +0.000 C 
ATOM     26  N   UNL     1       4.593   4.388  17.610  0.00  0.00    +0.000 N 
ATOM     27  H   UNL     1       5.001   3.470  17.481  0.00  0.00    +0.000 HD
BRANCH  25  28
ATOM     28  C   UNL     1       2.435   3.293  17.206  0.00  0.00    +0.000 C 
BRANCH  28  29
ATOM     29  C   UNL     1       2.101   2.290  18.275  0.00  0.00    +0.000 C 
ATOM     30  C   UNL     1       1.820   2.795  19.668  0.00  0.00    +0.000 C 
ATOM     31  C   UNL     1       0.709   2.199  18.851  0.00  0.00    +0.000 C 
ENDBRANCH  28  29
ENDBRANCH  25  28
ENDBRANCH  18  26
ENDBRANCH  17  21
ENDBRANCH   1  17
TORSDOF 7
ENDMDL
MODEL 7
REMARK VINA RESULT:      -7.8      3.158      9.699
REMARK  Name = 
REMARK  7 active torsions:
REMARK  status: ('A' for Active; 'I' for Inactive)
REMARK    1  A    between atoms: C_2  and  C_3
REMARK    2  A    between atoms: C_3  and  C_4
REMARK    3  A    between atoms: N_7  and  C_8
REMARK    4  A    between atoms: C_11  and  C_12
REMARK    5  A    between atoms: C_12  and  C_13
REMARK    6  A    between atoms: C_13  and  N_14
REMARK    7  A    between atoms: C_17  and  C_18
REMARK                            x       y       z     vdW  Elec       q    Type
REMARK                         _______ _______ _______ _____ _____    ______ ____
ROOT
ATOM      1  C   UNL     1       1.478   9.738  21.647  0.00  0.00    +0.000 C 
ENDROOT
BRANCH   1   2
ATOM      2  N   UNL     1       0.824  11.054  21.487  0.00  0.00    +0.000 NA
ATOM      3  C   UNL     1       1.096  11.614  20.155  0.00  0.00    +0.000 C 
ATOM      4  C   UNL     1       0.249  12.839  19.805  0.00  0.00    +0.000 C 
ATOM      5  C   UNL     1      -1.254  12.585  19.973  0.00  0.00    +0.000 C 
ATOM      6  C   UNL     1      -1.447  12.122  21.431  0.00  0.00    +0.000 C 
ATOM      7  C   UNL     1      -0.616  10.881  21.747  0.00  0.00    +0.000 C 
BRANCH   5   8
ATOM      8  C   UNL     1      -1.950  11.695  18.944  0.00  0.00    +0.000 A 
ATOM      9  C   UNL     1      -1.175  10.767  18.211  0.00  0.00    +0.000 A 
ATOM     10  C   UNL     1      -1.744   9.899  17.259  0.00  0.00    +0.000 A 
ATOM     11  C   UNL     1      -3.113   9.920  17.015  0.00  0.00    +0.000 A 
ATOM     12  C   UNL     1      -3.871  10.807  17.745  0.00  0.00    +0.000 A 
ATOM     13  C   UNL     1      -3.317  11.654  18.688  0.00  0.00    +0.000 A 
ATOM     14  O   UNL     1      -4.292  12.388  19.296  0.00  0.00    +0.000 OA
ATOM     15  C   UNL     1      -5.467  12.000  18.565  0.00  0.00    +0.000 C 
ATOM     16  O   UNL     1      -5.222  10.937  17.633  0.00  0.00    +0.000 OA
ENDBRANCH   5   8
ENDBRANCH   1   2
BRANCH   1  17
ATOM     17  C   UNL     1       0.520   8.542  21.580  0.00  0.00    +0.000 C 
BRANCH  17  21
ATOM     18  C   UNL     1       3.014   6.031  19.058  0.00  0.00    +0.000 C 
ATOM     19  C   UNL     1       2.350   7.247  18.408  0.00  0.00    +0.000 C 
ATOM     20  C   UNL     1       1.835   8.211  19.472  0.00  0.00    +0.000 C 
ATOM     21  C   UNL     1       0.897   7.528  20.483  0.00  0.00    +0.000 C 
ATOM     22  C   UNL     1       1.524   6.249  21.061  0.00  0.00    +0.000 C 
ATOM     23  C   UNL     1       2.025   5.310  19.971  0.00  0.00    +0.000 C 
BRANCH  18  26
ATOM     24  O   UNL     1       5.259   6.529  17.465  0.00  0.00    +0.000 OA
ATOM     25  C   UNL     1       4.640   5.482  17.296  0.00  0.00    +0.000 C 
ATOM     26  N   UNL     1       3.551   5.125  18.060  0.00  0.00    +0.000 N 
ATOM     27  H   UNL     1       3.002   4.319  17.786  0.00  0.00    +0.000 HD
BRANCH  25  28
ATOM     28  C   UNL     1       5.109   4.450  16.289  0.00  0.00    +0.000 C 
BRANCH  28  29
ATOM     29  C   UNL     1       5.619   4.993  14.985  0.00  0.00    +0.000 C 
ATOM     30  C   UNL     1       7.074   4.793  14.645  0.00  0.00    +0.000 C 
ATOM     31  C   UNL     1       6.016   4.072  13.858  0.00  0.00    +0.000 C 
ENDBRANCH  28  29
ENDBRANCH  25  28
ENDBRANCH  18  26
ENDBRANCH  17  21
ENDBRANCH   1  17
TORSDOF 7
ENDMDL
MODEL 8
REMARK VINA RESULT:      -7.7      6.307      7.810
REMARK  Name = 
REMARK  7 active torsions:
REMARK  status: ('A' for Active; 'I' for Inactive)
REMARK    1  A    between atoms: C_2  and  C_3
REMARK    2  A    between atoms: C_3  and  C_4
REMARK    3  A    between atoms: N_7  and  C_8
REMARK    4  A    between atoms: C_11  and  C_12
REMARK    5  A    between atoms: C_12  and  C_13
REMARK    6  A    between atoms: C_13  and  N_14
REMARK    7  A    between atoms: C_17  and  C_18
REMARK                            x       y       z     vdW  Elec       q    Type
REMARK                         _______ _______ _______ _____ _____    ______ ____
ROOT
ATOM      1  C   UNL     1       8.151   7.827  18.092  0.00  0.00    +0.000 C 
ENDROOT
BRANCH   1   2
ATOM      2  N   UNL     1       7.473   6.888  17.174  0.00  0.00    +0.000 NA
ATOM      3  C   UNL     1       7.417   5.539  17.756  0.00  0.00    +0.000 C 
ATOM      4  C   UNL     1       6.506   4.569  17.000  0.00  0.00    +0.000 C 
ATOM      5  C   UNL     1       5.087   5.119  16.807  0.00  0.00    +0.000 C 
ATOM      6  C   UNL     1       5.251   6.471  16.084  0.00  0.00    +0.000 C 
ATOM      7  C   UNL     1       6.138   7.432  16.871  0.00  0.00    +0.000 C 
BRANCH   5   8
ATOM      8  C   UNL     1       4.169   5.177  18.027  0.00  0.00    +0.000 A 
ATOM      9  C   UNL     1       3.396   6.341  18.244  0.00  0.00    +0.000 A 
ATOM     10  C   UNL     1       2.512   6.464  19.334  0.00  0.00    +0.000 A 
ATOM     11  C   UNL     1       2.362   5.421  20.240  0.00  0.00    +0.000 A 
ATOM     12  C   UNL     1       3.096   4.279  20.018  0.00  0.00    +0.000 A 
ATOM     13  C   UNL     1       3.958   4.150  18.943  0.00  0.00    +0.000 A 
ATOM     14  O   UNL     1       4.520   2.907  18.931  0.00  0.00    +0.000 OA
ATOM     15  C   UNL     1       4.016   2.335  20.150  0.00  0.00    +0.000 C 
ATOM     16  O   UNL     1       3.049   3.168  20.805  0.00  0.00    +0.000 OA
ENDBRANCH   5   8
ENDBRANCH   1   2
BRANCH   1  17
ATOM     17  C   UNL     1       7.816   9.304  17.850  0.00  0.00    +0.000 C 
BRANCH  17  21
ATOM     18  C   UNL     1      10.013  12.656  19.528  0.00  0.00    +0.000 C 
ATOM     19  C   UNL     1       9.705  12.692  18.030  0.00  0.00    +0.000 C 
ATOM     20  C   UNL     1       8.633  11.667  17.676  0.00  0.00    +0.000 C 
ATOM     21  C   UNL     1       8.998  10.247  18.144  0.00  0.00    +0.000 C 
ATOM     22  C   UNL     1       9.406  10.227  19.626  0.00  0.00    +0.000 C 
ATOM     23  C   UNL     1      10.479  11.262  19.942  0.00  0.00    +0.000 C 
BRANCH  18  26
ATOM     24  O   UNL     1       9.434  15.210  20.511  0.00  0.00    +0.000 OA
ATOM     25  C   UNL     1      10.608  14.905  20.327  0.00  0.00    +0.000 C 
ATOM     26  N   UNL     1      10.998  13.658  19.891  0.00  0.00    +0.000 N 
ATOM     27  H   UNL     1      11.966  13.510  19.629  0.00  0.00    +0.000 HD
BRANCH  25  28
ATOM     28  C   UNL     1      11.730  15.863  20.677  0.00  0.00    +0.000 C 
BRANCH  28  29
ATOM     29  C   UNL     1      11.312  17.143  21.345  0.00  0.00    +0.000 C 
ATOM     30  C   UNL     1      11.342  17.207  22.852  0.00  0.00    +0.000 C 
ATOM     31  C   UNL     1      12.318  18.020  22.048  0.00  0.00    +0.000 C 
ENDBRANCH  28  29
ENDBRANCH  25  28
ENDBRANCH  18  26
ENDBRANCH  17  21
ENDBRANCH   1  17
TORSDOF 7
ENDMDL
MODEL 9
REMARK VINA RESULT:      -7.7      1.495      1.728
REMARK  Name = 
REMARK  7 active torsions:
REMARK  status: ('A' for Active; 'I' for Inactive)
REMARK    1  A    between atoms: C_2  and  C_3
REMARK    2  A    between atoms: C_3  and  C_4
REMARK    3  A    between atoms: N_7  and  C_8
REMARK    4  A    between atoms: C_11  and  C_12
REMARK    5  A    between atoms: C_12  and  C_13
REMARK    6  A    between atoms: C_13  and  N_14
REMARK    7  A    between atoms: C_17  and  C_18
REMARK                            x       y       z     vdW  Elec       q    Type
REMARK                         _______ _______ _______ _____ _____    ______ ____
ROOT
ATOM      1  C   UNL     1       1.621   5.763  20.557  0.00  0.00    +0.000 C 
ENDROOT
BRANCH   1   2
ATOM      2  N   UNL     1       1.941   4.588  19.718  0.00  0.00    +0.000 NA
ATOM      3  C   UNL     1       2.065   4.975  18.305  0.00  0.00    +0.000 C 
ATOM      4  C   UNL     1       2.653   3.883  17.408  0.00  0.00    +0.000 C 
ATOM      5  C   UNL     1       3.992   3.348  17.927  0.00  0.00    +0.000 C 
ATOM      6  C   UNL     1       3.726   2.859  19.365  0.00  0.00    +0.000 C 
ATOM      7  C   UNL     1       3.169   3.972  20.250  0.00  0.00    +0.000 C 
BRANCH   5   8
ATOM      8  C   UNL     1       5.222   4.246  17.797  0.00  0.00    +0.000 A 
ATOM      9  C   UNL     1       5.755   4.843  18.962  0.00  0.00    +0.000 A 
ATOM     10  C   UNL     1       6.897   5.668  18.928  0.00  0.00    +0.000 A 
ATOM     11  C   UNL     1       7.552   5.914  17.728  0.00  0.00    +0.000 A 
ATOM     12  C   UNL     1       7.048   5.314  16.597  0.00  0.00    +0.000 A 
ATOM     13  C   UNL     1       5.933   4.496  16.628  0.00  0.00    +0.000 A 
ATOM     14  O   UNL     1       5.678   3.995  15.385  0.00  0.00    +0.000 OA
ATOM     15  C   UNL     1       6.660   4.668  14.579  0.00  0.00    +0.000 C 
ATOM     16  O   UNL     1       7.585   5.445  15.352  0.00  0.00    +0.000 OA
ENDBRANCH   5   8
ENDBRANCH   1   2
BRANCH   1  17
ATOM     17  C   UNL     1       2.170   7.091  20.024  0.00  0.00    +0.000 C 
BRANCH  17  21
ATOM     18  C   UNL     1       0.713  11.143  20.609  0.00  0.00    +0.000 C 
ATOM     19  C   UNL     1       0.460  10.133  21.729  0.00  0.00    +0.000 C 
ATOM     20  C   UNL     1       1.336   8.898  21.548  0.00  0.00    +0.000 C 
ATOM     21  C   UNL     1       1.170   8.255  20.160  0.00  0.00    +0.000 C 
ATOM     22  C   UNL     1       1.324   9.292  19.035  0.00  0.00    +0.000 C 
ATOM     23  C   UNL     1       0.434  10.510  19.248  0.00  0.00    +0.000 C 
BRANCH  18  26
ATOM     24  O   UNL     1       1.655  13.552  21.676  0.00  0.00    +0.000 OA
ATOM     25  C   UNL     1       0.470  13.471  21.367  0.00  0.00    +0.000 C 
ATOM     26  N   UNL     1      -0.078  12.346  20.790  0.00  0.00    +0.000 N 
ATOM     27  H   UNL     1      -1.084  12.290  20.683  0.00  0.00    +0.000 HD
BRANCH  25  28
ATOM     28  C   UNL     1      -0.457  14.663  21.500  0.00  0.00    +0.000 C 
BRANCH  28  29
ATOM     29  C   UNL     1       0.010  15.754  22.423  0.00  0.00    +0.000 C 
ATOM     30  C   UNL     1      -0.925  16.902  22.705  0.00  0.00    +0.000 C 
ATOM     31  C   UNL     1      -0.592  15.924  23.796  0.00  0.00    +0.000 C 
ENDBRANCH  28  29
ENDBRANCH  25  28
ENDBRANCH  18  26
ENDBRANCH  17  21
ENDBRANCH   1  17
TORSDOF 7
ENDMDL
