MODEL 1
REMARK VINA RESULT:      -7.5      0.000      0.000
REMARK  Name = 
REMARK  5 active torsions:
REMARK  status: ('A' for Active; 'I' for Inactive)
REMARK    1  A    between atoms: C_1  and  C_2
REMARK    2  A    between atoms: C_2  and  N_3
REMARK    3  A    between atoms: C_10  and  C_11
REMARK    4  A    between atoms: C_11  and  C_12
REMARK    5  A    between atoms: C_15  and  C_17
REMARK                            x       y       z     vdW  Elec       q    Type
REMARK                         _______ _______ _______ _____ _____    ______ ____
ROOT
ATOM      1  C   UNL     1       5.185   5.060  16.981  0.00  0.00    +0.000 C 
ATOM      2  C   UNL     1       6.348   5.858  16.342  0.00  0.00    +0.000 C 
ATOM      3  N   UNL     1       6.143   4.986  15.186  0.00  0.00    +0.000 N 
ATOM      4  C   UNL     1       6.917   4.904  14.051  0.00  0.00    +0.000 C 
ATOM      5  O   UNL     1       7.862   5.656  13.826  0.00  0.00    +0.000 OA
ATOM      6  C   UNL     1       5.599   3.916  16.024  0.00  0.00    +0.000 C 
ENDROOT
BRANCH   4   7
ATOM      7  C   UNL     1       6.536   3.872  13.041  0.00  0.00    +0.000 A 
ATOM      8  C   UNL     1       5.192   3.617  12.730  0.00  0.00    +0.000 A 
ATOM      9  C   UNL     1       4.859   2.640  11.789  0.00  0.00    +0.000 A 
ATOM     10  C   UNL     1       5.870   1.947  11.134  0.00  0.00    +0.000 A 
ATOM     11  F   UNL     1       5.549   1.014  10.230  0.00  0.00    +0.000 F 
ATOM     12  C   UNL     1       7.209   2.220  11.395  0.00  0.00    +0.000 A 
ATOM     13  C   UNL     1       7.545   3.188  12.349  0.00  0.00    +0.000 A 
ENDBRANCH   4   7
BRANCH   1  14
ATOM     14  C   UNL     1       5.232   4.774  18.479  0.00  0.00    +0.000 C 
BRANCH  14  22
ATOM     15  N   UNL     1       3.028   2.907  20.016  0.00  0.00    +0.000 N 
ATOM     16  C   UNL     1       1.854   2.517  20.620  0.00  0.00    +0.000 A 
ATOM     17  C   UNL     1       1.098   3.636  20.846  0.00  0.00    +0.000 A 
ATOM     18  C   UNL     1       1.824   4.748  20.347  0.00  0.00    +0.000 A 
ATOM     19  C   UNL     1       1.539   6.118  20.326  0.00  0.00    +0.000 A 
ATOM     20  C   UNL     1       2.478   6.934  19.737  0.00  0.00    +0.000 A 
ATOM     21  N   UNL     1       3.617   6.493  19.172  0.00  0.00    +0.000 NA
ATOM     22  C   UNL     1       3.941   5.162  19.170  0.00  0.00    +0.000 A 
ATOM     23  C   UNL     1       3.026   4.276  19.790  0.00  0.00    +0.000 A 
BRANCH  15  25
ATOM     24  C   UNL     1       3.887   1.244  18.411  0.00  0.00    +0.000 C 
ATOM     25  C   UNL     1       4.091   1.953  19.739  0.00  0.00    +0.000 C 
ENDBRANCH  15  25
ENDBRANCH  14  22
ENDBRANCH   1  14
TORSDOF 4
ENDMDL
MODEL 2
REMARK VINA RESULT:      -7.4      0.929      2.495
REMARK  Name = 
REMARK  5 active torsions:
REMARK  status: ('A' for Active; 'I' for Inactive)
REMARK    1  A    between atoms: C_1  and  C_2
REMARK    2  A    between atoms: C_2  and  N_3
REMARK    3  A    between atoms: C_10  and  C_11
REMARK    4  A    between atoms: C_11  and  C_12
REMARK    5  A    between atoms: C_15  and  C_17
REMARK                            x       y       z     vdW  Elec       q    Type
REMARK                         _______ _______ _______ _____ _____    ______ ____
ROOT
ATOM      1  C   UNL     1       5.558   5.654  17.445  0.00  0.00    +0.000 C 
ATOM      2  C   UNL     1       6.842   6.189  16.763  0.00  0.00    +0.000 C 
ATOM      3  N   UNL     1       6.411   5.391  15.615  0.00  0.00    +0.000 N 
ATOM      4  C   UNL     1       7.107   5.154  14.452  0.00  0.00    +0.000 C 
ATOM      5  O   UNL     1       8.183   5.688  14.191  0.00  0.00    +0.000 OA
ATOM      6  C   UNL     1       5.681   4.456  16.473  0.00  0.00    +0.000 C 
ENDROOT
BRANCH   4   7
ATOM      7  C   UNL     1       6.476   4.237  13.457  0.00  0.00    +0.000 A 
ATOM      8  C   UNL     1       5.083   4.096  13.375  0.00  0.00    +0.000 A 
ATOM      9  C   UNL     1       4.515   3.224  12.443  0.00  0.00    +0.000 A 
ATOM     10  C   UNL     1       5.339   2.525  11.569  0.00  0.00    +0.000 A 
ATOM     11  F   UNL     1       4.793   1.693  10.674  0.00  0.00    +0.000 F 
ATOM     12  C   UNL     1       6.720   2.689  11.603  0.00  0.00    +0.000 A 
ATOM     13  C   UNL     1       7.292   3.550  12.547  0.00  0.00    +0.000 A 
ENDBRANCH   4   7
BRANCH   1  14
ATOM     14  C   UNL     1       5.599   5.351  18.940  0.00  0.00    +0.000 C 
BRANCH  14  22
ATOM     15  N   UNL     1       2.479   5.758  19.839  0.00  0.00    +0.000 N 
ATOM     16  C   UNL     1       1.231   5.485  20.353  0.00  0.00    +0.000 A 
ATOM     17  C   UNL     1       1.133   4.132  20.542  0.00  0.00    +0.000 A 
ATOM     18  C   UNL     1       2.370   3.557  20.151  0.00  0.00    +0.000 A 
ATOM     19  C   UNL     1       2.818   2.231  20.120  0.00  0.00    +0.000 A 
ATOM     20  C   UNL     1       4.109   2.027  19.690  0.00  0.00    +0.000 A 
ATOM     21  N   UNL     1       4.952   3.012  19.327  0.00  0.00    +0.000 NA
ATOM     22  C   UNL     1       4.559   4.323  19.337  0.00  0.00    +0.000 A 
ATOM     23  C   UNL     1       3.229   4.594  19.742  0.00  0.00    +0.000 A 
BRANCH  15  25
ATOM     24  C   UNL     1       2.330   7.447  18.049  0.00  0.00    +0.000 C 
ATOM     25  C   UNL     1       2.853   7.103  19.433  0.00  0.00    +0.000 C 
ENDBRANCH  15  25
ENDBRANCH  14  22
ENDBRANCH   1  14
TORSDOF 4
ENDMDL
MODEL 3
REMARK VINA RESULT:      -7.4      0.350      1.025
REMARK  Name = 
REMARK  5 active torsions:
REMARK  status: ('A' for Active; 'I' for Inactive)
REMARK    1  A    between atoms: C_1  and  C_2
REMARK    2  A    between atoms: C_2  and  N_3
REMARK    3  A    between atoms: C_10  and  C_11
REMARK    4  A    between atoms: C_11  and  C_12
REMARK    5  A    between atoms: C_15  and  C_17
REMARK                            x       y       z     vdW  Elec       q    Type
REMARK                         _______ _______ _______ _____ _____    ______ ____
ROOT
ATOM      1  C   UNL     1       5.224   5.279  17.225  0.00  0.00    +0.000 C 
ATOM      2  C   UNL     1       6.493   5.927  16.618  0.00  0.00    +0.000 C 
ATOM      3  N   UNL     1       6.173   5.138  15.429  0.00  0.00    +0.000 N 
ATOM      4  C   UNL     1       6.934   4.991  14.292  0.00  0.00    +0.000 C 
ATOM      5  O   UNL     1       7.977   5.609  14.097  0.00  0.00    +0.000 OA
ATOM      6  C   UNL     1       5.477   4.125  16.224  0.00  0.00    +0.000 C 
ENDROOT
BRANCH   4   7
ATOM      7  C   UNL     1       6.416   4.064  13.242  0.00  0.00    +0.000 A 
ATOM      8  C   UNL     1       7.281   3.247  12.498  0.00  0.00    +0.000 A 
ATOM      9  C   UNL     1       6.775   2.396  11.513  0.00  0.00    +0.000 A 
ATOM     10  C   UNL     1       5.402   2.334  11.302  0.00  0.00    +0.000 A 
ATOM     11  F   UNL     1       4.919   1.514  10.360  0.00  0.00    +0.000 F 
ATOM     12  C   UNL     1       4.526   3.100  12.063  0.00  0.00    +0.000 A 
ATOM     13  C   UNL     1       5.032   3.966  13.039  0.00  0.00    +0.000 A 
ENDBRANCH   4   7
BRANCH   1  14
ATOM     14  C   UNL     1       5.221   4.931  18.710  0.00  0.00    +0.000 C 
BRANCH  14  22
ATOM     15  N   UNL     1       3.022   2.901  20.033  0.00  0.00    +0.000 N 
ATOM     16  C   UNL     1       1.837   2.435  20.557  0.00  0.00    +0.000 A 
ATOM     17  C   UNL     1       1.029   3.512  20.809  0.00  0.00    +0.000 A 
ATOM     18  C   UNL     1       1.734   4.677  20.408  0.00  0.00    +0.000 A 
ATOM     19  C   UNL     1       1.399   6.034  20.451  0.00  0.00    +0.000 A 
ATOM     20  C   UNL     1       2.332   6.915  19.954  0.00  0.00    +0.000 A 
ATOM     21  N   UNL     1       3.512   6.548  19.420  0.00  0.00    +0.000 NA
ATOM     22  C   UNL     1       3.886   5.233  19.359  0.00  0.00    +0.000 A 
ATOM     23  C   UNL     1       2.978   4.281  19.885  0.00  0.00    +0.000 A 
BRANCH  15  25
ATOM     24  C   UNL     1       3.971   1.297  18.419  0.00  0.00    +0.000 C 
ATOM     25  C   UNL     1       4.132   2.003  19.754  0.00  0.00    +0.000 C 
ENDBRANCH  15  25
ENDBRANCH  14  22
ENDBRANCH   1  14
TORSDOF 4
ENDMDL
MODEL 4
REMARK VINA RESULT:      -7.4      4.920      7.439
REMARK  Name = 
REMARK  5 active torsions:
REMARK  status: ('A' for Active; 'I' for Inactive)
REMARK    1  A    between atoms: C_1  and  C_2
REMARK    2  A    between atoms: C_2  and  N_3
REMARK    3  A    between atoms: C_10  and  C_11
REMARK    4  A    between atoms: C_11  and  C_12
REMARK    5  A    between atoms: C_15  and  C_17
REMARK                            x       y       z     vdW  Elec       q    Type
REMARK                         _______ _______ _______ _____ _____    ______ ____
ROOT
ATOM      1  C   UNL     1       1.955   8.870  18.676  0.00  0.00    +0.000 C 
ATOM      2  C   UNL     1       1.726   7.734  19.703  0.00  0.00    +0.000 C 
ATOM      3  N   UNL     1       2.881   7.099  19.067  0.00  0.00    +0.000 N 
ATOM      4  C   UNL     1       3.374   5.836  19.298  0.00  0.00    +0.000 C 
ATOM      5  O   UNL     1       2.939   5.094  20.175  0.00  0.00    +0.000 OA
ATOM      6  C   UNL     1       2.623   7.784  17.799  0.00  0.00    +0.000 C 
ENDROOT
BRANCH   4   7
ATOM      7  C   UNL     1       4.526   5.392  18.458  0.00  0.00    +0.000 A 
ATOM      8  C   UNL     1       5.849   5.516  18.910  0.00  0.00    +0.000 A 
ATOM      9  C   UNL     1       6.912   5.104  18.103  0.00  0.00    +0.000 A 
ATOM     10  C   UNL     1       6.649   4.534  16.863  0.00  0.00    +0.000 A 
ATOM     11  F   UNL     1       7.669   4.136  16.092  0.00  0.00    +0.000 F 
ATOM     12  C   UNL     1       5.342   4.359  16.419  0.00  0.00    +0.000 A 
ATOM     13  C   UNL     1       4.276   4.786  17.219  0.00  0.00    +0.000 A 
ENDBRANCH   4   7
BRANCH   1  14
ATOM     14  C   UNL     1       0.737   9.587  18.098  0.00  0.00    +0.000 C 
BRANCH  14  22
ATOM     15  N   UNL     1      -2.285  10.831  18.263  0.00  0.00    +0.000 N 
ATOM     16  C   UNL     1      -3.333  11.648  18.622  0.00  0.00    +0.000 A 
ATOM     17  C   UNL     1      -2.940  12.402  19.695  0.00  0.00    +0.000 A 
ATOM     18  C   UNL     1      -1.597  12.051  19.993  0.00  0.00    +0.000 A 
ATOM     19  C   UNL     1      -0.713  12.490  20.984  0.00  0.00    +0.000 A 
ATOM     20  C   UNL     1       0.548  11.939  20.973  0.00  0.00    +0.000 A 
ATOM     21  N   UNL     1       0.974  11.038  20.068  0.00  0.00    +0.000 NA
ATOM     22  C   UNL     1       0.144  10.576  19.082  0.00  0.00    +0.000 A 
ATOM     23  C   UNL     1      -1.177  11.085  19.060  0.00  0.00    +0.000 A 
BRANCH  15  25
ATOM     24  C   UNL     1      -2.623  10.467  15.848  0.00  0.00    +0.000 C 
ATOM     25  C   UNL     1      -2.426   9.834  17.214  0.00  0.00    +0.000 C 
ENDBRANCH  15  25
ENDBRANCH  14  22
ENDBRANCH   1  14
TORSDOF 4
ENDMDL
MODEL 5
REMARK VINA RESULT:      -7.1      4.607      7.332
REMARK  Name = 
REMARK  5 active torsions:
REMARK  status: ('A' for Active; 'I' for Inactive)
REMARK    1  A    between atoms: C_1  and  C_2
REMARK    2  A    between atoms: C_2  and  N_3
REMARK    3  A    between atoms: C_10  and  C_11
REMARK    4  A    between atoms: C_11  and  C_12
REMARK    5  A    between atoms: C_15  and  C_17
REMARK                            x       y       z     vdW  Elec       q    Type
REMARK                         _______ _______ _______ _____ _____    ______ ____
ROOT
ATOM      1  C   UNL     1       1.946   8.198  19.835  0.00  0.00    +0.000 C 
ATOM      2  C   UNL     1       1.627   6.789  20.394  0.00  0.00    +0.000 C 
ATOM      3  N   UNL     1       2.803   6.362  19.636  0.00  0.00    +0.000 N 
ATOM      4  C   UNL     1       3.251   5.075  19.440  0.00  0.00    +0.000 C 
ATOM      5  O   UNL     1       2.745   4.097  19.984  0.00  0.00    +0.000 OA
ATOM      6  C   UNL     1       2.642   7.451  18.671  0.00  0.00    +0.000 C 
ENDROOT
BRANCH   4   7
ATOM      7  C   UNL     1       4.443   4.897  18.558  0.00  0.00    +0.000 A 
ATOM      8  C   UNL     1       5.741   5.155  19.024  0.00  0.00    +0.000 A 
ATOM      9  C   UNL     1       6.840   4.992  18.178  0.00  0.00    +0.000 A 
ATOM     10  C   UNL     1       6.643   4.535  16.880  0.00  0.00    +0.000 A 
ATOM     11  F   UNL     1       7.697   4.375  16.072  0.00  0.00    +0.000 F 
ATOM     12  C   UNL     1       5.368   4.227  16.416  0.00  0.00    +0.000 A 
ATOM     13  C   UNL     1       4.263   4.406  17.258  0.00  0.00    +0.000 A 
ENDBRANCH   4   7
BRANCH   1  14
ATOM     14  C   UNL     1       0.784   9.121  19.481  0.00  0.00    +0.000 C 
BRANCH  14  22
ATOM     15  N   UNL     1      -1.313  11.619  19.756  0.00  0.00    +0.000 N 
ATOM     16  C   UNL     1      -2.065  12.624  20.320  0.00  0.00    +0.000 A 
ATOM     17  C   UNL     1      -2.040  12.465  21.681  0.00  0.00    +0.000 A 
ATOM     18  C   UNL     1      -1.228  11.336  21.962  0.00  0.00    +0.000 A 
ATOM     19  C   UNL     1      -0.871  10.716  23.165  0.00  0.00    +0.000 A 
ATOM     20  C   UNL     1      -0.036   9.627  23.073  0.00  0.00    +0.000 A 
ATOM     21  N   UNL     1       0.463   9.150  21.918  0.00  0.00    +0.000 NA
ATOM     22  C   UNL     1       0.141   9.720  20.715  0.00  0.00    +0.000 A 
ATOM     23  C   UNL     1      -0.741  10.828  20.744  0.00  0.00    +0.000 A 
BRANCH  15  25
ATOM     24  C   UNL     1      -2.211  10.417  17.800  0.00  0.00    +0.000 C 
ATOM     25  C   UNL     1      -1.228  11.454  18.314  0.00  0.00    +0.000 C 
ENDBRANCH  15  25
ENDBRANCH  14  22
ENDBRANCH   1  14
TORSDOF 4
ENDMDL
MODEL 6
REMARK VINA RESULT:      -7.1      4.976      7.636
REMARK  Name = 
REMARK  5 active torsions:
REMARK  status: ('A' for Active; 'I' for Inactive)
REMARK    1  A    between atoms: C_1  and  C_2
REMARK    2  A    between atoms: C_2  and  N_3
REMARK    3  A    between atoms: C_10  and  C_11
REMARK    4  A    between atoms: C_11  and  C_12
REMARK    5  A    between atoms: C_15  and  C_17
REMARK                            x       y       z     vdW  Elec       q    Type
REMARK                         _______ _______ _______ _____ _____    ______ ____
ROOT
ATOM      1  C   UNL     1       1.268   8.606  18.547  0.00  0.00    +0.000 C 
ATOM      2  C   UNL     1       2.625   8.838  17.837  0.00  0.00    +0.000 C 
ATOM      3  N   UNL     1       2.815   7.397  18.005  0.00  0.00    +0.000 N 
ATOM      4  C   UNL     1       3.947   6.664  17.731  0.00  0.00    +0.000 C 
ATOM      5  O   UNL     1       4.946   7.143  17.200  0.00  0.00    +0.000 OA
ATOM      6  C   UNL     1       1.946   7.367  19.182  0.00  0.00    +0.000 C 
ENDROOT
BRANCH   4   7
ATOM      7  C   UNL     1       3.911   5.209  18.061  0.00  0.00    +0.000 A 
ATOM      8  C   UNL     1       4.634   4.688  19.145  0.00  0.00    +0.000 A 
ATOM      9  C   UNL     1       4.594   3.321  19.429  0.00  0.00    +0.000 A 
ATOM     10  C   UNL     1       3.801   2.484  18.653  0.00  0.00    +0.000 A 
ATOM     11  F   UNL     1       3.761   1.175  18.929  0.00  0.00    +0.000 F 
ATOM     12  C   UNL     1       3.039   2.989  17.605  0.00  0.00    +0.000 A 
ATOM     13  C   UNL     1       3.091   4.356  17.308  0.00  0.00    +0.000 A 
ENDBRANCH   4   7
BRANCH   1  14
ATOM     14  C   UNL     1       0.746   9.683  19.493  0.00  0.00    +0.000 C 
BRANCH  14  22
ATOM     15  N   UNL     1      -1.316  11.768  20.945  0.00  0.00    +0.000 N 
ATOM     16  C   UNL     1      -2.438  12.530  21.180  0.00  0.00    +0.000 A 
ATOM     17  C   UNL     1      -3.190  12.547  20.035  0.00  0.00    +0.000 A 
ATOM     18  C   UNL     1      -2.517  11.752  19.071  0.00  0.00    +0.000 A 
ATOM     19  C   UNL     1      -2.820  11.437  17.742  0.00  0.00    +0.000 A 
ATOM     20  C   UNL     1      -1.937  10.607  17.089  0.00  0.00    +0.000 A 
ATOM     21  N   UNL     1      -0.836  10.077  17.654  0.00  0.00    +0.000 NA
ATOM     22  C   UNL     1      -0.496  10.359  18.950  0.00  0.00    +0.000 A 
ATOM     23  C   UNL     1      -1.352  11.232  19.664  0.00  0.00    +0.000 A 
BRANCH  15  25
ATOM     24  C   UNL     1      -0.539  10.510  22.918  0.00  0.00    +0.000 C 
ATOM     25  C   UNL     1      -0.264  11.640  21.941  0.00  0.00    +0.000 C 
ENDBRANCH  15  25
ENDBRANCH  14  22
ENDBRANCH   1  14
TORSDOF 4
ENDMDL
MODEL 7
REMARK VINA RESULT:      -7.1      5.398      8.718
REMARK  Name = 
REMARK  5 active torsions:
REMARK  status: ('A' for Active; 'I' for Inactive)
REMARK    1  A    between atoms: C_1  and  C_2
REMARK    2  A    between atoms: C_2  and  N_3
REMARK    3  A    between atoms: C_10  and  C_11
REMARK    4  A    between atoms: C_11  and  C_12
REMARK    5  A    between atoms: C_15  and  C_17
REMARK                            x       y       z     vdW  Elec       q    Type
REMARK                         _______ _______ _______ _____ _____    ______ ____
ROOT
ATOM      1  C   UNL     1       1.651   8.923  18.011  0.00  0.00    +0.000 C 
ATOM      2  C   UNL     1       2.859   8.182  17.387  0.00  0.00    +0.000 C 
ATOM      3  N   UNL     1       2.429   7.052  18.210  0.00  0.00    +0.000 N 
ATOM      4  C   UNL     1       3.081   5.854  18.395  0.00  0.00    +0.000 C 
ATOM      5  O   UNL     1       4.103   5.544  17.788  0.00  0.00    +0.000 OA
ATOM      6  C   UNL     1       1.808   7.939  19.195  0.00  0.00    +0.000 C 
ENDROOT
BRANCH   4   7
ATOM      7  C   UNL     1       2.466   4.886  19.351  0.00  0.00    +0.000 A 
ATOM      8  C   UNL     1       1.436   4.021  18.953  0.00  0.00    +0.000 A 
ATOM      9  C   UNL     1       0.868   3.131  19.868  0.00  0.00    +0.000 A 
ATOM     10  C   UNL     1       1.358   3.080  21.168  0.00  0.00    +0.000 A 
ATOM     11  F   UNL     1       0.816   2.224  22.042  0.00  0.00    +0.000 F 
ATOM     12  C   UNL     1       2.412   3.896  21.567  0.00  0.00    +0.000 A 
ATOM     13  C   UNL     1       2.971   4.800  20.657  0.00  0.00    +0.000 A 
ENDBRANCH   4   7
BRANCH   1  14
ATOM     14  C   UNL     1       1.785  10.412  18.313  0.00  0.00    +0.000 C 
BRANCH  14  22
ATOM     15  N   UNL     1       1.075  13.303  19.671  0.00  0.00    +0.000 N 
ATOM     16  C   UNL     1       0.353  14.319  20.255  0.00  0.00    +0.000 A 
ATOM     17  C   UNL     1      -0.979  14.030  20.119  0.00  0.00    +0.000 A 
ATOM     18  C   UNL     1      -1.078  12.785  19.446  0.00  0.00    +0.000 A 
ATOM     19  C   UNL     1      -2.180  12.027  19.036  0.00  0.00    +0.000 A 
ATOM     20  C   UNL     1      -1.909  10.833  18.409  0.00  0.00    +0.000 A 
ATOM     21  N   UNL     1      -0.669  10.354  18.195  0.00  0.00    +0.000 NA
ATOM     22  C   UNL     1       0.441  11.060  18.575  0.00  0.00    +0.000 A 
ATOM     23  C   UNL     1       0.224  12.313  19.199  0.00  0.00    +0.000 A 
BRANCH  15  25
ATOM     24  C   UNL     1       2.969  14.003  18.255  0.00  0.00    +0.000 C 
ATOM     25  C   UNL     1       2.523  13.369  19.562  0.00  0.00    +0.000 C 
ENDBRANCH  15  25
ENDBRANCH  14  22
ENDBRANCH   1  14
TORSDOF 4
ENDMDL
MODEL 8
REMARK VINA RESULT:      -7.0      6.103      9.334
REMARK  Name = 
REMARK  5 active torsions:
REMARK  status: ('A' for Active; 'I' for Inactive)
REMARK    1  A    between atoms: C_1  and  C_2
REMARK    2  A    between atoms: C_2  and  N_3
REMARK    3  A    between atoms: C_10  and  C_11
REMARK    4  A    between atoms: C_11  and  C_12
REMARK    5  A    between atoms: C_15  and  C_17
REMARK                            x       y       z     vdW  Elec       q    Type
REMARK                         _______ _______ _______ _____ _____    ______ ____
ROOT
ATOM      1  C   UNL     1       1.397   9.288  18.794  0.00  0.00    +0.000 C 
ATOM      2  C   UNL     1       1.592  10.821  18.700  0.00  0.00    +0.000 C 
ATOM      3  N   UNL     1       0.138  10.869  18.549  0.00  0.00    +0.000 N 
ATOM      4  C   UNL     1      -0.638  11.967  18.254  0.00  0.00    +0.000 C 
ATOM      5  O   UNL     1      -0.186  13.106  18.173  0.00  0.00    +0.000 OA
ATOM      6  C   UNL     1       0.101   9.520  17.981  0.00  0.00    +0.000 C 
ENDROOT
BRANCH   4   7
ATOM      7  C   UNL     1      -2.102  11.737  18.077  0.00  0.00    +0.000 A 
ATOM      8  C   UNL     1      -3.017  12.037  19.098  0.00  0.00    +0.000 A 
ATOM      9  C   UNL     1      -4.382  11.804  18.915  0.00  0.00    +0.000 A 
ATOM     10  C   UNL     1      -4.833  11.307  17.698  0.00  0.00    +0.000 A 
ATOM     11  F   UNL     1      -6.142  11.087  17.522  0.00  0.00    +0.000 F 
ATOM     12  C   UNL     1      -3.947  11.048  16.657  0.00  0.00    +0.000 A 
ATOM     13  C   UNL     1      -2.577  11.266  16.845  0.00  0.00    +0.000 A 
ENDBRANCH   4   7
BRANCH   1  14
ATOM     14  C   UNL     1       2.457   8.379  18.180  0.00  0.00    +0.000 C 
BRANCH  14  22
ATOM     15  N   UNL     1       4.213   5.711  17.464  0.00  0.00    +0.000 N 
ATOM     16  C   UNL     1       4.663   4.410  17.487  0.00  0.00    +0.000 A 
ATOM     17  C   UNL     1       4.129   3.792  18.586  0.00  0.00    +0.000 A 
ATOM     18  C   UNL     1       3.307   4.739  19.250  0.00  0.00    +0.000 A 
ATOM     19  C   UNL     1       2.541   4.658  20.418  0.00  0.00    +0.000 A 
ATOM     20  C   UNL     1       1.838   5.786  20.774  0.00  0.00    +0.000 A 
ATOM     21  N   UNL     1       1.830   6.929  20.064  0.00  0.00    +0.000 NA
ATOM     22  C   UNL     1       2.566   7.058  18.916  0.00  0.00    +0.000 A 
ATOM     23  C   UNL     1       3.335   5.939  18.515  0.00  0.00    +0.000 A 
BRANCH  15  25
ATOM     24  C   UNL     1       5.455   5.977  15.351  0.00  0.00    +0.000 C 
ATOM     25  C   UNL     1       4.686   6.660  16.469  0.00  0.00    +0.000 C 
ENDBRANCH  15  25
ENDBRANCH  14  22
ENDBRANCH   1  14
TORSDOF 4
ENDMDL
MODEL 9
REMARK VINA RESULT:      -7.0      4.762      7.514
REMARK  Name = 
REMARK  5 active torsions:
REMARK  status: ('A' for Active; 'I' for Inactive)
REMARK    1  A    between atoms: C_1  and  C_2
REMARK    2  A    between atoms: C_2  and  N_3
REMARK    3  A    between atoms: C_10  and  C_11
REMARK    4  A    between atoms: C_11  and  C_12
REMARK    5  A    between atoms: C_15  and  C_17
REMARK                            x       y       z     vdW  Elec       q    Type
REMARK                         _______ _______ _______ _____ _____    ______ ____
ROOT
ATOM      1  C   UNL     1       1.853   8.375  19.863  0.00  0.00    +0.000 C 
ATOM      2  C   UNL     1       1.492   6.987  20.446  0.00  0.00    +0.000 C 
ATOM      3  N   UNL     1       2.656   6.511  19.699  0.00  0.00    +0.000 N 
ATOM      4  C   UNL     1       3.066   5.209  19.527  0.00  0.00    +0.000 C 
ATOM      5  O   UNL     1       2.530   4.256  20.087  0.00  0.00    +0.000 OA
ATOM      6  C   UNL     1       2.529   7.587  18.714  0.00  0.00    +0.000 C 
ENDROOT
BRANCH   4   7
ATOM      7  C   UNL     1       4.253   4.980  18.652  0.00  0.00    +0.000 A 
ATOM      8  C   UNL     1       4.109   4.560  17.320  0.00  0.00    +0.000 A 
ATOM      9  C   UNL     1       5.234   4.342  16.523  0.00  0.00    +0.000 A 
ATOM     10  C   UNL     1       6.500   4.580  17.046  0.00  0.00    +0.000 A 
ATOM     11  F   UNL     1       7.578   4.373  16.279  0.00  0.00    +0.000 F 
ATOM     12  C   UNL     1       6.661   5.042  18.348  0.00  0.00    +0.000 A 
ATOM     13  C   UNL     1       5.535   5.246  19.154  0.00  0.00    +0.000 A 
ENDBRANCH   4   7
BRANCH   1  14
ATOM     14  C   UNL     1       0.721   9.327  19.489  0.00  0.00    +0.000 C 
BRANCH  14  22
ATOM     15  N   UNL     1      -1.304  11.884  19.756  0.00  0.00    +0.000 N 
ATOM     16  C   UNL     1      -2.047  12.896  20.319  0.00  0.00    +0.000 A 
ATOM     17  C   UNL     1      -2.087  12.695  21.673  0.00  0.00    +0.000 A 
ATOM     18  C   UNL     1      -1.324  11.531  21.953  0.00  0.00    +0.000 A 
ATOM     19  C   UNL     1      -1.041  10.863  23.149  0.00  0.00    +0.000 A 
ATOM     20  C   UNL     1      -0.238   9.749  23.058  0.00  0.00    +0.000 A 
ATOM     21  N   UNL     1       0.295   9.291  21.910  0.00  0.00    +0.000 NA
ATOM     22  C   UNL     1       0.044   9.908  20.714  0.00  0.00    +0.000 A 
ATOM     23  C   UNL     1      -0.802  11.044  20.741  0.00  0.00    +0.000 A 
BRANCH  15  25
ATOM     24  C   UNL     1      -2.336  11.030  17.686  0.00  0.00    +0.000 C 
ATOM     25  C   UNL     1      -1.161  11.760  18.314  0.00  0.00    +0.000 C 
ENDBRANCH  15  25
ENDBRANCH  14  22
ENDBRANCH   1  14
TORSDOF 4
ENDMDL
