MODEL 1
REMARK VINA RESULT:      -6.7      0.000      0.000
REMARK  Name = 
REMARK  3 active torsions:
REMARK  status: ('A' for Active; 'I' for Inactive)
REMARK    1  A    between atoms: C_1  and  C_2
REMARK    2  A    between atoms: C_4  and  C_5
REMARK    3  A    between atoms: C_6  and  C_7
REMARK                            x       y       z     vdW  Elec       q    Type
REMARK                         _______ _______ _______ _____ _____    ______ ____
ROOT
ATOM      1  C   UNL     1       8.210   8.763  18.023  0.00  0.00    +0.000 C 
ATOM      2  C   UNL     1       8.728   9.813  18.305  0.00  0.00    +0.000 C 
ENDROOT
BRANCH   2   3
ATOM      3  C   UNL     1       9.343  11.040  18.715  0.00  0.00    +0.000 A 
ATOM      4  C   UNL     1      10.396  11.016  19.629  0.00  0.00    +0.000 A 
ATOM      5  C   UNL     1      11.038  12.205  19.975  0.00  0.00    +0.000 A 
ATOM      6  C   UNL     1      10.589  13.389  19.409  0.00  0.00    +0.000 A 
ATOM      7  N   UNL     1       9.561  13.457  18.539  0.00  0.00    +0.000 NA
ATOM      8  C   UNL     1       8.967  12.285  18.209  0.00  0.00    +0.000 A 
ATOM      9 CL   UNL     1       7.693  12.481  17.064  0.00  0.00    +0.000 Cl
ENDBRANCH   2   3
BRANCH   1  13
ATOM     10  C   UNL     1       5.503   5.435  15.641  0.00  0.00    +0.000 C 
ATOM     11  C   UNL     1       6.401   6.033  16.670  0.00  0.00    +0.000 A 
ATOM     12  N   UNL     1       6.825   7.282  16.679  0.00  0.00    +0.000 NA
ATOM     13  C   UNL     1       7.637   7.479  17.778  0.00  0.00    +0.000 A 
ATOM     14  C   UNL     1       7.825   6.386  18.595  0.00  0.00    +0.000 A 
ATOM     15  S   UNL     1       6.956   5.049  17.972  0.00  0.00    +0.000 S 
ENDBRANCH   1  13
TORSDOF 2
ENDMDL
MODEL 2
REMARK VINA RESULT:      -6.6      6.553      8.008
REMARK  Name = 
REMARK  3 active torsions:
REMARK  status: ('A' for Active; 'I' for Inactive)
REMARK    1  A    between atoms: C_1  and  C_2
REMARK    2  A    between atoms: C_4  and  C_5
REMARK    3  A    between atoms: C_6  and  C_7
REMARK                            x       y       z     vdW  Elec       q    Type
REMARK                         _______ _______ _______ _____ _____    ______ ____
ROOT
ATOM      1  C   UNL     1       4.182   3.819  16.769  0.00  0.00    +0.000 C 
ATOM      2  C   UNL     1       4.997   4.082  15.923  0.00  0.00    +0.000 C 
ENDROOT
BRANCH   2   3
ATOM      3  C   UNL     1       5.942   4.333  14.876  0.00  0.00    +0.000 A 
ATOM      4  C   UNL     1       5.773   3.730  13.630  0.00  0.00    +0.000 A 
ATOM      5  C   UNL     1       6.655   4.027  12.592  0.00  0.00    +0.000 A 
ATOM      6  C   UNL     1       7.698   4.907  12.842  0.00  0.00    +0.000 A 
ATOM      7  N   UNL     1       7.908   5.494  14.038  0.00  0.00    +0.000 NA
ATOM      8  C   UNL     1       7.026   5.199  15.023  0.00  0.00    +0.000 A 
ATOM      9 CL   UNL     1       7.365   6.030  16.494  0.00  0.00    +0.000 Cl
ENDBRANCH   2   3
BRANCH   1  13
ATOM     10  C   UNL     1       1.088   4.469  20.523  0.00  0.00    +0.000 C 
ATOM     11  C   UNL     1       1.801   3.804  19.394  0.00  0.00    +0.000 A 
ATOM     12  N   UNL     1       2.727   4.366  18.640  0.00  0.00    +0.000 NA
ATOM     13  C   UNL     1       3.162   3.455  17.699  0.00  0.00    +0.000 A 
ATOM     14  C   UNL     1       2.570   2.212  17.741  0.00  0.00    +0.000 A 
ATOM     15  S   UNL     1       1.417   2.169  19.007  0.00  0.00    +0.000 S 
ENDBRANCH   1  13
TORSDOF 2
ENDMDL
MODEL 3
REMARK VINA RESULT:      -6.5      6.210      7.785
REMARK  Name = 
REMARK  3 active torsions:
REMARK  status: ('A' for Active; 'I' for Inactive)
REMARK    1  A    between atoms: C_1  and  C_2
REMARK    2  A    between atoms: C_4  and  C_5
REMARK    3  A    between atoms: C_6  and  C_7
REMARK                            x       y       z     vdW  Elec       q    Type
REMARK                         _______ _______ _______ _____ _____    ______ ____
ROOT
ATOM      1  C   UNL     1       3.976   4.537  17.656  0.00  0.00    +0.000 C 
ATOM      2  C   UNL     1       4.730   4.538  16.718  0.00  0.00    +0.000 C 
ENDROOT
BRANCH   2   3
ATOM      3  C   UNL     1       5.671   4.592  15.639  0.00  0.00    +0.000 A 
ATOM      4  C   UNL     1       5.413   3.891  14.460  0.00  0.00    +0.000 A 
ATOM      5  C   UNL     1       6.296   3.999  13.385  0.00  0.00    +0.000 A 
ATOM      6  C   UNL     1       7.424   4.791  13.532  0.00  0.00    +0.000 A 
ATOM      7  N   UNL     1       7.720   5.467  14.662  0.00  0.00    +0.000 NA
ATOM      8  C   UNL     1       6.837   5.356  15.684  0.00  0.00    +0.000 A 
ATOM      9 CL   UNL     1       7.290   6.287  17.061  0.00  0.00    +0.000 Cl
ENDBRANCH   2   3
BRANCH   1  13
ATOM     10  C   UNL     1       1.557   2.675  21.498  0.00  0.00    +0.000 C 
ATOM     11  C   UNL     1       2.090   3.676  20.530  0.00  0.00    +0.000 A 
ATOM     12  N   UNL     1       2.865   3.401  19.498  0.00  0.00    +0.000 NA
ATOM     13  C   UNL     1       3.161   4.571  18.828  0.00  0.00    +0.000 A 
ATOM     14  C   UNL     1       2.613   5.722  19.349  0.00  0.00    +0.000 A 
ATOM     15  S   UNL     1       1.687   5.339  20.737  0.00  0.00    +0.000 S 
ENDBRANCH   1  13
TORSDOF 2
ENDMDL
MODEL 4
REMARK VINA RESULT:      -6.4      1.493      1.635
REMARK  Name = 
REMARK  3 active torsions:
REMARK  status: ('A' for Active; 'I' for Inactive)
REMARK    1  A    between atoms: C_1  and  C_2
REMARK    2  A    between atoms: C_4  and  C_5
REMARK    3  A    between atoms: C_6  and  C_7
REMARK                            x       y       z     vdW  Elec       q    Type
REMARK                         _______ _______ _______ _____ _____    ______ ____
ROOT
ATOM      1  C   UNL     1       8.349   8.776  18.246  0.00  0.00    +0.000 C 
ATOM      2  C   UNL     1       8.943   9.799  18.465  0.00  0.00    +0.000 C 
ENDROOT
BRANCH   2   3
ATOM      3  C   UNL     1       9.717  10.978  18.715  0.00  0.00    +0.000 A 
ATOM      4  C   UNL     1      10.421  11.579  17.670  0.00  0.00    +0.000 A 
ATOM      5  C   UNL     1      11.119  12.765  17.899  0.00  0.00    +0.000 A 
ATOM      6  C   UNL     1      11.108  13.303  19.177  0.00  0.00    +0.000 A 
ATOM      7  N   UNL     1      10.459  12.742  20.218  0.00  0.00    +0.000 NA
ATOM      8  C   UNL     1       9.776  11.599  19.962  0.00  0.00    +0.000 A 
ATOM      9 CL   UNL     1       8.954  10.989  21.349  0.00  0.00    +0.000 Cl
ENDBRANCH   2   3
BRANCH   1  13
ATOM     10  C   UNL     1       5.530   5.691  15.672  0.00  0.00    +0.000 C 
ATOM     11  C   UNL     1       6.443   6.196  16.738  0.00  0.00    +0.000 A 
ATOM     12  N   UNL     1       6.917   7.425  16.816  0.00  0.00    +0.000 NA
ATOM     13  C   UNL     1       7.727   7.530  17.929  0.00  0.00    +0.000 A 
ATOM     14  C   UNL     1       7.864   6.389  18.687  0.00  0.00    +0.000 A 
ATOM     15  S   UNL     1       6.947   5.123  17.988  0.00  0.00    +0.000 S 
ENDBRANCH   1  13
TORSDOF 2
ENDMDL
MODEL 5
REMARK VINA RESULT:      -6.2      5.628      7.532
REMARK  Name = 
REMARK  3 active torsions:
REMARK  status: ('A' for Active; 'I' for Inactive)
REMARK    1  A    between atoms: C_1  and  C_2
REMARK    2  A    between atoms: C_4  and  C_5
REMARK    3  A    between atoms: C_6  and  C_7
REMARK                            x       y       z     vdW  Elec       q    Type
REMARK                         _______ _______ _______ _____ _____    ______ ____
ROOT
ATOM      1  C   UNL     1       3.355   7.354  17.953  0.00  0.00    +0.000 C 
ATOM      2  C   UNL     1       4.197   6.694  17.401  0.00  0.00    +0.000 C 
ENDROOT
BRANCH   2   3
ATOM      3  C   UNL     1       5.172   5.934  16.677  0.00  0.00    +0.000 A 
ATOM      4  C   UNL     1       4.777   4.806  15.957  0.00  0.00    +0.000 A 
ATOM      5  C   UNL     1       5.715   4.106  15.199  0.00  0.00    +0.000 A 
ATOM      6  C   UNL     1       7.030   4.547  15.201  0.00  0.00    +0.000 A 
ATOM      7  N   UNL     1       7.456   5.619  15.901  0.00  0.00    +0.000 NA
ATOM      8  C   UNL     1       6.520   6.288  16.616  0.00  0.00    +0.000 A 
ATOM      9 CL   UNL     1       7.163   7.659  17.439  0.00  0.00    +0.000 Cl
ENDBRANCH   2   3
BRANCH   1  13
ATOM     10  C   UNL     1       0.305   8.987  21.433  0.00  0.00    +0.000 C 
ATOM     11  C   UNL     1       1.005   8.883  20.120  0.00  0.00    +0.000 A 
ATOM     12  N   UNL     1       1.938   7.999  19.822  0.00  0.00    +0.000 NA
ATOM     13  C   UNL     1       2.357   8.201  18.522  0.00  0.00    +0.000 A 
ATOM     14  C   UNL     1       1.744   9.230  17.842  0.00  0.00    +0.000 A 
ATOM     15  S   UNL     1       0.595   9.986  18.861  0.00  0.00    +0.000 S 
ENDBRANCH   1  13
TORSDOF 2
ENDMDL
MODEL 6
REMARK VINA RESULT:      -6.2      6.418      7.889
REMARK  Name = 
REMARK  3 active torsions:
REMARK  status: ('A' for Active; 'I' for Inactive)
REMARK    1  A    between atoms: C_1  and  C_2
REMARK    2  A    between atoms: C_4  and  C_5
REMARK    3  A    between atoms: C_6  and  C_7
REMARK                            x       y       z     vdW  Elec       q    Type
REMARK                         _______ _______ _______ _____ _____    ______ ____
ROOT
ATOM      1  C   UNL     1       4.434   3.777  17.343  0.00  0.00    +0.000 C 
ATOM      2  C   UNL     1       5.086   4.017  16.359  0.00  0.00    +0.000 C 
ENDROOT
BRANCH   2   3
ATOM      3  C   UNL     1       5.922   4.270  15.224  0.00  0.00    +0.000 A 
ATOM      4  C   UNL     1       5.679   3.604  14.022  0.00  0.00    +0.000 A 
ATOM      5  C   UNL     1       6.450   3.901  12.899  0.00  0.00    +0.000 A 
ATOM      6  C   UNL     1       7.459   4.845  13.020  0.00  0.00    +0.000 A 
ATOM      7  N   UNL     1       7.739   5.495  14.168  0.00  0.00    +0.000 NA
ATOM      8  C   UNL     1       6.963   5.198  15.239  0.00  0.00    +0.000 A 
ATOM      9 CL   UNL     1       7.381   6.110  16.640  0.00  0.00    +0.000 Cl
ENDBRANCH   2   3
BRANCH   1  13
ATOM     10  C   UNL     1       0.585   3.503  20.374  0.00  0.00    +0.000 C 
ATOM     11  C   UNL     1       1.970   3.329  19.850  0.00  0.00    +0.000 A 
ATOM     12  N   UNL     1       2.399   3.748  18.675  0.00  0.00    +0.000 NA
ATOM     13  C   UNL     1       3.730   3.414  18.531  0.00  0.00    +0.000 A 
ATOM     14  C   UNL     1       4.305   2.748  19.590  0.00  0.00    +0.000 A 
ATOM     15  S   UNL     1       3.140   2.523  20.825  0.00  0.00    +0.000 S 
ENDBRANCH   1  13
TORSDOF 2
ENDMDL
MODEL 7
REMARK VINA RESULT:      -6.1      1.000      1.092
REMARK  Name = 
REMARK  3 active torsions:
REMARK  status: ('A' for Active; 'I' for Inactive)
REMARK    1  A    between atoms: C_1  and  C_2
REMARK    2  A    between atoms: C_4  and  C_5
REMARK    3  A    between atoms: C_6  and  C_7
REMARK                            x       y       z     vdW  Elec       q    Type
REMARK                         _______ _______ _______ _____ _____    ______ ____
ROOT
ATOM      1  C   UNL     1       7.869   8.588  17.728  0.00  0.00    +0.000 C 
ATOM      2  C   UNL     1       8.464   9.541  18.159  0.00  0.00    +0.000 C 
ENDROOT
BRANCH   2   3
ATOM      3  C   UNL     1       9.105  10.705  18.695  0.00  0.00    +0.000 A 
ATOM      4  C   UNL     1      10.067  10.567  19.697  0.00  0.00    +0.000 A 
ATOM      5  C   UNL     1      10.738  11.694  20.170  0.00  0.00    +0.000 A 
ATOM      6  C   UNL     1      10.409  12.932  19.639  0.00  0.00    +0.000 A 
ATOM      7  N   UNL     1       9.471  13.110  18.686  0.00  0.00    +0.000 NA
ATOM      8  C   UNL     1       8.847  11.995  18.234  0.00  0.00    +0.000 A 
ATOM      9 CL   UNL     1       7.697  12.331  16.994  0.00  0.00    +0.000 Cl
ENDBRANCH   2   3
BRANCH   1  13
ATOM     10  C   UNL     1       6.916   4.483  15.213  0.00  0.00    +0.000 C 
ATOM     11  C   UNL     1       6.716   5.643  16.128  0.00  0.00    +0.000 A 
ATOM     12  N   UNL     1       7.622   6.562  16.404  0.00  0.00    +0.000 NA
ATOM     13  C   UNL     1       7.087   7.478  17.286  0.00  0.00    +0.000 A 
ATOM     14  C   UNL     1       5.784   7.255  17.674  0.00  0.00    +0.000 A 
ATOM     15  S   UNL     1       5.193   5.841  16.910  0.00  0.00    +0.000 S 
ENDBRANCH   1  13
TORSDOF 2
ENDMDL
MODEL 8
REMARK VINA RESULT:      -6.1      3.137      6.954
REMARK  Name = 
REMARK  3 active torsions:
REMARK  status: ('A' for Active; 'I' for Inactive)
REMARK    1  A    between atoms: C_1  and  C_2
REMARK    2  A    between atoms: C_4  and  C_5
REMARK    3  A    between atoms: C_6  and  C_7
REMARK                            x       y       z     vdW  Elec       q    Type
REMARK                         _______ _______ _______ _____ _____    ______ ____
ROOT
ATOM      1  C   UNL     1       8.432   9.061  18.195  0.00  0.00    +0.000 C 
ATOM      2  C   UNL     1       7.822   8.061  17.915  0.00  0.00    +0.000 C 
ENDROOT
BRANCH   2   3
ATOM      3  C   UNL     1       7.112   6.844  17.653  0.00  0.00    +0.000 A 
ATOM      4  C   UNL     1       6.249   6.767  16.560  0.00  0.00    +0.000 A 
ATOM      5  C   UNL     1       5.611   5.563  16.266  0.00  0.00    +0.000 A 
ATOM      6  C   UNL     1       5.840   4.473  17.093  0.00  0.00    +0.000 A 
ATOM      7  N   UNL     1       6.650   4.513  18.172  0.00  0.00    +0.000 NA
ATOM      8  C   UNL     1       7.269   5.692  18.423  0.00  0.00    +0.000 A 
ATOM      9 CL   UNL     1       8.306   5.621  19.798  0.00  0.00    +0.000 Cl
ENDBRANCH   2   3
BRANCH   1  13
ATOM     10  C   UNL     1      10.977  13.223  17.670  0.00  0.00    +0.000 C 
ATOM     11  C   UNL     1      10.278  12.082  18.329  0.00  0.00    +0.000 A 
ATOM     12  N   UNL     1       9.665  11.098  17.699  0.00  0.00    +0.000 NA
ATOM     13  C   UNL     1       9.134  10.225  18.628  0.00  0.00    +0.000 A 
ATOM     14  C   UNL     1       9.345  10.547  19.950  0.00  0.00    +0.000 A 
ATOM     15  S   UNL     1      10.244  12.001  20.050  0.00  0.00    +0.000 S 
ENDBRANCH   1  13
TORSDOF 2
ENDMDL
MODEL 9
REMARK VINA RESULT:      -6.1      3.161      7.083
REMARK  Name = 
REMARK  3 active torsions:
REMARK  status: ('A' for Active; 'I' for Inactive)
REMARK    1  A    between atoms: C_1  and  C_2
REMARK    2  A    between atoms: C_4  and  C_5
REMARK    3  A    between atoms: C_6  and  C_7
REMARK                            x       y       z     vdW  Elec       q    Type
REMARK                         _______ _______ _______ _____ _____    ______ ____
ROOT
ATOM      1  C   UNL     1       8.310   9.033  18.069  0.00  0.00    +0.000 C 
ATOM      2  C   UNL     1       7.743   7.997  17.838  0.00  0.00    +0.000 C 
ENDROOT
BRANCH   2   3
ATOM      3  C   UNL     1       7.008   6.790  17.602  0.00  0.00    +0.000 A 
ATOM      4  C   UNL     1       6.105   6.724  16.540  0.00  0.00    +0.000 A 
ATOM      5  C   UNL     1       5.441   5.528  16.271  0.00  0.00    +0.000 A 
ATOM      6  C   UNL     1       5.686   4.436  17.090  0.00  0.00    +0.000 A 
ATOM      7  N   UNL     1       6.534   4.465  18.138  0.00  0.00    +0.000 NA
ATOM      8  C   UNL     1       7.177   5.635  18.366  0.00  0.00    +0.000 A 
ATOM      9 CL   UNL     1       8.262   5.551  19.703  0.00  0.00    +0.000 Cl
ENDBRANCH   2   3
BRANCH   1  13
ATOM     10  C   UNL     1      11.249  12.220  20.370  0.00  0.00    +0.000 C 
ATOM     11  C   UNL     1      10.223  11.690  19.426  0.00  0.00    +0.000 A 
ATOM     12  N   UNL     1       9.855  10.427  19.329  0.00  0.00    +0.000 NA
ATOM     13  C   UNL     1       8.887  10.308  18.353  0.00  0.00    +0.000 A 
ATOM     14  C   UNL     1       8.524  11.474  17.715  0.00  0.00    +0.000 A 
ATOM     15  S   UNL     1       9.427  12.781  18.355  0.00  0.00    +0.000 S 
ENDBRANCH   1  13
TORSDOF 2
ENDMDL
