MODEL 1
REMARK VINA RESULT:      -8.9      0.000      0.000
REMARK  Name = 
REMARK  8 active torsions:
REMARK  status: ('A' for Active; 'I' for Inactive)
REMARK    1  A    between atoms: C_2  and  O_3
REMARK    2  A    between atoms: C_2  and  C_24
REMARK    3  A    between atoms: O_3  and  C_4
REMARK    4  A    between atoms: C_4  and  C_5
REMARK    5  A    between atoms: C_6  and  C_7
REMARK    6  A    between atoms: C_7  and  S_8
REMARK    7  A    between atoms: S_8  and  C_9
REMARK    8  A    between atoms: C_12  and  C_13
REMARK                            x       y       z     vdW  Elec       q    Type
REMARK                         _______ _______ _______ _____ _____    ______ ____
ROOT
ATOM      1  C   UNL     1       2.016   4.345  21.352  0.00  0.00    +0.000 C 
ENDROOT
BRANCH   1   3
ATOM      2  C   UNL     1       2.272   6.512  19.801  0.00  0.00    +0.000 C 
ATOM      3  C   UNL     1       2.160   5.542  20.505  0.00  0.00    +0.000 C 
BRANCH   2   4
ATOM      4  C   UNL     1       2.347   7.715  18.953  0.00  0.00    +0.000 C 
BRANCH   4   5
ATOM      5  O   UNL     1       1.355   8.671  19.356  0.00  0.00    +0.000 OA
BRANCH   5   7
ATOM      6  O   UNL     1       1.974  10.020  17.616  0.00  0.00    +0.000 OA
ATOM      7  C   UNL     1       1.221   9.768  18.548  0.00  0.00    +0.000 C 
BRANCH   7   8
ATOM      8  C   UNL     1       0.071  10.610  18.895  0.00  0.00    +0.000 A 
ATOM      9  C   UNL     1       0.086  11.554  19.906  0.00  0.00    +0.000 A 
ATOM     10  S   UNL     1      -1.408  12.346  20.110  0.00  0.00    +0.000 S 
ATOM     11  C   UNL     1      -2.133  11.472  18.820  0.00  0.00    +0.000 A 
ATOM     12  C   UNL     1      -3.458  11.606  18.352  0.00  0.00    +0.000 A 
ATOM     13  C   UNL     1      -3.884  10.827  17.276  0.00  0.00    +0.000 A 
ATOM     14  C   UNL     1      -3.017   9.926  16.679  0.00  0.00    +0.000 A 
ATOM     15  C   UNL     1      -1.708   9.788  17.156  0.00  0.00    +0.000 A 
ATOM     16  C   UNL     1      -1.233  10.569  18.244  0.00  0.00    +0.000 A 
ENDBRANCH   7   8
ENDBRANCH   5   7
ENDBRANCH   4   5
ENDBRANCH   2   4
ENDBRANCH   1   3
BRANCH   1  17
ATOM     17  S   UNL     1       1.277   2.954  20.437  0.00  0.00    +0.000 S 
BRANCH  17  18
ATOM     18  C   UNL     1       2.484   2.707  19.208  0.00  0.00    +0.000 A 
ATOM     19  N   UNL     1       2.778   1.541  18.672  0.00  0.00    +0.000 NA
ATOM     20  N   UNL     1       3.751   1.773  17.726  0.00  0.00    +0.000 NA
ATOM     21  C   UNL     1       3.992   3.069  17.732  0.00  0.00    +0.000 A 
ATOM     22  O   UNL     1       3.232   3.729  18.672  0.00  0.00    +0.000 OA
BRANCH  21  23
ATOM     23  C   UNL     1       4.918   3.866  16.917  0.00  0.00    +0.000 A 
ATOM     24  C   UNL     1       4.818   3.793  15.513  0.00  0.00    +0.000 A 
ATOM     25  C   UNL     1       5.623   4.581  14.691  0.00  0.00    +0.000 A 
ATOM     26  C   UNL     1       6.545   5.456  15.256  0.00  0.00    +0.000 A 
ATOM     27  C   UNL     1       6.691   5.547  16.648  0.00  0.00    +0.000 A 
ATOM     28  C   UNL     1       7.639   6.437  17.181  0.00  0.00    +0.000 A 
ATOM     29  C   UNL     1       7.827   6.546  18.558  0.00  0.00    +0.000 A 
ATOM     30  C   UNL     1       7.074   5.760  19.414  0.00  0.00    +0.000 A 
ATOM     31  C   UNL     1       6.122   4.877  18.898  0.00  0.00    +0.000 A 
ATOM     32  C   UNL     1       5.887   4.747  17.504  0.00  0.00    +0.000 A 
ENDBRANCH  21  23
ENDBRANCH  17  18
ENDBRANCH   1  17
TORSDOF 8
ENDMDL
MODEL 2
REMARK VINA RESULT:      -8.8      3.162      4.559
REMARK  Name = 
REMARK  8 active torsions:
REMARK  status: ('A' for Active; 'I' for Inactive)
REMARK    1  A    between atoms: C_2  and  O_3
REMARK    2  A    between atoms: C_2  and  C_24
REMARK    3  A    between atoms: O_3  and  C_4
REMARK    4  A    between atoms: C_4  and  C_5
REMARK    5  A    between atoms: C_6  and  C_7
REMARK    6  A    between atoms: C_7  and  S_8
REMARK    7  A    between atoms: S_8  and  C_9
REMARK    8  A    between atoms: C_12  and  C_13
REMARK                            x       y       z     vdW  Elec       q    Type
REMARK                         _______ _______ _______ _____ _____    ______ ____
ROOT
ATOM      1  C   UNL     1      -0.372   9.103  21.734  0.00  0.00    +0.000 C 
ENDROOT
BRANCH   1   3
ATOM      2  C   UNL     1      -1.104  11.504  22.666  0.00  0.00    +0.000 C 
ATOM      3  C   UNL     1      -0.781  10.425  22.242  0.00  0.00    +0.000 C 
BRANCH   2   4
ATOM      4  C   UNL     1      -1.457  12.853  23.142  0.00  0.00    +0.000 C 
BRANCH   4   5
ATOM      5  O   UNL     1      -2.550  13.382  22.376  0.00  0.00    +0.000 OA
BRANCH   5   7
ATOM      6  O   UNL     1      -1.381  14.327  20.652  0.00  0.00    +0.000 OA
ATOM      7  C   UNL     1      -2.292  13.613  21.052  0.00  0.00    +0.000 C 
BRANCH   7   8
ATOM      8  C   UNL     1      -3.205  12.905  20.148  0.00  0.00    +0.000 A 
ATOM      9  C   UNL     1      -4.574  13.104  20.126  0.00  0.00    +0.000 A 
ATOM     10  S   UNL     1      -5.382  12.107  19.007  0.00  0.00    +0.000 S 
ATOM     11  C   UNL     1      -3.915  11.383  18.478  0.00  0.00    +0.000 A 
ATOM     12  C   UNL     1      -3.776  10.395  17.480  0.00  0.00    +0.000 A 
ATOM     13  C   UNL     1      -2.502   9.925  17.159  0.00  0.00    +0.000 A 
ATOM     14  C   UNL     1      -1.388  10.418  17.818  0.00  0.00    +0.000 A 
ATOM     15  C   UNL     1      -1.534  11.388  18.816  0.00  0.00    +0.000 A 
ATOM     16  C   UNL     1      -2.813  11.899  19.168  0.00  0.00    +0.000 A 
ENDBRANCH   7   8
ENDBRANCH   5   7
ENDBRANCH   4   5
ENDBRANCH   2   4
ENDBRANCH   1   3
BRANCH   1  17
ATOM     17  S   UNL     1       1.431   8.866  21.842  0.00  0.00    +0.000 S 
BRANCH  17  18
ATOM     18  C   UNL     1       1.763   8.232  20.256  0.00  0.00    +0.000 A 
ATOM     19  N   UNL     1       1.643   8.917  19.137  0.00  0.00    +0.000 NA
ATOM     20  N   UNL     1       2.027   8.079  18.116  0.00  0.00    +0.000 NA
ATOM     21  C   UNL     1       2.367   6.930  18.667  0.00  0.00    +0.000 A 
ATOM     22  O   UNL     1       2.203   6.949  20.034  0.00  0.00    +0.000 OA
BRANCH  21  23
ATOM     23  C   UNL     1       2.868   5.694  18.054  0.00  0.00    +0.000 A 
ATOM     24  C   UNL     1       2.020   4.568  18.011  0.00  0.00    +0.000 A 
ATOM     25  C   UNL     1       2.417   3.390  17.379  0.00  0.00    +0.000 A 
ATOM     26  C   UNL     1       3.669   3.313  16.779  0.00  0.00    +0.000 A 
ATOM     27  C   UNL     1       4.553   4.402  16.815  0.00  0.00    +0.000 A 
ATOM     28  C   UNL     1       5.813   4.283  16.206  0.00  0.00    +0.000 A 
ATOM     29  C   UNL     1       6.727   5.335  16.233  0.00  0.00    +0.000 A 
ATOM     30  C   UNL     1       6.391   6.514  16.877  0.00  0.00    +0.000 A 
ATOM     31  C   UNL     1       5.138   6.649  17.481  0.00  0.00    +0.000 A 
ATOM     32  C   UNL     1       4.172   5.609  17.462  0.00  0.00    +0.000 A 
ENDBRANCH  21  23
ENDBRANCH  17  18
ENDBRANCH   1  17
TORSDOF 8
ENDMDL
MODEL 3
REMARK VINA RESULT:      -8.8      2.019      3.234
REMARK  Name = 
REMARK  8 active torsions:
REMARK  status: ('A' for Active; 'I' for Inactive)
REMARK    1  A    between atoms: C_2  and  O_3
REMARK    2  A    between atoms: C_2  and  C_24
REMARK    3  A    between atoms: O_3  and  C_4
REMARK    4  A    between atoms: C_4  and  C_5
REMARK    5  A    between atoms: C_6  and  C_7
REMARK    6  A    between atoms: C_7  and  S_8
REMARK    7  A    between atoms: S_8  and  C_9
REMARK    8  A    between atoms: C_12  and  C_13
REMARK                            x       y       z     vdW  Elec       q    Type
REMARK                         _______ _______ _______ _____ _____    ______ ____
ROOT
ATOM      1  C   UNL     1       0.645   3.044  20.455  0.00  0.00    +0.000 C 
ENDROOT
BRANCH   1   3
ATOM      2  C   UNL     1       1.450   5.593  20.606  0.00  0.00    +0.000 C 
ATOM      3  C   UNL     1       1.094   4.445  20.543  0.00  0.00    +0.000 C 
BRANCH   2   4
ATOM      4  C   UNL     1       1.846   7.007  20.738  0.00  0.00    +0.000 C 
BRANCH   4   5
ATOM      5  O   UNL     1       0.794   7.763  21.357  0.00  0.00    +0.000 OA
BRANCH   5   7
ATOM      6  O   UNL     1       1.954   9.330  22.553  0.00  0.00    +0.000 OA
ATOM      7  C   UNL     1       1.112   9.047  21.710  0.00  0.00    +0.000 C 
BRANCH   7   8
ATOM      8  C   UNL     1       0.357  10.060  20.965  0.00  0.00    +0.000 A 
ATOM      9  C   UNL     1       0.534  10.313  19.616  0.00  0.00    +0.000 A 
ATOM     10  S   UNL     1      -0.448  11.577  19.034  0.00  0.00    +0.000 S 
ATOM     11  C   UNL     1      -1.180  11.818  20.570  0.00  0.00    +0.000 A 
ATOM     12  C   UNL     1      -2.181  12.762  20.887  0.00  0.00    +0.000 A 
ATOM     13  C   UNL     1      -2.681  12.813  22.189  0.00  0.00    +0.000 A 
ATOM     14  C   UNL     1      -2.195  11.953  23.159  0.00  0.00    +0.000 A 
ATOM     15  C   UNL     1      -1.193  11.028  22.843  0.00  0.00    +0.000 A 
ATOM     16  C   UNL     1      -0.662  10.937  21.527  0.00  0.00    +0.000 A 
ENDBRANCH   7   8
ENDBRANCH   5   7
ENDBRANCH   4   5
ENDBRANCH   2   4
ENDBRANCH   1   3
BRANCH   1  17
ATOM     17  S   UNL     1       1.364   2.193  19.014  0.00  0.00    +0.000 S 
BRANCH  17  18
ATOM     18  C   UNL     1       3.023   2.701  19.142  0.00  0.00    +0.000 A 
ATOM     19  N   UNL     1       3.910   2.163  19.954  0.00  0.00    +0.000 NA
ATOM     20  N   UNL     1       5.100   2.818  19.732  0.00  0.00    +0.000 NA
ATOM     21  C   UNL     1       4.877   3.716  18.792  0.00  0.00    +0.000 A 
ATOM     22  O   UNL     1       3.562   3.712  18.381  0.00  0.00    +0.000 OA
BRANCH  21  23
ATOM     23  C   UNL     1       5.790   4.674  18.157  0.00  0.00    +0.000 A 
ATOM     24  C   UNL     1       6.431   5.635  18.965  0.00  0.00    +0.000 A 
ATOM     25  C   UNL     1       7.361   6.524  18.428  0.00  0.00    +0.000 A 
ATOM     26  C   UNL     1       7.669   6.470  17.073  0.00  0.00    +0.000 A 
ATOM     27  C   UNL     1       7.041   5.543  16.229  0.00  0.00    +0.000 A 
ATOM     28  C   UNL     1       7.372   5.525  14.863  0.00  0.00    +0.000 A 
ATOM     29  C   UNL     1       6.760   4.631  13.987  0.00  0.00    +0.000 A 
ATOM     30  C   UNL     1       5.805   3.750  14.467  0.00  0.00    +0.000 A 
ATOM     31  C   UNL     1       5.472   3.752  15.824  0.00  0.00    +0.000 A 
ATOM     32  C   UNL     1       6.083   4.634  16.754  0.00  0.00    +0.000 A 
ENDBRANCH  21  23
ENDBRANCH  17  18
ENDBRANCH   1  17
TORSDOF 8
ENDMDL
MODEL 4
REMARK VINA RESULT:      -8.7      3.413      5.391
REMARK  Name = 
REMARK  8 active torsions:
REMARK  status: ('A' for Active; 'I' for Inactive)
REMARK    1  A    between atoms: C_2  and  O_3
REMARK    2  A    between atoms: C_2  and  C_24
REMARK    3  A    between atoms: O_3  and  C_4
REMARK    4  A    between atoms: C_4  and  C_5
REMARK    5  A    between atoms: C_6  and  C_7
REMARK    6  A    between atoms: C_7  and  S_8
REMARK    7  A    between atoms: S_8  and  C_9
REMARK    8  A    between atoms: C_12  and  C_13
REMARK                            x       y       z     vdW  Elec       q    Type
REMARK                         _______ _______ _______ _____ _____    ______ ____
ROOT
ATOM      1  C   UNL     1       0.871  10.869  21.223  0.00  0.00    +0.000 C 
ENDROOT
BRANCH   1   3
ATOM      2  C   UNL     1      -1.457  11.895  22.055  0.00  0.00    +0.000 C 
ATOM      3  C   UNL     1      -0.408  11.435  21.688  0.00  0.00    +0.000 C 
BRANCH   2   4
ATOM      4  C   UNL     1      -2.764  12.398  22.517  0.00  0.00    +0.000 C 
BRANCH   4   5
ATOM      5  O   UNL     1      -3.473  13.013  21.431  0.00  0.00    +0.000 OA
BRANCH   5   7
ATOM      6  O   UNL     1      -5.573  12.522  22.191  0.00  0.00    +0.000 OA
ATOM      7  C   UNL     1      -4.773  12.618  21.269  0.00  0.00    +0.000 C 
BRANCH   7   8
ATOM      8  C   UNL     1      -5.127  12.338  19.873  0.00  0.00    +0.000 A 
ATOM      9  C   UNL     1      -6.416  12.409  19.377  0.00  0.00    +0.000 A 
ATOM     10  S   UNL     1      -6.529  11.984  17.732  0.00  0.00    +0.000 S 
ATOM     11  C   UNL     1      -4.836  11.716  17.607  0.00  0.00    +0.000 A 
ATOM     12  C   UNL     1      -4.130  11.323  16.449  0.00  0.00    +0.000 A 
ATOM     13  C   UNL     1      -2.745  11.166  16.517  0.00  0.00    +0.000 A 
ATOM     14  C   UNL     1      -2.074  11.386  17.709  0.00  0.00    +0.000 A 
ATOM     15  C   UNL     1      -2.781  11.763  18.856  0.00  0.00    +0.000 A 
ATOM     16  C   UNL     1      -4.191  11.942  18.828  0.00  0.00    +0.000 A 
ENDBRANCH   7   8
ENDBRANCH   5   7
ENDBRANCH   4   5
ENDBRANCH   2   4
ENDBRANCH   1   3
BRANCH   1  17
ATOM     17  S   UNL     1       0.932   9.062  21.446  0.00  0.00    +0.000 S 
BRANCH  17  18
ATOM     18  C   UNL     1       1.513   8.569  19.882  0.00  0.00    +0.000 A 
ATOM     19  N   UNL     1       1.290   9.223  18.761  0.00  0.00    +0.000 NA
ATOM     20  N   UNL     1       1.940   8.534  17.763  0.00  0.00    +0.000 NA
ATOM     21  C   UNL     1       2.531   7.500  18.330  0.00  0.00    +0.000 A 
ATOM     22  O   UNL     1       2.283   7.447  19.684  0.00  0.00    +0.000 OA
BRANCH  21  23
ATOM     23  C   UNL     1       3.371   6.447  17.745  0.00  0.00    +0.000 A 
ATOM     24  C   UNL     1       4.587   6.813  17.134  0.00  0.00    +0.000 A 
ATOM     25  C   UNL     1       5.457   5.851  16.626  0.00  0.00    +0.000 A 
ATOM     26  C   UNL     1       5.128   4.502  16.716  0.00  0.00    +0.000 A 
ATOM     27  C   UNL     1       3.920   4.094  17.298  0.00  0.00    +0.000 A 
ATOM     28  C   UNL     1       3.619   2.722  17.364  0.00  0.00    +0.000 A 
ATOM     29  C   UNL     1       2.422   2.275  17.919  0.00  0.00    +0.000 A 
ATOM     30  C   UNL     1       1.510   3.196  18.409  0.00  0.00    +0.000 A 
ATOM     31  C   UNL     1       1.800   4.563  18.357  0.00  0.00    +0.000 A 
ATOM     32  C   UNL     1       3.015   5.059  17.815  0.00  0.00    +0.000 A 
ENDBRANCH  21  23
ENDBRANCH  17  18
ENDBRANCH   1  17
TORSDOF 8
ENDMDL
MODEL 5
REMARK VINA RESULT:      -8.6      6.120      8.546
REMARK  Name = 
REMARK  8 active torsions:
REMARK  status: ('A' for Active; 'I' for Inactive)
REMARK    1  A    between atoms: C_2  and  O_3
REMARK    2  A    between atoms: C_2  and  C_24
REMARK    3  A    between atoms: O_3  and  C_4
REMARK    4  A    between atoms: C_4  and  C_5
REMARK    5  A    between atoms: C_6  and  C_7
REMARK    6  A    between atoms: C_7  and  S_8
REMARK    7  A    between atoms: S_8  and  C_9
REMARK    8  A    between atoms: C_12  and  C_13
REMARK                            x       y       z     vdW  Elec       q    Type
REMARK                         _______ _______ _______ _____ _____    ______ ____
ROOT
ATOM      1  C   UNL     1       7.836   9.050  17.893  0.00  0.00    +0.000 C 
ENDROOT
BRANCH   1   3
ATOM      2  C   UNL     1       9.707  10.549  19.084  0.00  0.00    +0.000 C 
ATOM      3  C   UNL     1       8.860   9.881  18.551  0.00  0.00    +0.000 C 
BRANCH   2   4
ATOM      4  C   UNL     1      10.752  11.402  19.679  0.00  0.00    +0.000 C 
BRANCH   4   5
ATOM      5  O   UNL     1      11.786  11.666  18.718  0.00  0.00    +0.000 OA
BRANCH   5   7
ATOM      6  O   UNL     1      12.114  13.043  16.921  0.00  0.00    +0.000 OA
ATOM      7  C   UNL     1      11.692  12.861  18.057  0.00  0.00    +0.000 C 
BRANCH   7   8
ATOM      8  C   UNL     1      11.016  13.905  18.833  0.00  0.00    +0.000 A 
ATOM      9  C   UNL     1      11.642  14.670  19.802  0.00  0.00    +0.000 A 
ATOM     10  S   UNL     1      10.595  15.771  20.571  0.00  0.00    +0.000 S 
ATOM     11  C   UNL     1       9.256  15.287  19.608  0.00  0.00    +0.000 A 
ATOM     12  C   UNL     1       7.945  15.808  19.668  0.00  0.00    +0.000 A 
ATOM     13  C   UNL     1       6.975  15.311  18.796  0.00  0.00    +0.000 A 
ATOM     14  C   UNL     1       7.294  14.314  17.889  0.00  0.00    +0.000 A 
ATOM     15  C   UNL     1       8.592  13.793  17.844  0.00  0.00    +0.000 A 
ATOM     16  C   UNL     1       9.612  14.277  18.708  0.00  0.00    +0.000 A 
ENDBRANCH   7   8
ENDBRANCH   5   7
ENDBRANCH   4   5
ENDBRANCH   2   4
ENDBRANCH   1   3
BRANCH   1  17
ATOM     17  S   UNL     1       8.096   7.276  18.214  0.00  0.00    +0.000 S 
BRANCH  17  18
ATOM     18  C   UNL     1       6.650   6.612  17.510  0.00  0.00    +0.000 A 
ATOM     19  N   UNL     1       6.231   6.861  16.286  0.00  0.00    +0.000 NA
ATOM     20  N   UNL     1       5.081   6.127  16.103  0.00  0.00    +0.000 NA
ATOM     21  C   UNL     1       4.865   5.464  17.223  0.00  0.00    +0.000 A 
ATOM     22  O   UNL     1       5.818   5.743  18.176  0.00  0.00    +0.000 OA
BRANCH  21  23
ATOM     23  C   UNL     1       3.797   4.521  17.576  0.00  0.00    +0.000 A 
ATOM     24  C   UNL     1       3.692   3.316  16.853  0.00  0.00    +0.000 A 
ATOM     25  C   UNL     1       2.743   2.352  17.190  0.00  0.00    +0.000 A 
ATOM     26  C   UNL     1       1.878   2.574  18.257  0.00  0.00    +0.000 A 
ATOM     27  C   UNL     1       1.935   3.767  18.992  0.00  0.00    +0.000 A 
ATOM     28  C   UNL     1       1.039   3.959  20.058  0.00  0.00    +0.000 A 
ATOM     29  C   UNL     1       1.050   5.136  20.803  0.00  0.00    +0.000 A 
ATOM     30  C   UNL     1       1.954   6.137  20.485  0.00  0.00    +0.000 A 
ATOM     31  C   UNL     1       2.855   5.956  19.433  0.00  0.00    +0.000 A 
ATOM     32  C   UNL     1       2.888   4.766  18.659  0.00  0.00    +0.000 A 
ENDBRANCH  21  23
ENDBRANCH  17  18
ENDBRANCH   1  17
TORSDOF 8
ENDMDL
MODEL 6
REMARK VINA RESULT:      -8.5      1.110      2.215
REMARK  Name = 
REMARK  8 active torsions:
REMARK  status: ('A' for Active; 'I' for Inactive)
REMARK    1  A    between atoms: C_2  and  O_3
REMARK    2  A    between atoms: C_2  and  C_24
REMARK    3  A    between atoms: O_3  and  C_4
REMARK    4  A    between atoms: C_4  and  C_5
REMARK    5  A    between atoms: C_6  and  C_7
REMARK    6  A    between atoms: C_7  and  S_8
REMARK    7  A    between atoms: S_8  and  C_9
REMARK    8  A    between atoms: C_12  and  C_13
REMARK                            x       y       z     vdW  Elec       q    Type
REMARK                         _______ _______ _______ _____ _____    ______ ____
ROOT
ATOM      1  C   UNL     1       0.559   3.397  20.027  0.00  0.00    +0.000 C 
ENDROOT
BRANCH   1   3
ATOM      2  C   UNL     1       1.897   5.713  19.928  0.00  0.00    +0.000 C 
ATOM      3  C   UNL     1       1.293   4.674  19.979  0.00  0.00    +0.000 C 
BRANCH   2   4
ATOM      4  C   UNL     1       2.586   7.013  19.831  0.00  0.00    +0.000 C 
BRANCH   4   5
ATOM      5  O   UNL     1       1.679   8.082  20.146  0.00  0.00    +0.000 OA
BRANCH   5   7
ATOM      6  O   UNL     1       1.888   8.855  18.004  0.00  0.00    +0.000 OA
ATOM      7  C   UNL     1       1.391   8.940  19.120  0.00  0.00    +0.000 C 
BRANCH   7   8
ATOM      8  C   UNL     1       0.409   9.969  19.480  0.00  0.00    +0.000 A 
ATOM      9  C   UNL     1       0.498  10.752  20.617  0.00  0.00    +0.000 A 
ATOM     10  S   UNL     1      -0.810  11.827  20.797  0.00  0.00    +0.000 S 
ATOM     11  C   UNL     1      -1.540  11.306  19.331  0.00  0.00    +0.000 A 
ATOM     12  C   UNL     1      -2.740  11.791  18.769  0.00  0.00    +0.000 A 
ATOM     13  C   UNL     1      -3.185  11.266  17.555  0.00  0.00    +0.000 A 
ATOM     14  C   UNL     1      -2.460  10.275  16.914  0.00  0.00    +0.000 A 
ATOM     15  C   UNL     1      -1.277   9.789  17.482  0.00  0.00    +0.000 A 
ATOM     16  C   UNL     1      -0.785  10.302  18.714  0.00  0.00    +0.000 A 
ENDBRANCH   7   8
ENDBRANCH   5   7
ENDBRANCH   4   5
ENDBRANCH   2   4
ENDBRANCH   1   3
BRANCH   1  17
ATOM     17  S   UNL     1       1.416   2.090  19.092  0.00  0.00    +0.000 S 
BRANCH  17  18
ATOM     18  C   UNL     1       3.066   2.624  19.241  0.00  0.00    +0.000 A 
ATOM     19  N   UNL     1       3.941   2.121  20.087  0.00  0.00    +0.000 NA
ATOM     20  N   UNL     1       5.127   2.785  19.873  0.00  0.00    +0.000 NA
ATOM     21  C   UNL     1       4.913   3.652  18.902  0.00  0.00    +0.000 A 
ATOM     22  O   UNL     1       3.609   3.619  18.463  0.00  0.00    +0.000 OA
BRANCH  21  23
ATOM     23  C   UNL     1       5.829   4.603  18.259  0.00  0.00    +0.000 A 
ATOM     24  C   UNL     1       6.533   5.517  19.069  0.00  0.00    +0.000 A 
ATOM     25  C   UNL     1       7.467   6.395  18.521  0.00  0.00    +0.000 A 
ATOM     26  C   UNL     1       7.715   6.378  17.153  0.00  0.00    +0.000 A 
ATOM     27  C   UNL     1       7.023   5.499  16.307  0.00  0.00    +0.000 A 
ATOM     28  C   UNL     1       7.295   5.517  14.928  0.00  0.00    +0.000 A 
ATOM     29  C   UNL     1       6.618   4.672  14.051  0.00  0.00    +0.000 A 
ATOM     30  C   UNL     1       5.657   3.804  14.544  0.00  0.00    +0.000 A 
ATOM     31  C   UNL     1       5.383   3.770  15.914  0.00  0.00    +0.000 A 
ATOM     32  C   UNL     1       6.061   4.602  16.844  0.00  0.00    +0.000 A 
ENDBRANCH  21  23
ENDBRANCH  17  18
ENDBRANCH   1  17
TORSDOF 8
ENDMDL
MODEL 7
REMARK VINA RESULT:      -8.5      3.228      4.913
REMARK  Name = 
REMARK  8 active torsions:
REMARK  status: ('A' for Active; 'I' for Inactive)
REMARK    1  A    between atoms: C_2  and  O_3
REMARK    2  A    between atoms: C_2  and  C_24
REMARK    3  A    between atoms: O_3  and  C_4
REMARK    4  A    between atoms: C_4  and  C_5
REMARK    5  A    between atoms: C_6  and  C_7
REMARK    6  A    between atoms: C_7  and  S_8
REMARK    7  A    between atoms: S_8  and  C_9
REMARK    8  A    between atoms: C_12  and  C_13
REMARK                            x       y       z     vdW  Elec       q    Type
REMARK                         _______ _______ _______ _____ _____    ______ ____
ROOT
ATOM      1  C   UNL     1       0.307  10.614  20.568  0.00  0.00    +0.000 C 
ENDROOT
BRANCH   1   3
ATOM      2  C   UNL     1      -1.243  10.318  18.406  0.00  0.00    +0.000 C 
ATOM      3  C   UNL     1      -0.553  10.452  19.382  0.00  0.00    +0.000 C 
BRANCH   2   4
ATOM      4  C   UNL     1      -2.089  10.087  17.220  0.00  0.00    +0.000 C 
BRANCH   4   5
ATOM      5  O   UNL     1      -3.452   9.867  17.615  0.00  0.00    +0.000 OA
BRANCH   5   7
ATOM      6  O   UNL     1      -4.383  11.442  16.243  0.00  0.00    +0.000 OA
ATOM      7  C   UNL     1      -4.326  10.881  17.330  0.00  0.00    +0.000 C 
BRANCH   7   8
ATOM      8  C   UNL     1      -5.207  11.222  18.451  0.00  0.00    +0.000 A 
ATOM      9  C   UNL     1      -6.529  10.825  18.539  0.00  0.00    +0.000 A 
ATOM     10  S   UNL     1      -7.317  11.409  19.931  0.00  0.00    +0.000 S 
ATOM     11  C   UNL     1      -5.899  12.200  20.495  0.00  0.00    +0.000 A 
ATOM     12  C   UNL     1      -5.767  12.942  21.688  0.00  0.00    +0.000 A 
ATOM     13  C   UNL     1      -4.531  13.507  22.005  0.00  0.00    +0.000 A 
ATOM     14  C   UNL     1      -3.450  13.347  21.155  0.00  0.00    +0.000 A 
ATOM     15  C   UNL     1      -3.590  12.621  19.967  0.00  0.00    +0.000 A 
ATOM     16  C   UNL     1      -4.829  12.022  19.610  0.00  0.00    +0.000 A 
ENDBRANCH   7   8
ENDBRANCH   5   7
ENDBRANCH   4   5
ENDBRANCH   2   4
ENDBRANCH   1   3
BRANCH   1  17
ATOM     17  S   UNL     1       0.897   9.010  21.199  0.00  0.00    +0.000 S 
BRANCH  17  18
ATOM     18  C   UNL     1       1.647   8.363  19.769  0.00  0.00    +0.000 A 
ATOM     19  N   UNL     1       1.980   9.075  18.712  0.00  0.00    +0.000 NA
ATOM     20  N   UNL     1       2.571   8.209  17.820  0.00  0.00    +0.000 NA
ATOM     21  C   UNL     1       2.573   7.017  18.384  0.00  0.00    +0.000 A 
ATOM     22  O   UNL     1       1.978   7.036  19.626  0.00  0.00    +0.000 OA
BRANCH  21  23
ATOM     23  C   UNL     1       3.093   5.735  17.894  0.00  0.00    +0.000 A 
ATOM     24  C   UNL     1       2.231   4.620  17.867  0.00  0.00    +0.000 A 
ATOM     25  C   UNL     1       2.649   3.397  17.347  0.00  0.00    +0.000 A 
ATOM     26  C   UNL     1       3.938   3.262  16.843  0.00  0.00    +0.000 A 
ATOM     27  C   UNL     1       4.836   4.339  16.867  0.00  0.00    +0.000 A 
ATOM     28  C   UNL     1       6.134   4.162  16.357  0.00  0.00    +0.000 A 
ATOM     29  C   UNL     1       7.062   5.201  16.377  0.00  0.00    +0.000 A 
ATOM     30  C   UNL     1       6.703   6.427  16.914  0.00  0.00    +0.000 A 
ATOM     31  C   UNL     1       5.414   6.619  17.418  0.00  0.00    +0.000 A 
ATOM     32  C   UNL     1       4.433   5.592  17.402  0.00  0.00    +0.000 A 
ENDBRANCH  21  23
ENDBRANCH  17  18
ENDBRANCH   1  17
TORSDOF 8
ENDMDL
MODEL 8
REMARK VINA RESULT:      -8.4      3.257      9.830
REMARK  Name = 
REMARK  8 active torsions:
REMARK  status: ('A' for Active; 'I' for Inactive)
REMARK    1  A    between atoms: C_2  and  O_3
REMARK    2  A    between atoms: C_2  and  C_24
REMARK    3  A    between atoms: O_3  and  C_4
REMARK    4  A    between atoms: C_4  and  C_5
REMARK    5  A    between atoms: C_6  and  C_7
REMARK    6  A    between atoms: C_7  and  S_8
REMARK    7  A    between atoms: S_8  and  C_9
REMARK    8  A    between atoms: C_12  and  C_13
REMARK                            x       y       z     vdW  Elec       q    Type
REMARK                         _______ _______ _______ _____ _____    ______ ____
ROOT
ATOM      1  C   UNL     1       2.221   8.279  17.644  0.00  0.00    +0.000 C 
ENDROOT
BRANCH   1   3
ATOM      2  C   UNL     1       4.650   7.206  17.305  0.00  0.00    +0.000 C 
ATOM      3  C   UNL     1       3.555   7.681  17.456  0.00  0.00    +0.000 C 
BRANCH   2   4
ATOM      4  C   UNL     1       5.996   6.614  17.186  0.00  0.00    +0.000 C 
BRANCH   4   5
ATOM      5  O   UNL     1       5.905   5.184  17.103  0.00  0.00    +0.000 OA
BRANCH   5   7
ATOM      6  O   UNL     1       6.424   4.585  19.248  0.00  0.00    +0.000 OA
ATOM      7  C   UNL     1       5.672   4.532  18.283  0.00  0.00    +0.000 C 
BRANCH   7   8
ATOM      8  C   UNL     1       4.417   3.773  18.291  0.00  0.00    +0.000 A 
ATOM      9  C   UNL     1       4.160   2.702  17.453  0.00  0.00    +0.000 A 
ATOM     10  S   UNL     1       2.601   2.047  17.656  0.00  0.00    +0.000 S 
ATOM     11  C   UNL     1       2.214   3.160  18.907  0.00  0.00    +0.000 A 
ATOM     12  C   UNL     1       1.002   3.228  19.628  0.00  0.00    +0.000 A 
ATOM     13  C   UNL     1       0.858   4.188  20.630  0.00  0.00    +0.000 A 
ATOM     14  C   UNL     1       1.890   5.069  20.909  0.00  0.00    +0.000 A 
ATOM     15  C   UNL     1       3.085   5.005  20.182  0.00  0.00    +0.000 A 
ATOM     16  C   UNL     1       3.275   4.037  19.158  0.00  0.00    +0.000 A 
ENDBRANCH   7   8
ENDBRANCH   5   7
ENDBRANCH   4   5
ENDBRANCH   2   4
ENDBRANCH   1   3
BRANCH   1  17
ATOM     17  S   UNL     1       1.821   8.497  19.408  0.00  0.00    +0.000 S 
BRANCH  17  18
ATOM     18  C   UNL     1       0.903   9.974  19.343  0.00  0.00    +0.000 A 
ATOM     19  N   UNL     1       1.337  11.103  18.821  0.00  0.00    +0.000 NA
ATOM     20  N   UNL     1       0.311  12.013  18.934  0.00  0.00    +0.000 NA
ATOM     21  C   UNL     1      -0.696  11.388  19.512  0.00  0.00    +0.000 A 
ATOM     22  O   UNL     1      -0.382  10.084  19.822  0.00  0.00    +0.000 OA
BRANCH  21  23
ATOM     23  C   UNL     1      -2.040  11.870  19.858  0.00  0.00    +0.000 A 
ATOM     24  C   UNL     1      -2.243  12.459  21.122  0.00  0.00    +0.000 A 
ATOM     25  C   UNL     1      -3.479  12.997  21.477  0.00  0.00    +0.000 A 
ATOM     26  C   UNL     1      -4.538  12.954  20.577  0.00  0.00    +0.000 A 
ATOM     27  C   UNL     1      -4.386  12.360  19.316  0.00  0.00    +0.000 A 
ATOM     28  C   UNL     1      -5.482  12.328  18.436  0.00  0.00    +0.000 A 
ATOM     29  C   UNL     1      -5.378  11.733  17.181  0.00  0.00    +0.000 A 
ATOM     30  C   UNL     1      -4.180  11.156  16.795  0.00  0.00    +0.000 A 
ATOM     31  C   UNL     1      -3.080  11.187  17.657  0.00  0.00    +0.000 A 
ATOM     32  C   UNL     1      -3.137  11.798  18.937  0.00  0.00    +0.000 A 
ENDBRANCH  21  23
ENDBRANCH  17  18
ENDBRANCH   1  17
TORSDOF 8
ENDMDL
MODEL 9
REMARK VINA RESULT:      -8.3      7.188     10.928
REMARK  Name = 
REMARK  8 active torsions:
REMARK  status: ('A' for Active; 'I' for Inactive)
REMARK    1  A    between atoms: C_2  and  O_3
REMARK    2  A    between atoms: C_2  and  C_24
REMARK    3  A    between atoms: O_3  and  C_4
REMARK    4  A    between atoms: C_4  and  C_5
REMARK    5  A    between atoms: C_6  and  C_7
REMARK    6  A    between atoms: C_7  and  S_8
REMARK    7  A    between atoms: S_8  and  C_9
REMARK    8  A    between atoms: C_12  and  C_13
REMARK                            x       y       z     vdW  Elec       q    Type
REMARK                         _______ _______ _______ _____ _____    ______ ____
ROOT
ATOM      1  C   UNL     1       9.844  11.214  19.159  0.00  0.00    +0.000 C 
ENDROOT
BRANCH   1   3
ATOM      2  C   UNL     1       8.409   9.099  18.365  0.00  0.00    +0.000 C 
ATOM      3  C   UNL     1       9.057  10.045  18.728  0.00  0.00    +0.000 C 
BRANCH   2   4
ATOM      4  C   UNL     1       7.664   7.924  17.878  0.00  0.00    +0.000 C 
BRANCH   4   5
ATOM      5  O   UNL     1       8.302   6.713  18.313  0.00  0.00    +0.000 OA
BRANCH   5   7
ATOM      6  O   UNL     1       7.515   5.545  20.115  0.00  0.00    +0.000 OA
ATOM      7  C   UNL     1       7.486   5.794  18.916  0.00  0.00    +0.000 C 
BRANCH   7   8
ATOM      8  C   UNL     1       6.554   5.145  17.989  0.00  0.00    +0.000 A 
ATOM      9  C   UNL     1       6.939   4.558  16.797  0.00  0.00    +0.000 A 
ATOM     10  S   UNL     1       5.633   3.926  15.905  0.00  0.00    +0.000 S 
ATOM     11  C   UNL     1       4.492   4.388  17.104  0.00  0.00    +0.000 A 
ATOM     12  C   UNL     1       3.098   4.168  17.069  0.00  0.00    +0.000 A 
ATOM     13  C   UNL     1       2.314   4.594  18.141  0.00  0.00    +0.000 A 
ATOM     14  C   UNL     1       2.896   5.234  19.223  0.00  0.00    +0.000 A 
ATOM     15  C   UNL     1       4.277   5.461  19.246  0.00  0.00    +0.000 A 
ATOM     16  C   UNL     1       5.113   5.035  18.178  0.00  0.00    +0.000 A 
ENDBRANCH   7   8
ENDBRANCH   5   7
ENDBRANCH   4   5
ENDBRANCH   2   4
ENDBRANCH   1   3
BRANCH   1  17
ATOM     17  S   UNL     1      10.823  11.913  17.791  0.00  0.00    +0.000 S 
BRANCH  17  18
ATOM     18  C   UNL     1      10.321  13.578  17.861  0.00  0.00    +0.000 A 
ATOM     19  N   UNL     1      10.852  14.550  17.149  0.00  0.00    +0.000 NA
ATOM     20  N   UNL     1      10.162  15.697  17.466  0.00  0.00    +0.000 NA
ATOM     21  C   UNL     1       9.243  15.362  18.350  0.00  0.00    +0.000 A 
ATOM     22  O   UNL     1       9.299  14.023  18.667  0.00  0.00    +0.000 OA
BRANCH  21  23
ATOM     23  C   UNL     1       8.220  16.180  19.014  0.00  0.00    +0.000 A 
ATOM     24  C   UNL     1       8.636  17.205  19.888  0.00  0.00    +0.000 A 
ATOM     25  C   UNL     1       7.712  18.057  20.491  0.00  0.00    +0.000 A 
ATOM     26  C   UNL     1       6.354  17.902  20.234  0.00  0.00    +0.000 A 
ATOM     27  C   UNL     1       5.895  16.883  19.386  0.00  0.00    +0.000 A 
ATOM     28  C   UNL     1       4.514  16.752  19.157  0.00  0.00    +0.000 A 
ATOM     29  C   UNL     1       4.015  15.744  18.335  0.00  0.00    +0.000 A 
ATOM     30  C   UNL     1       4.891  14.851  17.740  0.00  0.00    +0.000 A 
ATOM     31  C   UNL     1       6.267  14.975  17.953  0.00  0.00    +0.000 A 
ATOM     32  C   UNL     1       6.819  15.998  18.769  0.00  0.00    +0.000 A 
ENDBRANCH  21  23
ENDBRANCH  17  18
ENDBRANCH   1  17
TORSDOF 8
ENDMDL
