MODEL 1
REMARK VINA RESULT:      -7.0      0.000      0.000
REMARK  Name = 
REMARK  6 active torsions:
REMARK  status: ('A' for Active; 'I' for Inactive)
REMARK    1  A    between atoms: S_2  and  N_4
REMARK    2  A    between atoms: S_2  and  C_18
REMARK    3  A    between atoms: N_4  and  C_5
REMARK    4  A    between atoms: C_5  and  C_6
REMARK    5  A    between atoms: C_6  and  C_7
REMARK    6  A    between atoms: C_9  and  C_10
REMARK                            x       y       z     vdW  Elec       q    Type
REMARK                         _______ _______ _______ _____ _____    ______ ____
ROOT
ATOM      1  C   UNL     1       5.849   5.687  18.282  0.00  0.00    +0.000 A 
ATOM      2  N   UNL     1       5.335   4.846  19.151  0.00  0.00    +0.000 NA
ATOM      3  C   UNL     1       3.972   5.050  19.046  0.00  0.00    +0.000 A 
ATOM      4  N   UNL     1       3.642   5.993  18.148  0.00  0.00    +0.000 NA
ATOM      5  N   UNL     1       4.837   6.394  17.703  0.00  0.00    +0.000 N 
ATOM      6  H   UNL     1       4.886   7.106  16.981  0.00  0.00    +0.000 HD
ENDROOT
BRANCH   3   7
ATOM      7  C   UNL     1       2.999   4.281  19.817  0.00  0.00    +0.000 A 
ATOM      8  C   UNL     1       1.623   4.496  19.644  0.00  0.00    +0.000 A 
ATOM      9  C   UNL     1       0.689   3.774  20.393  0.00  0.00    +0.000 A 
ATOM     10  C   UNL     1       1.120   2.830  21.324  0.00  0.00    +0.000 A 
ATOM     11  C   UNL     1       2.484   2.603  21.503  0.00  0.00    +0.000 A 
ATOM     12  C   UNL     1       3.416   3.324  20.753  0.00  0.00    +0.000 A 
ENDBRANCH   3   7
BRANCH   1  13
ATOM     13  C   UNL     1       7.273   5.843  17.883  0.00  0.00    +0.000 C 
BRANCH  13  14
ATOM     14  C   UNL     1       7.791   4.612  17.131  0.00  0.00    +0.000 C 
BRANCH  14  15
ATOM     15  N   UNL     1       6.716   4.020  16.287  0.00  0.00    +0.000 NA
ATOM     16  H   UNL     1       6.897   3.034  16.070  0.00  0.00    +0.000 HD
BRANCH  15  18
ATOM     17  O   UNL     1       5.260   5.532  14.858  0.00  0.00    +0.000 OA
ATOM     18  S   UNL     1       6.477   4.758  14.774  0.00  0.00    +0.000 S 
ATOM     19  O   UNL     1       7.747   5.372  14.460  0.00  0.00    +0.000 OA
BRANCH  18  20
ATOM     20  C   UNL     1       6.179   3.428  13.577  0.00  0.00    +0.000 C 
ATOM     21  C   UNL     1       5.243   3.828  12.462  0.00  0.00    +0.000 C 
ATOM     22  C   UNL     1       6.712   3.677  12.188  0.00  0.00    +0.000 C 
ENDBRANCH  18  20
ENDBRANCH  15  18
ENDBRANCH  14  15
ENDBRANCH  13  14
ENDBRANCH   1  13
TORSDOF 6
ENDMDL
MODEL 2
REMARK VINA RESULT:      -7.0      3.157      6.628
REMARK  Name = 
REMARK  6 active torsions:
REMARK  status: ('A' for Active; 'I' for Inactive)
REMARK    1  A    between atoms: S_2  and  N_4
REMARK    2  A    between atoms: S_2  and  C_18
REMARK    3  A    between atoms: N_4  and  C_5
REMARK    4  A    between atoms: C_5  and  C_6
REMARK    5  A    between atoms: C_6  and  C_7
REMARK    6  A    between atoms: C_9  and  C_10
REMARK                            x       y       z     vdW  Elec       q    Type
REMARK                         _______ _______ _______ _____ _____    ______ ____
ROOT
ATOM      1  C   UNL     1       7.003   4.778  16.239  0.00  0.00    +0.000 A 
ATOM      2  N   UNL     1       6.312   3.930  15.511  0.00  0.00    +0.000 NA
ATOM      3  C   UNL     1       6.544   4.340  14.211  0.00  0.00    +0.000 A 
ATOM      4  N   UNL     1       7.347   5.415  14.128  0.00  0.00    +0.000 NA
ATOM      5  N   UNL     1       7.599   5.684  15.413  0.00  0.00    +0.000 N 
ATOM      6  H   UNL     1       8.214   6.456  15.649  0.00  0.00    +0.000 HD
ENDROOT
BRANCH   3   7
ATOM      7  C   UNL     1       5.993   3.641  13.054  0.00  0.00    +0.000 A 
ATOM      8  C   UNL     1       4.694   3.923  12.603  0.00  0.00    +0.000 A 
ATOM      9  C   UNL     1       4.158   3.243  11.506  0.00  0.00    +0.000 A 
ATOM     10  C   UNL     1       4.913   2.273  10.847  0.00  0.00    +0.000 A 
ATOM     11  C   UNL     1       6.206   1.987  11.282  0.00  0.00    +0.000 A 
ATOM     12  C   UNL     1       6.742   2.667  12.377  0.00  0.00    +0.000 A 
ENDBRANCH   3   7
BRANCH   1  13
ATOM     13  C   UNL     1       7.214   4.768  17.711  0.00  0.00    +0.000 C 
BRANCH  13  14
ATOM     14  C   UNL     1       5.886   4.749  18.475  0.00  0.00    +0.000 C 
BRANCH  14  15
ATOM     15  N   UNL     1       5.439   3.350  18.720  0.00  0.00    +0.000 NA
ATOM     16  H   UNL     1       5.718   2.719  17.962  0.00  0.00    +0.000 HD
BRANCH  15  18
ATOM     17  O   UNL     1       3.475   1.749  18.543  0.00  0.00    +0.000 OA
ATOM     18  S   UNL     1       3.760   3.128  18.868  0.00  0.00    +0.000 S 
ATOM     19  O   UNL     1       3.426   3.689  20.158  0.00  0.00    +0.000 OA
BRANCH  18  20
ATOM     20  C   UNL     1       2.976   4.148  17.588  0.00  0.00    +0.000 C 
ATOM     21  C   UNL     1       1.469   4.157  17.673  0.00  0.00    +0.000 C 
ATOM     22  C   UNL     1       2.250   5.370  18.089  0.00  0.00    +0.000 C 
ENDBRANCH  18  20
ENDBRANCH  15  18
ENDBRANCH  14  15
ENDBRANCH  13  14
ENDBRANCH   1  13
TORSDOF 6
ENDMDL
MODEL 3
REMARK VINA RESULT:      -6.9      2.516      6.876
REMARK  Name = 
REMARK  6 active torsions:
REMARK  status: ('A' for Active; 'I' for Inactive)
REMARK    1  A    between atoms: S_2  and  N_4
REMARK    2  A    between atoms: S_2  and  C_18
REMARK    3  A    between atoms: N_4  and  C_5
REMARK    4  A    between atoms: C_5  and  C_6
REMARK    5  A    between atoms: C_6  and  C_7
REMARK    6  A    between atoms: C_9  and  C_10
REMARK                            x       y       z     vdW  Elec       q    Type
REMARK                         _______ _______ _______ _____ _____    ______ ____
ROOT
ATOM      1  C   UNL     1       6.235   5.366  17.883  0.00  0.00    +0.000 A 
ATOM      2  N   UNL     1       5.922   4.703  16.793  0.00  0.00    +0.000 NA
ATOM      3  C   UNL     1       6.727   5.262  15.819  0.00  0.00    +0.000 A 
ATOM      4  N   UNL     1       7.514   6.249  16.280  0.00  0.00    +0.000 NA
ATOM      5  N   UNL     1       7.167   6.312  17.570  0.00  0.00    +0.000 N 
ATOM      6  H   UNL     1       7.632   6.976  18.179  0.00  0.00    +0.000 HD
ENDROOT
BRANCH   3   7
ATOM      7  C   UNL     1       6.737   4.789  14.437  0.00  0.00    +0.000 A 
ATOM      8  C   UNL     1       5.811   3.826  14.007  0.00  0.00    +0.000 A 
ATOM      9  C   UNL     1       5.828   3.359  12.691  0.00  0.00    +0.000 A 
ATOM     10  C   UNL     1       6.772   3.848  11.787  0.00  0.00    +0.000 A 
ATOM     11  C   UNL     1       7.694   4.809  12.200  0.00  0.00    +0.000 A 
ATOM     12  C   UNL     1       7.676   5.276  13.516  0.00  0.00    +0.000 A 
ENDBRANCH   3   7
BRANCH   1  13
ATOM     13  C   UNL     1       5.759   5.132  19.272  0.00  0.00    +0.000 C 
BRANCH  13  14
ATOM     14  C   UNL     1       4.303   5.573  19.455  0.00  0.00    +0.000 C 
BRANCH  14  15
ATOM     15  N   UNL     1       3.461   5.092  18.325  0.00  0.00    +0.000 NA
ATOM     16  H   UNL     1       2.803   5.810  18.004  0.00  0.00    +0.000 HD
BRANCH  15  18
ATOM     17  O   UNL     1       1.451   3.694  17.652  0.00  0.00    +0.000 OA
ATOM     18  S   UNL     1       2.490   3.737  18.656  0.00  0.00    +0.000 S 
ATOM     19  O   UNL     1       3.424   2.647  18.828  0.00  0.00    +0.000 OA
BRANCH  18  20
ATOM     20  C   UNL     1       1.676   4.043  20.249  0.00  0.00    +0.000 C 
ATOM     21  C   UNL     1       0.883   2.860  20.751  0.00  0.00    +0.000 C 
ATOM     22  C   UNL     1       2.187   3.219  21.404  0.00  0.00    +0.000 C 
ENDBRANCH  18  20
ENDBRANCH  15  18
ENDBRANCH  14  15
ENDBRANCH  13  14
ENDBRANCH   1  13
TORSDOF 6
ENDMDL
MODEL 4
REMARK VINA RESULT:      -6.9      2.439      6.743
REMARK  Name = 
REMARK  6 active torsions:
REMARK  status: ('A' for Active; 'I' for Inactive)
REMARK    1  A    between atoms: S_2  and  N_4
REMARK    2  A    between atoms: S_2  and  C_18
REMARK    3  A    between atoms: N_4  and  C_5
REMARK    4  A    between atoms: C_5  and  C_6
REMARK    5  A    between atoms: C_6  and  C_7
REMARK    6  A    between atoms: C_9  and  C_10
REMARK                            x       y       z     vdW  Elec       q    Type
REMARK                         _______ _______ _______ _____ _____    ______ ____
ROOT
ATOM      1  C   UNL     1       5.668   5.429  17.758  0.00  0.00    +0.000 A 
ATOM      2  N   UNL     1       5.998   4.581  16.810  0.00  0.00    +0.000 NA
ATOM      3  C   UNL     1       5.931   5.332  15.652  0.00  0.00    +0.000 A 
ATOM      4  N   UNL     1       5.565   6.607  15.864  0.00  0.00    +0.000 NA
ATOM      5  N   UNL     1       5.381   6.634  17.188  0.00  0.00    +0.000 N 
ATOM      6  H   UNL     1       5.113   7.505  17.635  0.00  0.00    +0.000 HD
ENDROOT
BRANCH   3   7
ATOM      7  C   UNL     1       6.266   4.787  14.339  0.00  0.00    +0.000 A 
ATOM      8  C   UNL     1       7.412   5.225  13.657  0.00  0.00    +0.000 A 
ATOM      9  C   UNL     1       7.726   4.718  12.393  0.00  0.00    +0.000 A 
ATOM     10  C   UNL     1       6.898   3.768  11.795  0.00  0.00    +0.000 A 
ATOM     11  C   UNL     1       5.759   3.321  12.463  0.00  0.00    +0.000 A 
ATOM     12  C   UNL     1       5.447   3.827  13.727  0.00  0.00    +0.000 A 
ENDBRANCH   3   7
BRANCH   1  13
ATOM     13  C   UNL     1       5.665   5.211  19.228  0.00  0.00    +0.000 C 
BRANCH  13  14
ATOM     14  C   UNL     1       4.312   4.686  19.722  0.00  0.00    +0.000 C 
BRANCH  14  15
ATOM     15  N   UNL     1       3.320   4.663  18.611  0.00  0.00    +0.000 NA
ATOM     16  H   UNL     1       2.530   5.292  18.789  0.00  0.00    +0.000 HD
BRANCH  15  18
ATOM     17  O   UNL     1       2.212   3.145  16.903  0.00  0.00    +0.000 OA
ATOM     18  S   UNL     1       2.605   3.154  18.294  0.00  0.00    +0.000 S 
ATOM     19  O   UNL     1       3.538   2.186  18.826  0.00  0.00    +0.000 OA
BRANCH  18  20
ATOM     20  C   UNL     1       1.082   3.071  19.277  0.00  0.00    +0.000 C 
ATOM     21  C   UNL     1       1.324   2.721  20.725  0.00  0.00    +0.000 C 
ATOM     22  C   UNL     1       0.945   4.124  20.347  0.00  0.00    +0.000 C 
ENDBRANCH  18  20
ENDBRANCH  15  18
ENDBRANCH  14  15
ENDBRANCH  13  14
ENDBRANCH   1  13
TORSDOF 6
ENDMDL
MODEL 5
REMARK VINA RESULT:      -6.9      3.490      7.024
REMARK  Name = 
REMARK  6 active torsions:
REMARK  status: ('A' for Active; 'I' for Inactive)
REMARK    1  A    between atoms: S_2  and  N_4
REMARK    2  A    between atoms: S_2  and  C_18
REMARK    3  A    between atoms: N_4  and  C_5
REMARK    4  A    between atoms: C_5  and  C_6
REMARK    5  A    between atoms: C_6  and  C_7
REMARK    6  A    between atoms: C_9  and  C_10
REMARK                            x       y       z     vdW  Elec       q    Type
REMARK                         _______ _______ _______ _____ _____    ______ ____
ROOT
ATOM      1  C   UNL     1       6.074   4.542  18.158  0.00  0.00    +0.000 A 
ATOM      2  N   UNL     1       5.663   4.557  16.910  0.00  0.00    +0.000 NA
ATOM      3  C   UNL     1       6.830   4.480  16.173  0.00  0.00    +0.000 A 
ATOM      4  N   UNL     1       7.937   4.426  16.934  0.00  0.00    +0.000 NA
ATOM      5  N   UNL     1       7.437   4.493  18.172  0.00  0.00    +0.000 N 
ATOM      6  H   UNL     1       8.067   4.450  18.966  0.00  0.00    +0.000 HD
ENDROOT
BRANCH   3   7
ATOM      7  C   UNL     1       6.839   4.426  14.714  0.00  0.00    +0.000 A 
ATOM      8  C   UNL     1       5.956   3.578  14.028  0.00  0.00    +0.000 A 
ATOM      9  C   UNL     1       5.974   3.511  12.632  0.00  0.00    +0.000 A 
ATOM     10  C   UNL     1       6.875   4.290  11.906  0.00  0.00    +0.000 A 
ATOM     11  C   UNL     1       7.754   5.139  12.575  0.00  0.00    +0.000 A 
ATOM     12  C   UNL     1       7.735   5.207  13.970  0.00  0.00    +0.000 A 
ENDBRANCH   3   7
BRANCH   1  13
ATOM     13  C   UNL     1       5.254   4.500  19.397  0.00  0.00    +0.000 C 
BRANCH  13  14
ATOM     14  C   UNL     1       3.945   5.282  19.238  0.00  0.00    +0.000 C 
BRANCH  14  15
ATOM     15  N   UNL     1       3.204   5.336  20.529  0.00  0.00    +0.000 NA
ATOM     16  H   UNL     1       3.821   5.181  21.333  0.00  0.00    +0.000 HD
BRANCH  15  18
ATOM     17  O   UNL     1       2.233   3.448  21.921  0.00  0.00    +0.000 OA
ATOM     18  S   UNL     1       1.961   4.191  20.712  0.00  0.00    +0.000 S 
ATOM     19  O   UNL     1       0.738   4.944  20.543  0.00  0.00    +0.000 OA
BRANCH  18  20
ATOM     20  C   UNL     1       2.105   3.026  19.329  0.00  0.00    +0.000 C 
ATOM     21  C   UNL     1       0.809   2.324  19.003  0.00  0.00    +0.000 C 
ATOM     22  C   UNL     1       1.331   3.395  18.089  0.00  0.00    +0.000 C 
ENDBRANCH  18  20
ENDBRANCH  15  18
ENDBRANCH  14  15
ENDBRANCH  13  14
ENDBRANCH   1  13
TORSDOF 6
ENDMDL
MODEL 6
REMARK VINA RESULT:      -6.8      0.877      1.086
REMARK  Name = 
REMARK  6 active torsions:
REMARK  status: ('A' for Active; 'I' for Inactive)
REMARK    1  A    between atoms: S_2  and  N_4
REMARK    2  A    between atoms: S_2  and  C_18
REMARK    3  A    between atoms: N_4  and  C_5
REMARK    4  A    between atoms: C_5  and  C_6
REMARK    5  A    between atoms: C_6  and  C_7
REMARK    6  A    between atoms: C_9  and  C_10
REMARK                            x       y       z     vdW  Elec       q    Type
REMARK                         _______ _______ _______ _____ _____    ______ ____
ROOT
ATOM      1  C   UNL     1       6.055   5.451  18.417  0.00  0.00    +0.000 A 
ATOM      2  N   UNL     1       5.226   4.570  18.931  0.00  0.00    +0.000 NA
ATOM      3  C   UNL     1       3.976   5.107  18.689  0.00  0.00    +0.000 A 
ATOM      4  N   UNL     1       4.018   6.289  18.051  0.00  0.00    +0.000 NA
ATOM      5  N   UNL     1       5.332   6.494  17.916  0.00  0.00    +0.000 N 
ATOM      6  H   UNL     1       5.660   7.326  17.437  0.00  0.00    +0.000 HD
ENDROOT
BRANCH   3   7
ATOM      7  C   UNL     1       2.739   4.425  19.062  0.00  0.00    +0.000 A 
ATOM      8  C   UNL     1       2.043   4.798  20.223  0.00  0.00    +0.000 A 
ATOM      9  C   UNL     1       0.869   4.136  20.592  0.00  0.00    +0.000 A 
ATOM     10  C   UNL     1       0.378   3.094  19.808  0.00  0.00    +0.000 A 
ATOM     11  C   UNL     1       1.057   2.716  18.650  0.00  0.00    +0.000 A 
ATOM     12  C   UNL     1       2.230   3.378  18.281  0.00  0.00    +0.000 A 
ENDBRANCH   3   7
BRANCH   1  13
ATOM     13  C   UNL     1       7.533   5.360  18.291  0.00  0.00    +0.000 C 
BRANCH  13  14
ATOM     14  C   UNL     1       7.951   4.597  17.029  0.00  0.00    +0.000 C 
BRANCH  14  15
ATOM     15  N   UNL     1       6.756   4.074  16.311  0.00  0.00    +0.000 NA
ATOM     16  H   UNL     1       6.831   3.069  16.122  0.00  0.00    +0.000 HD
BRANCH  15  18
ATOM     17  O   UNL     1       5.221   5.537  14.915  0.00  0.00    +0.000 OA
ATOM     18  S   UNL     1       6.443   4.775  14.794  0.00  0.00    +0.000 S 
ATOM     19  O   UNL     1       7.690   5.395  14.411  0.00  0.00    +0.000 OA
BRANCH  18  20
ATOM     20  C   UNL     1       6.108   3.415  13.640  0.00  0.00    +0.000 C 
ATOM     21  C   UNL     1       5.284   3.835  12.447  0.00  0.00    +0.000 C 
ATOM     22  C   UNL     1       6.749   3.547  12.282  0.00  0.00    +0.000 C 
ENDBRANCH  18  20
ENDBRANCH  15  18
ENDBRANCH  14  15
ENDBRANCH  13  14
ENDBRANCH   1  13
TORSDOF 6
ENDMDL
MODEL 7
REMARK VINA RESULT:      -6.8      2.794      6.898
REMARK  Name = 
REMARK  6 active torsions:
REMARK  status: ('A' for Active; 'I' for Inactive)
REMARK    1  A    between atoms: S_2  and  N_4
REMARK    2  A    between atoms: S_2  and  C_18
REMARK    3  A    between atoms: N_4  and  C_5
REMARK    4  A    between atoms: C_5  and  C_6
REMARK    5  A    between atoms: C_6  and  C_7
REMARK    6  A    between atoms: C_9  and  C_10
REMARK                            x       y       z     vdW  Elec       q    Type
REMARK                         _______ _______ _______ _____ _____    ______ ____
ROOT
ATOM      1  C   UNL     1       5.663   5.813  17.342  0.00  0.00    +0.000 A 
ATOM      2  N   UNL     1       5.356   5.168  16.240  0.00  0.00    +0.000 NA
ATOM      3  C   UNL     1       6.466   5.336  15.434  0.00  0.00    +0.000 A 
ATOM      4  N   UNL     1       7.435   6.070  16.009  0.00  0.00    +0.000 NA
ATOM      5  N   UNL     1       6.895   6.378  17.192  0.00  0.00    +0.000 N 
ATOM      6  H   UNL     1       7.432   6.924  17.857  0.00  0.00    +0.000 HD
ENDROOT
BRANCH   3   7
ATOM      7  C   UNL     1       6.575   4.738  14.106  0.00  0.00    +0.000 A 
ATOM      8  C   UNL     1       7.576   5.157  13.216  0.00  0.00    +0.000 A 
ATOM      9  C   UNL     1       7.671   4.598  11.939  0.00  0.00    +0.000 A 
ATOM     10  C   UNL     1       6.768   3.616  11.535  0.00  0.00    +0.000 A 
ATOM     11  C   UNL     1       5.772   3.187  12.411  0.00  0.00    +0.000 A 
ATOM     12  C   UNL     1       5.677   3.745  13.689  0.00  0.00    +0.000 A 
ENDBRANCH   3   7
BRANCH   1  13
ATOM     13  C   UNL     1       4.888   5.893  18.608  0.00  0.00    +0.000 C 
BRANCH  13  14
ATOM     14  C   UNL     1       5.260   4.763  19.575  0.00  0.00    +0.000 C 
BRANCH  14  15
ATOM     15  N   UNL     1       5.143   3.438  18.906  0.00  0.00    +0.000 NA
ATOM     16  H   UNL     1       4.731   3.515  17.970  0.00  0.00    +0.000 HD
BRANCH  15  18
ATOM     17  O   UNL     1       3.545   1.476  18.698  0.00  0.00    +0.000 OA
ATOM     18  S   UNL     1       4.180   2.290  19.708  0.00  0.00    +0.000 S 
ATOM     19  O   UNL     1       5.050   1.716  20.710  0.00  0.00    +0.000 OA
BRANCH  18  20
ATOM     20  C   UNL     1       2.864   3.205  20.558  0.00  0.00    +0.000 C 
ATOM     21  C   UNL     1       1.811   3.744  19.620  0.00  0.00    +0.000 C 
ATOM     22  C   UNL     1       1.497   2.571  20.503  0.00  0.00    +0.000 C 
ENDBRANCH  18  20
ENDBRANCH  15  18
ENDBRANCH  14  15
ENDBRANCH  13  14
ENDBRANCH   1  13
TORSDOF 6
ENDMDL
MODEL 8
REMARK VINA RESULT:      -6.8      2.898      6.660
REMARK  Name = 
REMARK  6 active torsions:
REMARK  status: ('A' for Active; 'I' for Inactive)
REMARK    1  A    between atoms: S_2  and  N_4
REMARK    2  A    between atoms: S_2  and  C_18
REMARK    3  A    between atoms: N_4  and  C_5
REMARK    4  A    between atoms: C_5  and  C_6
REMARK    5  A    between atoms: C_6  and  C_7
REMARK    6  A    between atoms: C_9  and  C_10
REMARK                            x       y       z     vdW  Elec       q    Type
REMARK                         _______ _______ _______ _____ _____    ______ ____
ROOT
ATOM      1  C   UNL     1       5.633   5.768  17.378  0.00  0.00    +0.000 A 
ATOM      2  N   UNL     1       5.319   5.142  16.265  0.00  0.00    +0.000 NA
ATOM      3  C   UNL     1       6.425   5.323  15.457  0.00  0.00    +0.000 A 
ATOM      4  N   UNL     1       7.398   6.045  16.039  0.00  0.00    +0.000 NA
ATOM      5  N   UNL     1       6.865   6.333  17.231  0.00  0.00    +0.000 N 
ATOM      6  H   UNL     1       7.407   6.867  17.903  0.00  0.00    +0.000 HD
ENDROOT
BRANCH   3   7
ATOM      7  C   UNL     1       6.526   4.747  14.119  0.00  0.00    +0.000 A 
ATOM      8  C   UNL     1       5.610   3.772  13.692  0.00  0.00    +0.000 A 
ATOM      9  C   UNL     1       5.714   3.207  12.418  0.00  0.00    +0.000 A 
ATOM     10  C   UNL     1       6.735   3.608  11.556  0.00  0.00    +0.000 A 
ATOM     11  C   UNL     1       7.648   4.579  11.966  0.00  0.00    +0.000 A 
ATOM     12  C   UNL     1       7.543   5.144  13.239  0.00  0.00    +0.000 A 
ENDBRANCH   3   7
BRANCH   1  13
ATOM     13  C   UNL     1       4.864   5.826  18.649  0.00  0.00    +0.000 C 
BRANCH  13  14
ATOM     14  C   UNL     1       5.204   4.652  19.573  0.00  0.00    +0.000 C 
BRANCH  14  15
ATOM     15  N   UNL     1       5.058   3.356  18.853  0.00  0.00    +0.000 NA
ATOM     16  H   UNL     1       4.873   3.491  17.854  0.00  0.00    +0.000 HD
BRANCH  15  18
ATOM     17  O   UNL     1       3.674   1.266  18.448  0.00  0.00    +0.000 OA
ATOM     18  S   UNL     1       3.798   2.352  19.394  0.00  0.00    +0.000 S 
ATOM     19  O   UNL     1       4.089   2.113  20.789  0.00  0.00    +0.000 OA
BRANCH  18  20
ATOM     20  C   UNL     1       2.267   3.321  19.292  0.00  0.00    +0.000 C 
ATOM     21  C   UNL     1       1.865   3.655  17.875  0.00  0.00    +0.000 C 
ATOM     22  C   UNL     1       1.099   2.619  18.647  0.00  0.00    +0.000 C 
ENDBRANCH  18  20
ENDBRANCH  15  18
ENDBRANCH  14  15
ENDBRANCH  13  14
ENDBRANCH   1  13
TORSDOF 6
ENDMDL
MODEL 9
REMARK VINA RESULT:      -6.7      3.040      6.405
REMARK  Name = 
REMARK  6 active torsions:
REMARK  status: ('A' for Active; 'I' for Inactive)
REMARK    1  A    between atoms: S_2  and  N_4
REMARK    2  A    between atoms: S_2  and  C_18
REMARK    3  A    between atoms: N_4  and  C_5
REMARK    4  A    between atoms: C_5  and  C_6
REMARK    5  A    between atoms: C_6  and  C_7
REMARK    6  A    between atoms: C_9  and  C_10
REMARK                            x       y       z     vdW  Elec       q    Type
REMARK                         _______ _______ _______ _____ _____    ______ ____
ROOT
ATOM      1  C   UNL     1       6.935   5.405  17.481  0.00  0.00    +0.000 A 
ATOM      2  N   UNL     1       6.373   4.609  16.598  0.00  0.00    +0.000 NA
ATOM      3  C   UNL     1       6.827   5.086  15.383  0.00  0.00    +0.000 A 
ATOM      4  N   UNL     1       7.639   6.150  15.498  0.00  0.00    +0.000 NA
ATOM      5  N   UNL     1       7.669   6.345  16.820  0.00  0.00    +0.000 N 
ATOM      6  H   UNL     1       8.240   7.093  17.201  0.00  0.00    +0.000 HD
ENDROOT
BRANCH   3   7
ATOM      7  C   UNL     1       6.477   4.460  14.110  0.00  0.00    +0.000 A 
ATOM      8  C   UNL     1       7.407   4.414  13.060  0.00  0.00    +0.000 A 
ATOM      9  C   UNL     1       7.070   3.831  11.836  0.00  0.00    +0.000 A 
ATOM     10  C   UNL     1       5.799   3.288  11.646  0.00  0.00    +0.000 A 
ATOM     11  C   UNL     1       4.867   3.323  12.682  0.00  0.00    +0.000 A 
ATOM     12  C   UNL     1       5.206   3.905  13.906  0.00  0.00    +0.000 A 
ENDBRANCH   3   7
BRANCH   1  13
ATOM     13  C   UNL     1       6.891   5.311  18.964  0.00  0.00    +0.000 C 
BRANCH  13  14
ATOM     14  C   UNL     1       5.506   4.887  19.465  0.00  0.00    +0.000 C 
BRANCH  14  15
ATOM     15  N   UNL     1       5.278   3.436  19.219  0.00  0.00    +0.000 NA
ATOM     16  H   UNL     1       5.790   3.101  18.396  0.00  0.00    +0.000 HD
BRANCH  15  18
ATOM     17  O   UNL     1       3.686   1.696  18.277  0.00  0.00    +0.000 OA
ATOM     18  S   UNL     1       3.664   2.983  18.935  0.00  0.00    +0.000 S 
ATOM     19  O   UNL     1       2.999   3.175  20.204  0.00  0.00    +0.000 OA
BRANCH  18  20
ATOM     20  C   UNL     1       2.979   4.174  17.750  0.00  0.00    +0.000 C 
ATOM     21  C   UNL     1       1.473   4.123  17.656  0.00  0.00    +0.000 C 
ATOM     22  C   UNL     1       2.143   5.275  18.350  0.00  0.00    +0.000 C 
ENDBRANCH  18  20
ENDBRANCH  15  18
ENDBRANCH  14  15
ENDBRANCH  13  14
ENDBRANCH   1  13
TORSDOF 6
ENDMDL
