MODEL 1
REMARK VINA RESULT:      -7.9      0.000      0.000
REMARK  Name = 
REMARK  9 active torsions:
REMARK  status: ('A' for Active; 'I' for Inactive)
REMARK    1  A    between atoms: C_1  and  C_2
REMARK    2  A    between atoms: C_2  and  C_3
REMARK    3  A    between atoms: C_3  and  C_4
REMARK    4  A    between atoms: C_4  and  C_5
REMARK    5  A    between atoms: C_5  and  C_6
REMARK    6  A    between atoms: C_5  and  N_14
REMARK    7  A    between atoms: C_17  and  C_18
REMARK    8  A    between atoms: C_18  and  N_19
REMARK    9  A    between atoms: C_18  and  C_20
REMARK                            x       y       z     vdW  Elec       q    Type
REMARK                         _______ _______ _______ _____ _____    ______ ____
ROOT
ATOM      1  N   UNL     1       5.371   6.134  18.095  0.00  0.00    +0.000 NA
ATOM      2  C   UNL     1       6.457   5.538  18.910  0.00  0.00    +0.000 C 
ATOM      3  C   UNL     1       7.400   5.797  17.728  0.00  0.00    +0.000 C 
ATOM      4  C   UNL     1       6.113   5.689  16.848  0.00  0.00    +0.000 C 
ENDROOT
BRANCH   1   5
ATOM      5  C   UNL     1       4.056   5.564  18.412  0.00  0.00    +0.000 C 
BRANCH   5   6
ATOM      6  C   UNL     1       3.011   6.648  18.695  0.00  0.00    +0.000 A 
ATOM      7  C   UNL     1       2.808   7.713  17.796  0.00  0.00    +0.000 A 
ATOM      8  C   UNL     1       2.067   8.829  18.181  0.00  0.00    +0.000 A 
ATOM      9  F   UNL     1       1.965   9.871  17.345  0.00  0.00    +0.000 F 
ATOM     10  C   UNL     1       1.481   8.907  19.436  0.00  0.00    +0.000 A 
ATOM     11  C   UNL     1       1.641   7.841  20.309  0.00  0.00    +0.000 A 
ATOM     12  F   UNL     1       1.098   7.905  21.532  0.00  0.00    +0.000 F 
ATOM     13  C   UNL     1       2.403   6.733  19.960  0.00  0.00    +0.000 A 
ENDBRANCH   5   6
BRANCH   5  14
ATOM     14  C   UNL     1       4.143   4.678  19.714  0.00  0.00    +0.000 C 
BRANCH  14  15
ATOM     15  C   UNL     1       3.387   3.345  19.579  0.00  0.00    +0.000 C 
BRANCH  15  17
ATOM     16  C   UNL     1       1.174   3.171  20.722  0.00  0.00    +0.000 C 
ATOM     17  C   UNL     1       2.670   2.913  20.858  0.00  0.00    +0.000 C 
ENDBRANCH  15  17
ENDBRANCH  14  15
ENDBRANCH   5  14
ENDBRANCH   1   5
BRANCH   4  18
ATOM     18  C   UNL     1       5.912   4.284  16.204  0.00  0.00    +0.000 C 
BRANCH  18  19
ATOM     19  C   UNL     1       6.272   4.309  14.716  0.00  0.00    +0.000 A 
ATOM     20  C   UNL     1       7.341   5.101  14.260  0.00  0.00    +0.000 A 
ATOM     21  C   UNL     1       7.742   5.067  12.920  0.00  0.00    +0.000 A 
ATOM     22  C   UNL     1       7.089   4.235  12.013  0.00  0.00    +0.000 A 
ATOM     23  C   UNL     1       6.030   3.445  12.450  0.00  0.00    +0.000 A 
ATOM     24 CL   UNL     1       5.243   2.386  11.342  0.00  0.00    +0.000 Cl
ATOM     25  C   UNL     1       5.615   3.483  13.783  0.00  0.00    +0.000 A 
ENDBRANCH  18  19
BRANCH  18  26
ATOM     26  N   UNL     1       4.533   3.803  16.304  0.00  0.00    +0.000 NA
ATOM     27  H   UNL     1       4.528   2.793  16.441  0.00  0.00    +0.000 HD
ATOM     28  H   UNL     1       4.035   3.985  15.446  0.00  0.00    +0.000 HD
ENDBRANCH  18  26
ENDBRANCH   4  18
TORSDOF 8
ENDMDL
MODEL 2
REMARK VINA RESULT:      -7.9      2.736      5.401
REMARK  Name = 
REMARK  9 active torsions:
REMARK  status: ('A' for Active; 'I' for Inactive)
REMARK    1  A    between atoms: C_1  and  C_2
REMARK    2  A    between atoms: C_2  and  C_3
REMARK    3  A    between atoms: C_3  and  C_4
REMARK    4  A    between atoms: C_4  and  C_5
REMARK    5  A    between atoms: C_5  and  C_6
REMARK    6  A    between atoms: C_5  and  N_14
REMARK    7  A    between atoms: C_17  and  C_18
REMARK    8  A    between atoms: C_18  and  N_19
REMARK    9  A    between atoms: C_18  and  C_20
REMARK                            x       y       z     vdW  Elec       q    Type
REMARK                         _______ _______ _______ _____ _____    ______ ____
ROOT
ATOM      1  N   UNL     1       5.262   5.508  16.277  0.00  0.00    +0.000 NA
ATOM      2  C   UNL     1       6.559   4.909  15.880  0.00  0.00    +0.000 C 
ATOM      3  C   UNL     1       5.763   3.766  15.236  0.00  0.00    +0.000 C 
ATOM      4  C   UNL     1       4.664   4.113  16.294  0.00  0.00    +0.000 C 
ENDROOT
BRANCH   1   5
ATOM      5  C   UNL     1       5.359   6.282  17.520  0.00  0.00    +0.000 C 
BRANCH   5   6
ATOM      6  C   UNL     1       3.995   6.808  17.980  0.00  0.00    +0.000 A 
ATOM      7  C   UNL     1       3.401   7.925  17.363  0.00  0.00    +0.000 A 
ATOM      8  C   UNL     1       2.310   8.559  17.954  0.00  0.00    +0.000 A 
ATOM      9  F   UNL     1       1.820   9.676  17.400  0.00  0.00    +0.000 F 
ATOM     10  C   UNL     1       1.758   8.091  19.138  0.00  0.00    +0.000 A 
ATOM     11  C   UNL     1       2.312   6.964  19.727  0.00  0.00    +0.000 A 
ATOM     12  F   UNL     1       1.805   6.507  20.879  0.00  0.00    +0.000 F 
ATOM     13  C   UNL     1       3.421   6.335  19.174  0.00  0.00    +0.000 A 
ENDBRANCH   5   6
BRANCH   5  14
ATOM     14  C   UNL     1       6.276   7.547  17.305  0.00  0.00    +0.000 C 
BRANCH  14  15
ATOM     15  C   UNL     1       7.759   7.267  17.606  0.00  0.00    +0.000 C 
BRANCH  15  17
ATOM     16  C   UNL     1       8.421   9.643  17.997  0.00  0.00    +0.000 C 
ATOM     17  C   UNL     1       8.380   8.245  18.603  0.00  0.00    +0.000 C 
ENDBRANCH  15  17
ENDBRANCH  14  15
ENDBRANCH   5  14
ENDBRANCH   1   5
BRANCH   4  18
ATOM     18  C   UNL     1       4.700   3.196  17.554  0.00  0.00    +0.000 C 
BRANCH  18  19
ATOM     19  C   UNL     1       3.356   3.225  18.288  0.00  0.00    +0.000 A 
ATOM     20  C   UNL     1       2.171   3.499  17.582  0.00  0.00    +0.000 A 
ATOM     21  C   UNL     1       0.925   3.441  18.217  0.00  0.00    +0.000 A 
ATOM     22  C   UNL     1       0.840   3.099  19.566  0.00  0.00    +0.000 A 
ATOM     23  C   UNL     1       2.004   2.825  20.277  0.00  0.00    +0.000 A 
ATOM     24 CL   UNL     1       1.903   2.365  21.934  0.00  0.00    +0.000 Cl
ATOM     25  C   UNL     1       3.253   2.894  19.653  0.00  0.00    +0.000 A 
ENDBRANCH  18  19
BRANCH  18  26
ATOM     26  N   UNL     1       5.725   3.595  18.520  0.00  0.00    +0.000 NA
ATOM     27  H   UNL     1       6.281   4.360  18.139  0.00  0.00    +0.000 HD
ATOM     28  H   UNL     1       6.359   2.830  18.694  0.00  0.00    +0.000 HD
ENDBRANCH  18  26
ENDBRANCH   4  18
TORSDOF 8
ENDMDL
MODEL 3
REMARK VINA RESULT:      -7.6      1.135      1.490
REMARK  Name = 
REMARK  9 active torsions:
REMARK  status: ('A' for Active; 'I' for Inactive)
REMARK    1  A    between atoms: C_1  and  C_2
REMARK    2  A    between atoms: C_2  and  C_3
REMARK    3  A    between atoms: C_3  and  C_4
REMARK    4  A    between atoms: C_4  and  C_5
REMARK    5  A    between atoms: C_5  and  C_6
REMARK    6  A    between atoms: C_5  and  N_14
REMARK    7  A    between atoms: C_17  and  C_18
REMARK    8  A    between atoms: C_18  and  N_19
REMARK    9  A    between atoms: C_18  and  C_20
REMARK                            x       y       z     vdW  Elec       q    Type
REMARK                         _______ _______ _______ _____ _____    ______ ____
ROOT
ATOM      1  N   UNL     1       5.078   5.960  18.249  0.00  0.00    +0.000 NA
ATOM      2  C   UNL     1       6.067   5.245  19.092  0.00  0.00    +0.000 C 
ATOM      3  C   UNL     1       7.089   5.465  17.969  0.00  0.00    +0.000 C 
ATOM      4  C   UNL     1       5.844   5.499  17.023  0.00  0.00    +0.000 C 
ENDROOT
BRANCH   1   5
ATOM      5  C   UNL     1       3.705   5.493  18.479  0.00  0.00    +0.000 C 
BRANCH   5   6
ATOM      6  C   UNL     1       2.748   6.649  18.787  0.00  0.00    +0.000 A 
ATOM      7  C   UNL     1       2.562   7.703  17.872  0.00  0.00    +0.000 A 
ATOM      8  C   UNL     1       1.915   8.873  18.266  0.00  0.00    +0.000 A 
ATOM      9  F   UNL     1       1.833   9.899  17.408  0.00  0.00    +0.000 F 
ATOM     10  C   UNL     1       1.406   9.018  19.548  0.00  0.00    +0.000 A 
ATOM     11  C   UNL     1       1.547   7.966  20.440  0.00  0.00    +0.000 A 
ATOM     12  F   UNL     1       1.078   8.094  21.689  0.00  0.00    +0.000 F 
ATOM     13  C   UNL     1       2.218   6.803  20.081  0.00  0.00    +0.000 A 
ENDBRANCH   5   6
BRANCH   5  14
ATOM     14  C   UNL     1       3.657   4.528  19.724  0.00  0.00    +0.000 C 
BRANCH  14  15
ATOM     15  C   UNL     1       2.900   3.220  19.436  0.00  0.00    +0.000 C 
BRANCH  15  17
ATOM     16  C   UNL     1       1.793   3.092  21.671  0.00  0.00    +0.000 C 
ATOM     17  C   UNL     1       1.561   3.110  20.165  0.00  0.00    +0.000 C 
ENDBRANCH  15  17
ENDBRANCH  14  15
ENDBRANCH   5  14
ENDBRANCH   1   5
BRANCH   4  18
ATOM     18  C   UNL     1       5.561   4.140  16.314  0.00  0.00    +0.000 C 
BRANCH  18  19
ATOM     19  C   UNL     1       6.106   4.146  14.884  0.00  0.00    +0.000 A 
ATOM     20  C   UNL     1       5.463   3.400  13.880  0.00  0.00    +0.000 A 
ATOM     21  C   UNL     1       5.893   3.464  12.549  0.00  0.00    +0.000 A 
ATOM     22  C   UNL     1       6.965   4.282  12.196  0.00  0.00    +0.000 A 
ATOM     23  C   UNL     1       7.609   5.027  13.179  0.00  0.00    +0.000 A 
ATOM     24 CL   UNL     1       8.910   6.068  12.744  0.00  0.00    +0.000 Cl
ATOM     25  C   UNL     1       7.195   4.957  14.512  0.00  0.00    +0.000 A 
ENDBRANCH  18  19
BRANCH  18  26
ATOM     26  N   UNL     1       4.133   3.828  16.229  0.00  0.00    +0.000 NA
ATOM     27  H   UNL     1       3.960   2.893  16.596  0.00  0.00    +0.000 HD
ATOM     28  H   UNL     1       3.832   3.826  15.267  0.00  0.00    +0.000 HD
ENDBRANCH  18  26
ENDBRANCH   4  18
TORSDOF 8
ENDMDL
MODEL 4
REMARK VINA RESULT:      -7.6      2.746      5.652
REMARK  Name = 
REMARK  9 active torsions:
REMARK  status: ('A' for Active; 'I' for Inactive)
REMARK    1  A    between atoms: C_1  and  C_2
REMARK    2  A    between atoms: C_2  and  C_3
REMARK    3  A    between atoms: C_3  and  C_4
REMARK    4  A    between atoms: C_4  and  C_5
REMARK    5  A    between atoms: C_5  and  C_6
REMARK    6  A    between atoms: C_5  and  N_14
REMARK    7  A    between atoms: C_17  and  C_18
REMARK    8  A    between atoms: C_18  and  N_19
REMARK    9  A    between atoms: C_18  and  C_20
REMARK                            x       y       z     vdW  Elec       q    Type
REMARK                         _______ _______ _______ _____ _____    ______ ____
ROOT
ATOM      1  N   UNL     1       5.139   5.696  16.153  0.00  0.00    +0.000 NA
ATOM      2  C   UNL     1       6.320   5.053  15.527  0.00  0.00    +0.000 C 
ATOM      3  C   UNL     1       5.359   4.014  14.933  0.00  0.00    +0.000 C 
ATOM      4  C   UNL     1       4.452   4.342  16.164  0.00  0.00    +0.000 C 
ENDROOT
BRANCH   1   5
ATOM      5  C   UNL     1       5.469   6.364  17.418  0.00  0.00    +0.000 C 
BRANCH   5   6
ATOM      6  C   UNL     1       4.230   6.957  18.097  0.00  0.00    +0.000 A 
ATOM      7  C   UNL     1       3.684   6.367  19.253  0.00  0.00    +0.000 A 
ATOM      8  C   UNL     1       2.417   6.737  19.701  0.00  0.00    +0.000 A 
ATOM      9  F   UNL     1       1.877   6.096  20.747  0.00  0.00    +0.000 F 
ATOM     10  C   UNL     1       1.679   7.714  19.050  0.00  0.00    +0.000 A 
ATOM     11  C   UNL     1       2.231   8.330  17.937  0.00  0.00    +0.000 A 
ATOM     12  F   UNL     1       1.527   9.263  17.284  0.00  0.00    +0.000 F 
ATOM     13  C   UNL     1       3.477   7.954  17.452  0.00  0.00    +0.000 A 
ENDBRANCH   5   6
BRANCH   5  14
ATOM     14  C   UNL     1       6.455   7.567  17.159  0.00  0.00    +0.000 C 
BRANCH  14  15
ATOM     15  C   UNL     1       7.882   7.288  17.662  0.00  0.00    +0.000 C 
BRANCH  15  17
ATOM     16  C   UNL     1       8.578   9.640  18.128  0.00  0.00    +0.000 C 
ATOM     17  C   UNL     1       8.356   8.262  18.739  0.00  0.00    +0.000 C 
ENDBRANCH  15  17
ENDBRANCH  14  15
ENDBRANCH   5  14
ENDBRANCH   1   5
BRANCH   4  18
ATOM     18  C   UNL     1       4.604   3.330  17.339  0.00  0.00    +0.000 C 
BRANCH  18  19
ATOM     19  C   UNL     1       3.337   3.297  18.198  0.00  0.00    +0.000 A 
ATOM     20  C   UNL     1       2.079   3.520  17.610  0.00  0.00    +0.000 A 
ATOM     21  C   UNL     1       0.903   3.404  18.360  0.00  0.00    +0.000 A 
ATOM     22  C   UNL     1       0.962   3.054  19.708  0.00  0.00    +0.000 A 
ATOM     23  C   UNL     1       2.200   2.829  20.302  0.00  0.00    +0.000 A 
ATOM     24 CL   UNL     1       2.277   2.359  21.958  0.00  0.00    +0.000 Cl
ATOM     25  C   UNL     1       3.378   2.956  19.564  0.00  0.00    +0.000 A 
ENDBRANCH  18  19
BRANCH  18  26
ATOM     26  N   UNL     1       5.718   3.656  18.231  0.00  0.00    +0.000 NA
ATOM     27  H   UNL     1       6.528   3.083  17.997  0.00  0.00    +0.000 HD
ATOM     28  H   UNL     1       5.476   3.443  19.186  0.00  0.00    +0.000 HD
ENDBRANCH  18  26
ENDBRANCH   4  18
TORSDOF 8
ENDMDL
MODEL 5
REMARK VINA RESULT:      -7.5      0.623      1.757
REMARK  Name = 
REMARK  9 active torsions:
REMARK  status: ('A' for Active; 'I' for Inactive)
REMARK    1  A    between atoms: C_1  and  C_2
REMARK    2  A    between atoms: C_2  and  C_3
REMARK    3  A    between atoms: C_3  and  C_4
REMARK    4  A    between atoms: C_4  and  C_5
REMARK    5  A    between atoms: C_5  and  C_6
REMARK    6  A    between atoms: C_5  and  N_14
REMARK    7  A    between atoms: C_17  and  C_18
REMARK    8  A    between atoms: C_18  and  N_19
REMARK    9  A    between atoms: C_18  and  C_20
REMARK                            x       y       z     vdW  Elec       q    Type
REMARK                         _______ _______ _______ _____ _____    ______ ____
ROOT
ATOM      1  N   UNL     1       5.084   5.918  18.368  0.00  0.00    +0.000 NA
ATOM      2  C   UNL     1       5.822   4.975  19.244  0.00  0.00    +0.000 C 
ATOM      3  C   UNL     1       6.978   5.045  18.237  0.00  0.00    +0.000 C 
ATOM      4  C   UNL     1       5.869   5.378  17.187  0.00  0.00    +0.000 C 
ENDROOT
BRANCH   1   5
ATOM      5  C   UNL     1       3.630   5.725  18.437  0.00  0.00    +0.000 C 
BRANCH   5   6
ATOM      6  C   UNL     1       2.901   6.998  18.880  0.00  0.00    +0.000 A 
ATOM      7  C   UNL     1       2.289   7.081  20.146  0.00  0.00    +0.000 A 
ATOM      8  C   UNL     1       1.404   8.118  20.434  0.00  0.00    +0.000 A 
ATOM      9  F   UNL     1       0.762   8.126  21.610  0.00  0.00    +0.000 F 
ATOM     10  C   UNL     1       1.130   9.111  19.505  0.00  0.00    +0.000 A 
ATOM     11  C   UNL     1       1.764   9.058  18.273  0.00  0.00    +0.000 A 
ATOM     12  F   UNL     1       1.499   9.997  17.355  0.00  0.00    +0.000 F 
ATOM     13  C   UNL     1       2.624   8.016  17.950  0.00  0.00    +0.000 A 
ENDBRANCH   5   6
BRANCH   5  14
ATOM     14  C   UNL     1       3.276   4.614  19.498  0.00  0.00    +0.000 C 
BRANCH  14  15
ATOM     15  C   UNL     1       1.974   3.864  19.164  0.00  0.00    +0.000 C 
BRANCH  15  17
ATOM     16  C   UNL     1       2.099   3.504  21.632  0.00  0.00    +0.000 C 
ATOM     17  C   UNL     1       1.220   3.363  20.395  0.00  0.00    +0.000 C 
ENDBRANCH  15  17
ENDBRANCH  14  15
ENDBRANCH   5  14
ENDBRANCH   1   5
BRANCH   4  18
ATOM     18  C   UNL     1       5.401   4.143  16.359  0.00  0.00    +0.000 C 
BRANCH  18  19
ATOM     19  C   UNL     1       5.916   4.225  14.919  0.00  0.00    +0.000 A 
ATOM     20  C   UNL     1       7.072   4.968  14.623  0.00  0.00    +0.000 A 
ATOM     21  C   UNL     1       7.609   4.981  13.330  0.00  0.00    +0.000 A 
ATOM     22  C   UNL     1       7.005   4.244  12.313  0.00  0.00    +0.000 A 
ATOM     23  C   UNL     1       5.860   3.502  12.591  0.00  0.00    +0.000 A 
ATOM     24 CL   UNL     1       5.131   2.560  11.348  0.00  0.00    +0.000 Cl
ATOM     25  C   UNL     1       5.312   3.496  13.876  0.00  0.00    +0.000 A 
ENDBRANCH  18  19
BRANCH  18  26
ATOM     26  N   UNL     1       3.944   4.022  16.288  0.00  0.00    +0.000 NA
ATOM     27  H   UNL     1       3.636   4.109  15.320  0.00  0.00    +0.000 HD
ATOM     28  H   UNL     1       3.505   4.770  16.803  0.00  0.00    +0.000 HD
ENDBRANCH  18  26
ENDBRANCH   4  18
TORSDOF 8
ENDMDL
MODEL 6
REMARK VINA RESULT:      -7.3      1.206      2.227
REMARK  Name = 
REMARK  9 active torsions:
REMARK  status: ('A' for Active; 'I' for Inactive)
REMARK    1  A    between atoms: C_1  and  C_2
REMARK    2  A    between atoms: C_2  and  C_3
REMARK    3  A    between atoms: C_3  and  C_4
REMARK    4  A    between atoms: C_4  and  C_5
REMARK    5  A    between atoms: C_5  and  C_6
REMARK    6  A    between atoms: C_5  and  N_14
REMARK    7  A    between atoms: C_17  and  C_18
REMARK    8  A    between atoms: C_18  and  N_19
REMARK    9  A    between atoms: C_18  and  C_20
REMARK                            x       y       z     vdW  Elec       q    Type
REMARK                         _______ _______ _______ _____ _____    ______ ____
ROOT
ATOM      1  N   UNL     1       5.212   5.677  18.304  0.00  0.00    +0.000 NA
ATOM      2  C   UNL     1       6.000   4.681  19.069  0.00  0.00    +0.000 C 
ATOM      3  C   UNL     1       7.096   4.823  18.004  0.00  0.00    +0.000 C 
ATOM      4  C   UNL     1       5.927   5.222  17.045  0.00  0.00    +0.000 C 
ENDROOT
BRANCH   1   5
ATOM      5  C   UNL     1       3.765   5.474  18.444  0.00  0.00    +0.000 C 
BRANCH   5   6
ATOM      6  C   UNL     1       3.040   6.760  18.856  0.00  0.00    +0.000 A 
ATOM      7  C   UNL     1       2.318   6.832  20.063  0.00  0.00    +0.000 A 
ATOM      8  C   UNL     1       1.445   7.893  20.299  0.00  0.00    +0.000 A 
ATOM      9  F   UNL     1       0.698   7.893  21.411  0.00  0.00    +0.000 F 
ATOM     10  C   UNL     1       1.291   8.918  19.378  0.00  0.00    +0.000 A 
ATOM     11  C   UNL     1       2.033   8.875  18.207  0.00  0.00    +0.000 A 
ATOM     12  F   UNL     1       1.885   9.846  17.297  0.00  0.00    +0.000 F 
ATOM     13  C   UNL     1       2.884   7.811  17.934  0.00  0.00    +0.000 A 
ENDBRANCH   5   6
BRANCH   5  14
ATOM     14  C   UNL     1       3.469   4.413  19.572  0.00  0.00    +0.000 C 
BRANCH  14  15
ATOM     15  C   UNL     1       2.742   3.166  19.042  0.00  0.00    +0.000 C 
BRANCH  15  17
ATOM     16  C   UNL     1       1.322   3.505  21.067  0.00  0.00    +0.000 C 
ATOM     17  C   UNL     1       1.353   2.960  19.644  0.00  0.00    +0.000 C 
ENDBRANCH  15  17
ENDBRANCH  14  15
ENDBRANCH   5  14
ENDBRANCH   1   5
BRANCH   4  18
ATOM     18  C   UNL     1       5.412   4.043  16.164  0.00  0.00    +0.000 C 
BRANCH  18  19
ATOM     19  C   UNL     1       6.043   4.088  14.769  0.00  0.00    +0.000 A 
ATOM     20  C   UNL     1       5.454   3.382  13.705  0.00  0.00    +0.000 A 
ATOM     21  C   UNL     1       5.964   3.483  12.405  0.00  0.00    +0.000 A 
ATOM     22  C   UNL     1       7.064   4.298  12.145  0.00  0.00    +0.000 A 
ATOM     23  C   UNL     1       7.656   5.003  13.188  0.00  0.00    +0.000 A 
ATOM     24 CL   UNL     1       8.992   6.041  12.866  0.00  0.00    +0.000 Cl
ATOM     25  C   UNL     1       7.161   4.897  14.490  0.00  0.00    +0.000 A 
ENDBRANCH  18  19
BRANCH  18  26
ATOM     26  N   UNL     1       3.960   4.062  15.979  0.00  0.00    +0.000 NA
ATOM     27  H   UNL     1       3.602   3.108  15.950  0.00  0.00    +0.000 HD
ATOM     28  H   UNL     1       3.724   4.490  15.097  0.00  0.00    +0.000 HD
ENDBRANCH  18  26
ENDBRANCH   4  18
TORSDOF 8
ENDMDL
MODEL 7
REMARK VINA RESULT:      -7.0      2.663      5.393
REMARK  Name = 
REMARK  9 active torsions:
REMARK  status: ('A' for Active; 'I' for Inactive)
REMARK    1  A    between atoms: C_1  and  C_2
REMARK    2  A    between atoms: C_2  and  C_3
REMARK    3  A    between atoms: C_3  and  C_4
REMARK    4  A    between atoms: C_4  and  C_5
REMARK    5  A    between atoms: C_5  and  C_6
REMARK    6  A    between atoms: C_5  and  N_14
REMARK    7  A    between atoms: C_17  and  C_18
REMARK    8  A    between atoms: C_18  and  N_19
REMARK    9  A    between atoms: C_18  and  C_20
REMARK                            x       y       z     vdW  Elec       q    Type
REMARK                         _______ _______ _______ _____ _____    ______ ____
ROOT
ATOM      1  N   UNL     1       5.139   5.558  16.266  0.00  0.00    +0.000 NA
ATOM      2  C   UNL     1       6.313   4.890  15.655  0.00  0.00    +0.000 C 
ATOM      3  C   UNL     1       5.330   3.946  14.950  0.00  0.00    +0.000 C 
ATOM      4  C   UNL     1       4.382   4.248  16.157  0.00  0.00    +0.000 C 
ENDROOT
BRANCH   1   5
ATOM      5  C   UNL     1       5.442   6.127  17.585  0.00  0.00    +0.000 C 
BRANCH   5   6
ATOM      6  C   UNL     1       4.236   6.854  18.189  0.00  0.00    +0.000 A 
ATOM      7  C   UNL     1       3.585   6.354  19.334  0.00  0.00    +0.000 A 
ATOM      8  C   UNL     1       2.341   6.855  19.712  0.00  0.00    +0.000 A 
ATOM      9  F   UNL     1       1.697   6.301  20.748  0.00  0.00    +0.000 F 
ATOM     10  C   UNL     1       1.729   7.878  19.001  0.00  0.00    +0.000 A 
ATOM     11  C   UNL     1       2.386   8.403  17.899  0.00  0.00    +0.000 A 
ATOM     12  F   UNL     1       1.804   9.379  17.189  0.00  0.00    +0.000 F 
ATOM     13  C   UNL     1       3.611   7.898  17.483  0.00  0.00    +0.000 A 
ENDBRANCH   5   6
BRANCH   5  14
ATOM     14  C   UNL     1       6.595   7.195  17.468  0.00  0.00    +0.000 C 
BRANCH  14  15
ATOM     15  C   UNL     1       7.798   6.875  18.373  0.00  0.00    +0.000 C 
BRANCH  15  17
ATOM     16  C   UNL     1       8.805   5.331  20.058  0.00  0.00    +0.000 C 
ATOM     17  C   UNL     1       7.500   5.827  19.444  0.00  0.00    +0.000 C 
ENDBRANCH  15  17
ENDBRANCH  14  15
ENDBRANCH   5  14
ENDBRANCH   1   5
BRANCH   4  18
ATOM     18  C   UNL     1       4.421   3.157  17.270  0.00  0.00    +0.000 C 
BRANCH  18  19
ATOM     19  C   UNL     1       3.171   3.232  18.151  0.00  0.00    +0.000 A 
ATOM     20  C   UNL     1       1.924   3.551  17.584  0.00  0.00    +0.000 A 
ATOM     21  C   UNL     1       0.757   3.536  18.357  0.00  0.00    +0.000 A 
ATOM     22  C   UNL     1       0.813   3.191  19.706  0.00  0.00    +0.000 A 
ATOM     23  C   UNL     1       2.040   2.871  20.280  0.00  0.00    +0.000 A 
ATOM     24 CL   UNL     1       2.110   2.408  21.938  0.00  0.00    +0.000 Cl
ATOM     25  C   UNL     1       3.211   2.898  19.519  0.00  0.00    +0.000 A 
ENDBRANCH  18  19
BRANCH  18  26
ATOM     26  N   UNL     1       5.579   3.288  18.155  0.00  0.00    +0.000 NA
ATOM     27  H   UNL     1       6.438   3.147  17.625  0.00  0.00    +0.000 HD
ATOM     28  H   UNL     1       5.556   2.577  18.870  0.00  0.00    +0.000 HD
ENDBRANCH  18  26
ENDBRANCH   4  18
TORSDOF 8
ENDMDL
MODEL 8
REMARK VINA RESULT:      -6.9      4.126      7.958
REMARK  Name = 
REMARK  9 active torsions:
REMARK  status: ('A' for Active; 'I' for Inactive)
REMARK    1  A    between atoms: C_1  and  C_2
REMARK    2  A    between atoms: C_2  and  C_3
REMARK    3  A    between atoms: C_3  and  C_4
REMARK    4  A    between atoms: C_4  and  C_5
REMARK    5  A    between atoms: C_5  and  C_6
REMARK    6  A    between atoms: C_5  and  N_14
REMARK    7  A    between atoms: C_17  and  C_18
REMARK    8  A    between atoms: C_18  and  N_19
REMARK    9  A    between atoms: C_18  and  C_20
REMARK                            x       y       z     vdW  Elec       q    Type
REMARK                         _______ _______ _______ _____ _____    ______ ____
ROOT
ATOM      1  N   UNL     1       3.112   7.259  18.424  0.00  0.00    +0.000 NA
ATOM      2  C   UNL     1       2.065   7.452  17.392  0.00  0.00    +0.000 C 
ATOM      3  C   UNL     1       1.789   8.825  18.021  0.00  0.00    +0.000 C 
ATOM      4  C   UNL     1       2.330   8.182  19.340  0.00  0.00    +0.000 C 
ENDROOT
BRANCH   1   5
ATOM      5  C   UNL     1       3.292   5.846  18.782  0.00  0.00    +0.000 C 
BRANCH   5   6
ATOM      6  C   UNL     1       4.631   5.291  18.283  0.00  0.00    +0.000 A 
ATOM      7  C   UNL     1       5.808   5.448  19.039  0.00  0.00    +0.000 A 
ATOM      8  C   UNL     1       7.053   5.192  18.466  0.00  0.00    +0.000 A 
ATOM      9  F   UNL     1       8.164   5.437  19.173  0.00  0.00    +0.000 F 
ATOM     10  C   UNL     1       7.165   4.744  17.158  0.00  0.00    +0.000 A 
ATOM     11  C   UNL     1       6.006   4.546  16.423  0.00  0.00    +0.000 A 
ATOM     12  F   UNL     1       6.094   4.131  15.152  0.00  0.00    +0.000 F 
ATOM     13  C   UNL     1       4.756   4.826  16.962  0.00  0.00    +0.000 A 
ENDBRANCH   5   6
BRANCH   5  14
ATOM     14  C   UNL     1       2.167   4.966  18.114  0.00  0.00    +0.000 C 
BRANCH  14  15
ATOM     15  C   UNL     1       1.962   3.618  18.827  0.00  0.00    +0.000 C 
BRANCH  15  17
ATOM     16  C   UNL     1       1.586   3.150  21.251  0.00  0.00    +0.000 C 
ATOM     17  C   UNL     1       0.949   3.674  19.969  0.00  0.00    +0.000 C 
ENDBRANCH  15  17
ENDBRANCH  14  15
ENDBRANCH   5  14
ENDBRANCH   1   5
BRANCH   4  18
ATOM     18  C   UNL     1       1.207   7.671  20.292  0.00  0.00    +0.000 C 
BRANCH  18  19
ATOM     19  C   UNL     1       0.483   8.843  20.961  0.00  0.00    +0.000 A 
ATOM     20  C   UNL     1       0.418   8.927  22.363  0.00  0.00    +0.000 A 
ATOM     21  C   UNL     1      -0.160  10.036  22.992  0.00  0.00    +0.000 A 
ATOM     22  C   UNL     1      -0.675  11.084  22.232  0.00  0.00    +0.000 A 
ATOM     23  C   UNL     1      -0.617  11.015  20.843  0.00  0.00    +0.000 A 
ATOM     24 CL   UNL     1      -1.217  12.325  19.899  0.00  0.00    +0.000 Cl
ATOM     25  C   UNL     1      -0.053   9.906  20.208  0.00  0.00    +0.000 A 
ENDBRANCH  18  19
BRANCH  18  26
ATOM     26  N   UNL     1       1.715   6.813  21.364  0.00  0.00    +0.000 NA
ATOM     27  H   UNL     1       0.952   6.543  21.983  0.00  0.00    +0.000 HD
ATOM     28  H   UNL     1       2.385   7.315  21.926  0.00  0.00    +0.000 HD
ENDBRANCH  18  26
ENDBRANCH   4  18
TORSDOF 8
ENDMDL
MODEL 9
REMARK VINA RESULT:      -6.9      2.380      5.237
REMARK  Name = 
REMARK  9 active torsions:
REMARK  status: ('A' for Active; 'I' for Inactive)
REMARK    1  A    between atoms: C_1  and  C_2
REMARK    2  A    between atoms: C_2  and  C_3
REMARK    3  A    between atoms: C_3  and  C_4
REMARK    4  A    between atoms: C_4  and  C_5
REMARK    5  A    between atoms: C_5  and  C_6
REMARK    6  A    between atoms: C_5  and  N_14
REMARK    7  A    between atoms: C_17  and  C_18
REMARK    8  A    between atoms: C_18  and  N_19
REMARK    9  A    between atoms: C_18  and  C_20
REMARK                            x       y       z     vdW  Elec       q    Type
REMARK                         _______ _______ _______ _____ _____    ______ ____
ROOT
ATOM      1  N   UNL     1       4.975   5.437  16.304  0.00  0.00    +0.000 NA
ATOM      2  C   UNL     1       6.254   5.094  15.635  0.00  0.00    +0.000 C 
ATOM      3  C   UNL     1       5.612   3.760  15.232  0.00  0.00    +0.000 C 
ATOM      4  C   UNL     1       4.724   3.954  16.505  0.00  0.00    +0.000 C 
ENDROOT
BRANCH   1   5
ATOM      5  C   UNL     1       5.168   6.316  17.464  0.00  0.00    +0.000 C 
BRANCH   5   6
ATOM      6  C   UNL     1       3.842   6.876  17.989  0.00  0.00    +0.000 A 
ATOM      7  C   UNL     1       3.300   8.068  17.470  0.00  0.00    +0.000 A 
ATOM      8  C   UNL     1       2.255   8.712  18.129  0.00  0.00    +0.000 A 
ATOM      9  F   UNL     1       1.818   9.892  17.671  0.00  0.00    +0.000 F 
ATOM     10  C   UNL     1       1.696   8.184  19.284  0.00  0.00    +0.000 A 
ATOM     11  C   UNL     1       2.197   6.987  19.775  0.00  0.00    +0.000 A 
ATOM     12  F   UNL     1       1.683   6.470  20.899  0.00  0.00    +0.000 F 
ATOM     13  C   UNL     1       3.260   6.344  19.154  0.00  0.00    +0.000 A 
ENDBRANCH   5   6
BRANCH   5  14
ATOM     14  C   UNL     1       6.053   7.559  17.067  0.00  0.00    +0.000 C 
BRANCH  14  15
ATOM     15  C   UNL     1       7.558   7.304  17.254  0.00  0.00    +0.000 C 
BRANCH  15  17
ATOM     16  C   UNL     1       8.476   9.445  18.154  0.00  0.00    +0.000 C 
ATOM     17  C   UNL     1       8.151   7.993  18.483  0.00  0.00    +0.000 C 
ENDBRANCH  15  17
ENDBRANCH  14  15
ENDBRANCH   5  14
ENDBRANCH   1   5
BRANCH   4  18
ATOM     18  C   UNL     1       5.241   3.174  17.752  0.00  0.00    +0.000 C 
BRANCH  18  19
ATOM     19  C   UNL     1       4.095   2.877  18.723  0.00  0.00    +0.000 A 
ATOM     20  C   UNL     1       4.347   2.776  20.103  0.00  0.00    +0.000 A 
ATOM     21  C   UNL     1       3.301   2.595  21.015  0.00  0.00    +0.000 A 
ATOM     22  C   UNL     1       1.984   2.522  20.565  0.00  0.00    +0.000 A 
ATOM     23  C   UNL     1       1.719   2.621  19.203  0.00  0.00    +0.000 A 
ATOM     24 CL   UNL     1       0.090   2.570  18.644  0.00  0.00    +0.000 Cl
ATOM     25  C   UNL     1       2.760   2.788  18.286  0.00  0.00    +0.000 A 
ENDBRANCH  18  19
BRANCH  18  26
ATOM     26  N   UNL     1       6.261   3.909  18.502  0.00  0.00    +0.000 NA
ATOM     27  H   UNL     1       6.227   4.897  18.255  0.00  0.00    +0.000 HD
ATOM     28  H   UNL     1       7.181   3.577  18.260  0.00  0.00    +0.000 HD
ENDBRANCH  18  26
ENDBRANCH   4  18
TORSDOF 8
ENDMDL
