MODEL 1
REMARK VINA RESULT:      -7.7      0.000      0.000
REMARK  Name = 
REMARK  10 active torsions:
REMARK  status: ('A' for Active; 'I' for Inactive)
REMARK    1  A    between atoms: C_1  and  O_2
REMARK    2  A    between atoms: O_2  and  C_3
REMARK    3  A    between atoms: C_6  and  C_7
REMARK    4  A    between atoms: C_7  and  C_8
REMARK    5  A    between atoms: N_17  and  C_18
REMARK    6  A    between atoms: C_18  and  C_19
REMARK    7  A    between atoms: C_22  and  O_23
REMARK    8  A    between atoms: O_23  and  C_24
REMARK    9  A    between atoms: C_24  and  C_25
REMARK   10  A    between atoms: C_25  and  N_26
REMARK                            x       y       z     vdW  Elec       q    Type
REMARK                         _______ _______ _______ _____ _____    ______ ____
ROOT
ATOM      1  C   UNL     1      -1.431  11.950  19.045  0.00  0.00    +0.000 C 
ATOM      2  C   UNL     1      -2.143  12.729  20.158  0.00  0.00    +0.000 C 
ATOM      3  S   UNL     1      -1.403  14.389  20.398  0.00  0.00    +0.000 S 
ATOM      4  C   UNL     1       0.285  14.105  19.840  0.00  0.00    +0.000 A 
ATOM      5  C   UNL     1       1.155  15.204  19.866  0.00  0.00    +0.000 A 
ATOM      6  C   UNL     1       2.478  15.069  19.454  0.00  0.00    +0.000 A 
ATOM      7  C   UNL     1       2.953  13.843  19.008  0.00  0.00    +0.000 A 
ATOM      8  C   UNL     1       2.099  12.747  18.988  0.00  0.00    +0.000 A 
ATOM      9  C   UNL     1       0.764  12.842  19.417  0.00  0.00    +0.000 A 
ATOM     10  N   UNL     1      -0.031  11.686  19.430  0.00  0.00    +0.000 N 
ENDROOT
BRANCH   1  11
ATOM     11  C   UNL     1      -2.181  10.655  18.655  0.00  0.00    +0.000 C 
BRANCH  11  15
ATOM     12  C   UNL     1      -3.426  10.278  14.509  0.00  0.00    +0.000 A 
ATOM     13  C   UNL     1      -4.084  11.173  15.345  0.00  0.00    +0.000 A 
ATOM     14  C   UNL     1      -3.709  11.300  16.683  0.00  0.00    +0.000 A 
ATOM     15  C   UNL     1      -2.655  10.542  17.214  0.00  0.00    +0.000 A 
ATOM     16  C   UNL     1      -2.008   9.632  16.367  0.00  0.00    +0.000 A 
ATOM     17  C   UNL     1      -2.391   9.497  15.027  0.00  0.00    +0.000 A 
BRANCH  12  19
ATOM     18  C   UNL     1      -5.052   9.410  13.029  0.00  0.00    +0.000 C 
ATOM     19  O   UNL     1      -3.905  10.224  13.230  0.00  0.00    +0.000 OA
ENDBRANCH  12  19
ENDBRANCH  11  15
ENDBRANCH   1  11
BRANCH  10  20
ATOM     20  C   UNL     1       0.264  10.575  20.376  0.00  0.00    +0.000 C 
BRANCH  20  21
ATOM     21  C   UNL     1       0.939   9.372  19.763  0.00  0.00    +0.000 A 
ATOM     22  C   UNL     1       1.323   8.324  20.601  0.00  0.00    +0.000 A 
ATOM     23  C   UNL     1       2.169   7.333  20.133  0.00  0.00    +0.000 A 
ATOM     24  C   UNL     1       2.596   7.322  18.800  0.00  0.00    +0.000 A 
ATOM     25  C   UNL     1       2.110   8.296  17.925  0.00  0.00    +0.000 A 
ATOM     26  C   UNL     1       1.287   9.323  18.405  0.00  0.00    +0.000 A 
BRANCH  24  27
ATOM     27  O   UNL     1       3.500   6.414  18.286  0.00  0.00    +0.000 OA
BRANCH  27  28
ATOM     28  C   UNL     1       3.699   5.304  19.168  0.00  0.00    +0.000 C 
BRANCH  28  29
ATOM     29  C   UNL     1       3.799   3.954  18.459  0.00  0.00    +0.000 C 
BRANCH  29  30
ATOM     30  N   UNL     1       5.070   3.832  17.701  0.00  0.00    +0.000 NA
ATOM     31  C   UNL     1       4.833   4.105  16.276  0.00  0.00    +0.000 C 
ATOM     32  C   UNL     1       6.108   3.948  15.448  0.00  0.00    +0.000 C 
ATOM     33  C   UNL     1       7.232   4.827  15.982  0.00  0.00    +0.000 C 
ATOM     34  C   UNL     1       7.446   4.550  17.461  0.00  0.00    +0.000 C 
ATOM     35  C   UNL     1       6.140   4.688  18.242  0.00  0.00    +0.000 C 
ENDBRANCH  29  30
ENDBRANCH  28  29
ENDBRANCH  27  28
ENDBRANCH  24  27
ENDBRANCH  20  21
ENDBRANCH  10  20
TORSDOF 9
ENDMDL
MODEL 2
REMARK VINA RESULT:      -7.5      1.238      2.087
REMARK  Name = 
REMARK  10 active torsions:
REMARK  status: ('A' for Active; 'I' for Inactive)
REMARK    1  A    between atoms: C_1  and  O_2
REMARK    2  A    between atoms: O_2  and  C_3
REMARK    3  A    between atoms: C_6  and  C_7
REMARK    4  A    between atoms: C_7  and  C_8
REMARK    5  A    between atoms: N_17  and  C_18
REMARK    6  A    between atoms: C_18  and  C_19
REMARK    7  A    between atoms: C_22  and  O_23
REMARK    8  A    between atoms: O_23  and  C_24
REMARK    9  A    between atoms: C_24  and  C_25
REMARK   10  A    between atoms: C_25  and  N_26
REMARK                            x       y       z     vdW  Elec       q    Type
REMARK                         _______ _______ _______ _____ _____    ______ ____
ROOT
ATOM      1  C   UNL     1      -1.348  13.361  19.775  0.00  0.00    +0.000 C 
ATOM      2  C   UNL     1      -1.783  14.503  20.701  0.00  0.00    +0.000 C 
ATOM      3  S   UNL     1      -0.737  15.992  20.473  0.00  0.00    +0.000 S 
ATOM      4  C   UNL     1       0.802  15.254  19.897  0.00  0.00    +0.000 A 
ATOM      5  C   UNL     1       1.851  16.133  19.594  0.00  0.00    +0.000 A 
ATOM      6  C   UNL     1       3.076  15.645  19.146  0.00  0.00    +0.000 A 
ATOM      7  C   UNL     1       3.273  14.278  18.991  0.00  0.00    +0.000 A 
ATOM      8  C   UNL     1       2.240  13.401  19.299  0.00  0.00    +0.000 A 
ATOM      9  C   UNL     1       0.999  13.858  19.774  0.00  0.00    +0.000 A 
ATOM     10  N   UNL     1       0.017  12.920  20.125  0.00  0.00    +0.000 N 
ENDROOT
BRANCH   1  11
ATOM     11  C   UNL     1      -2.355  12.187  19.769  0.00  0.00    +0.000 C 
BRANCH  11  15
ATOM     12  C   UNL     1      -3.753  10.698  15.934  0.00  0.00    +0.000 A 
ATOM     13  C   UNL     1      -2.389  10.784  16.181  0.00  0.00    +0.000 A 
ATOM     14  C   UNL     1      -1.917  11.271  17.400  0.00  0.00    +0.000 A 
ATOM     15  C   UNL     1      -2.804  11.674  18.409  0.00  0.00    +0.000 A 
ATOM     16  C   UNL     1      -4.178  11.598  18.145  0.00  0.00    +0.000 A 
ATOM     17  C   UNL     1      -4.652  11.118  16.918  0.00  0.00    +0.000 A 
BRANCH  12  19
ATOM     18  C   UNL     1      -3.006   9.819  13.870  0.00  0.00    +0.000 C 
ATOM     19  O   UNL     1      -4.089  10.233  14.694  0.00  0.00    +0.000 OA
ENDBRANCH  12  19
ENDBRANCH  11  15
ENDBRANCH   1  11
BRANCH  10  20
ATOM     20  C   UNL     1       0.211  12.023  21.298  0.00  0.00    +0.000 C 
BRANCH  20  21
ATOM     21  C   UNL     1       0.832  10.684  20.987  0.00  0.00    +0.000 A 
ATOM     22  C   UNL     1       1.000  10.322  19.649  0.00  0.00    +0.000 A 
ATOM     23  C   UNL     1       1.314   9.016  19.316  0.00  0.00    +0.000 A 
ATOM     24  C   UNL     1       1.540   8.055  20.309  0.00  0.00    +0.000 A 
ATOM     25  C   UNL     1       1.500   8.443  21.649  0.00  0.00    +0.000 A 
ATOM     26  C   UNL     1       1.141   9.753  21.990  0.00  0.00    +0.000 A 
BRANCH  24  27
ATOM     27  O   UNL     1       1.778   6.719  20.051  0.00  0.00    +0.000 OA
BRANCH  27  28
ATOM     28  C   UNL     1       2.733   6.542  18.999  0.00  0.00    +0.000 C 
BRANCH  28  29
ATOM     29  C   UNL     1       3.933   5.678  19.385  0.00  0.00    +0.000 C 
BRANCH  29  30
ATOM     30  N   UNL     1       4.986   5.715  18.338  0.00  0.00    +0.000 NA
ATOM     31  C   UNL     1       5.936   4.613  18.543  0.00  0.00    +0.000 C 
ATOM     32  C   UNL     1       7.066   4.637  17.513  0.00  0.00    +0.000 C 
ATOM     33  C   UNL     1       6.522   4.618  16.090  0.00  0.00    +0.000 C 
ATOM     34  C   UNL     1       5.523   5.748  15.903  0.00  0.00    +0.000 C 
ATOM     35  C   UNL     1       4.432   5.701  16.972  0.00  0.00    +0.000 C 
ENDBRANCH  29  30
ENDBRANCH  28  29
ENDBRANCH  27  28
ENDBRANCH  24  27
ENDBRANCH  20  21
ENDBRANCH  10  20
TORSDOF 9
ENDMDL
MODEL 3
REMARK VINA RESULT:      -7.5      3.134      5.712
REMARK  Name = 
REMARK  10 active torsions:
REMARK  status: ('A' for Active; 'I' for Inactive)
REMARK    1  A    between atoms: C_1  and  O_2
REMARK    2  A    between atoms: O_2  and  C_3
REMARK    3  A    between atoms: C_6  and  C_7
REMARK    4  A    between atoms: C_7  and  C_8
REMARK    5  A    between atoms: N_17  and  C_18
REMARK    6  A    between atoms: C_18  and  C_19
REMARK    7  A    between atoms: C_22  and  O_23
REMARK    8  A    between atoms: O_23  and  C_24
REMARK    9  A    between atoms: C_24  and  C_25
REMARK   10  A    between atoms: C_25  and  N_26
REMARK                            x       y       z     vdW  Elec       q    Type
REMARK                         _______ _______ _______ _____ _____    ______ ____
ROOT
ATOM      1  C   UNL     1       1.014  12.818  19.249  0.00  0.00    +0.000 C 
ATOM      2  C   UNL     1      -0.273  13.492  18.757  0.00  0.00    +0.000 C 
ATOM      3  S   UNL     1      -1.507  13.652  20.103  0.00  0.00    +0.000 S 
ATOM      4  C   UNL     1      -1.046  12.274  21.167  0.00  0.00    +0.000 A 
ATOM      5  C   UNL     1      -1.791  12.104  22.342  0.00  0.00    +0.000 A 
ATOM      6  C   UNL     1      -1.502  11.061  23.218  0.00  0.00    +0.000 A 
ATOM      7  C   UNL     1      -0.469  10.176  22.940  0.00  0.00    +0.000 A 
ATOM      8  C   UNL     1       0.268  10.333  21.772  0.00  0.00    +0.000 A 
ATOM      9  C   UNL     1      -0.011  11.361  20.855  0.00  0.00    +0.000 A 
ATOM     10  N   UNL     1       0.729  11.431  19.666  0.00  0.00    +0.000 N 
ENDROOT
BRANCH   1  11
ATOM     11  C   UNL     1       2.156  12.890  18.208  0.00  0.00    +0.000 C 
BRANCH  11  15
ATOM     12  C   UNL     1       4.883  16.264  18.441  0.00  0.00    +0.000 A 
ATOM     13  C   UNL     1       3.514  16.482  18.523  0.00  0.00    +0.000 A 
ATOM     14  C   UNL     1       2.619  15.414  18.437  0.00  0.00    +0.000 A 
ATOM     15  C   UNL     1       3.077  14.098  18.279  0.00  0.00    +0.000 A 
ATOM     16  C   UNL     1       4.459  13.891  18.183  0.00  0.00    +0.000 A 
ATOM     17  C   UNL     1       5.357  14.962  18.258  0.00  0.00    +0.000 A 
BRANCH  12  19
ATOM     18  C   UNL     1       7.045  17.184  18.710  0.00  0.00    +0.000 C 
ATOM     19  O   UNL     1       5.653  17.391  18.508  0.00  0.00    +0.000 OA
ENDBRANCH  12  19
ENDBRANCH  11  15
ENDBRANCH   1  11
BRANCH  10  20
ATOM     20  C   UNL     1       0.591  10.375  18.625  0.00  0.00    +0.000 C 
BRANCH  20  21
ATOM     21  C   UNL     1       1.494   9.178  18.800  0.00  0.00    +0.000 A 
ATOM     22  C   UNL     1       2.319   8.804  17.738  0.00  0.00    +0.000 A 
ATOM     23  C   UNL     1       2.959   7.577  17.754  0.00  0.00    +0.000 A 
ATOM     24  C   UNL     1       2.852   6.724  18.858  0.00  0.00    +0.000 A 
ATOM     25  C   UNL     1       2.133   7.150  19.976  0.00  0.00    +0.000 A 
ATOM     26  C   UNL     1       1.450   8.372  19.947  0.00  0.00    +0.000 A 
BRANCH  24  27
ATOM     27  O   UNL     1       3.396   5.455  18.909  0.00  0.00    +0.000 OA
BRANCH  27  28
ATOM     28  C   UNL     1       4.740   5.472  19.401  0.00  0.00    +0.000 C 
BRANCH  28  29
ATOM     29  C   UNL     1       5.676   4.494  18.693  0.00  0.00    +0.000 C 
BRANCH  29  30
ATOM     30  N   UNL     1       5.818   4.827  17.252  0.00  0.00    +0.000 NA
ATOM     31  C   UNL     1       7.210   4.632  16.827  0.00  0.00    +0.000 C 
ATOM     32  C   UNL     1       7.413   5.006  15.358  0.00  0.00    +0.000 C 
ATOM     33  C   UNL     1       6.462   4.236  14.450  0.00  0.00    +0.000 C 
ATOM     34  C   UNL     1       5.030   4.429  14.920  0.00  0.00    +0.000 C 
ATOM     35  C   UNL     1       4.883   4.073  16.398  0.00  0.00    +0.000 C 
ENDBRANCH  29  30
ENDBRANCH  28  29
ENDBRANCH  27  28
ENDBRANCH  24  27
ENDBRANCH  20  21
ENDBRANCH  10  20
TORSDOF 9
ENDMDL
MODEL 4
REMARK VINA RESULT:      -7.4      3.081      5.798
REMARK  Name = 
REMARK  10 active torsions:
REMARK  status: ('A' for Active; 'I' for Inactive)
REMARK    1  A    between atoms: C_1  and  O_2
REMARK    2  A    between atoms: O_2  and  C_3
REMARK    3  A    between atoms: C_6  and  C_7
REMARK    4  A    between atoms: C_7  and  C_8
REMARK    5  A    between atoms: N_17  and  C_18
REMARK    6  A    between atoms: C_18  and  C_19
REMARK    7  A    between atoms: C_22  and  O_23
REMARK    8  A    between atoms: O_23  and  C_24
REMARK    9  A    between atoms: C_24  and  C_25
REMARK   10  A    between atoms: C_25  and  N_26
REMARK                            x       y       z     vdW  Elec       q    Type
REMARK                         _______ _______ _______ _____ _____    ______ ____
ROOT
ATOM      1  C   UNL     1       0.810  13.197  19.574  0.00  0.00    +0.000 C 
ATOM      2  C   UNL     1      -0.379  13.967  18.987  0.00  0.00    +0.000 C 
ATOM      3  S   UNL     1      -1.690  14.239  20.239  0.00  0.00    +0.000 S 
ATOM      4  C   UNL     1      -1.421  12.839  21.339  0.00  0.00    +0.000 A 
ATOM      5  C   UNL     1      -2.260  12.741  22.457  0.00  0.00    +0.000 A 
ATOM      6  C   UNL     1      -2.121  11.687  23.357  0.00  0.00    +0.000 A 
ATOM      7  C   UNL     1      -1.145  10.718  23.157  0.00  0.00    +0.000 A 
ATOM      8  C   UNL     1      -0.315  10.805  22.046  0.00  0.00    +0.000 A 
ATOM      9  C   UNL     1      -0.443  11.843  21.107  0.00  0.00    +0.000 A 
ATOM     10  N   UNL     1       0.384  11.841  19.974  0.00  0.00    +0.000 N 
ENDROOT
BRANCH   1  11
ATOM     11  C   UNL     1       2.026  13.166  18.618  0.00  0.00    +0.000 C 
BRANCH  11  15
ATOM     12  C   UNL     1       4.735  16.548  18.936  0.00  0.00    +0.000 A 
ATOM     13  C   UNL     1       5.126  15.420  18.226  0.00  0.00    +0.000 A 
ATOM     14  C   UNL     1       4.277  14.317  18.122  0.00  0.00    +0.000 A 
ATOM     15  C   UNL     1       3.008  14.324  18.718  0.00  0.00    +0.000 A 
ATOM     16  C   UNL     1       2.629  15.460  19.445  0.00  0.00    +0.000 A 
ATOM     17  C   UNL     1       3.484  16.563  19.558  0.00  0.00    +0.000 A 
BRANCH  12  19
ATOM     18  C   UNL     1       5.926  18.087  20.279  0.00  0.00    +0.000 C 
ATOM     19  O   UNL     1       5.665  17.548  18.990  0.00  0.00    +0.000 OA
ENDBRANCH  12  19
ENDBRANCH  11  15
ENDBRANCH   1  11
BRANCH  10  20
ATOM     20  C   UNL     1       0.237  10.790  18.930  0.00  0.00    +0.000 C 
BRANCH  20  21
ATOM     21  C   UNL     1       1.149   9.597  19.086  0.00  0.00    +0.000 A 
ATOM     22  C   UNL     1       1.896   9.181  17.983  0.00  0.00    +0.000 A 
ATOM     23  C   UNL     1       2.535   7.954  17.999  0.00  0.00    +0.000 A 
ATOM     24  C   UNL     1       2.506   7.142  19.140  0.00  0.00    +0.000 A 
ATOM     25  C   UNL     1       1.868   7.612  20.289  0.00  0.00    +0.000 A 
ATOM     26  C   UNL     1       1.186   8.835  20.263  0.00  0.00    +0.000 A 
BRANCH  24  27
ATOM     27  O   UNL     1       3.051   5.875  19.200  0.00  0.00    +0.000 OA
BRANCH  27  28
ATOM     28  C   UNL     1       2.748   5.108  18.029  0.00  0.00    +0.000 C 
BRANCH  28  29
ATOM     29  C   UNL     1       3.577   3.832  17.887  0.00  0.00    +0.000 C 
BRANCH  29  30
ATOM     30  N   UNL     1       4.895   4.109  17.262  0.00  0.00    +0.000 NA
ATOM     31  C   UNL     1       4.766   5.195  16.281  0.00  0.00    +0.000 C 
ATOM     32  C   UNL     1       6.093   5.486  15.578  0.00  0.00    +0.000 C 
ATOM     33  C   UNL     1       7.198   5.795  16.579  0.00  0.00    +0.000 C 
ATOM     34  C   UNL     1       7.300   4.674  17.600  0.00  0.00    +0.000 C 
ATOM     35  C   UNL     1       5.947   4.399  18.252  0.00  0.00    +0.000 C 
ENDBRANCH  29  30
ENDBRANCH  28  29
ENDBRANCH  27  28
ENDBRANCH  24  27
ENDBRANCH  20  21
ENDBRANCH  10  20
TORSDOF 9
ENDMDL
MODEL 5
REMARK VINA RESULT:      -7.4      3.374      6.234
REMARK  Name = 
REMARK  10 active torsions:
REMARK  status: ('A' for Active; 'I' for Inactive)
REMARK    1  A    between atoms: C_1  and  O_2
REMARK    2  A    between atoms: O_2  and  C_3
REMARK    3  A    between atoms: C_6  and  C_7
REMARK    4  A    between atoms: C_7  and  C_8
REMARK    5  A    between atoms: N_17  and  C_18
REMARK    6  A    between atoms: C_18  and  C_19
REMARK    7  A    between atoms: C_22  and  O_23
REMARK    8  A    between atoms: O_23  and  C_24
REMARK    9  A    between atoms: C_24  and  C_25
REMARK   10  A    between atoms: C_25  and  N_26
REMARK                            x       y       z     vdW  Elec       q    Type
REMARK                         _______ _______ _______ _____ _____    ______ ____
ROOT
ATOM      1  C   UNL     1       1.286  12.761  19.748  0.00  0.00    +0.000 C 
ATOM      2  C   UNL     1       0.093  13.671  19.429  0.00  0.00    +0.000 C 
ATOM      3  S   UNL     1      -1.082  13.758  20.834  0.00  0.00    +0.000 S 
ATOM      4  C   UNL     1      -0.792  12.170  21.632  0.00  0.00    +0.000 A 
ATOM      5  C   UNL     1      -1.531  11.900  22.792  0.00  0.00    +0.000 A 
ATOM      6  C   UNL     1      -1.369  10.693  23.469  0.00  0.00    +0.000 A 
ATOM      7  C   UNL     1      -0.470   9.742  23.004  0.00  0.00    +0.000 A 
ATOM      8  C   UNL     1       0.259  10.000  21.849  0.00  0.00    +0.000 A 
ATOM      9  C   UNL     1       0.104  11.197  21.129  0.00  0.00    +0.000 A 
ATOM     10  N   UNL     1       0.824  11.372  19.938  0.00  0.00    +0.000 N 
ENDROOT
BRANCH   1  11
ATOM     11  C   UNL     1       2.407  12.861  18.686  0.00  0.00    +0.000 C 
BRANCH  11  15
ATOM     12  C   UNL     1       4.930  16.387  18.967  0.00  0.00    +0.000 A 
ATOM     13  C   UNL     1       4.429  15.998  17.730  0.00  0.00    +0.000 A 
ATOM     14  C   UNL     1       3.628  14.862  17.615  0.00  0.00    +0.000 A 
ATOM     15  C   UNL     1       3.297  14.093  18.741  0.00  0.00    +0.000 A 
ATOM     16  C   UNL     1       3.820  14.485  19.981  0.00  0.00    +0.000 A 
ATOM     17  C   UNL     1       4.632  15.619  20.095  0.00  0.00    +0.000 A 
BRANCH  12  19
ATOM     18  C   UNL     1       7.119  17.264  18.793  0.00  0.00    +0.000 C 
ATOM     19  O   UNL     1       5.725  17.498  18.944  0.00  0.00    +0.000 OA
ENDBRANCH  12  19
ENDBRANCH  11  15
ENDBRANCH   1  11
BRANCH  10  20
ATOM     20  C   UNL     1       0.525  10.537  18.742  0.00  0.00    +0.000 C 
BRANCH  20  21
ATOM     21  C   UNL     1       1.350   9.280  18.614  0.00  0.00    +0.000 A 
ATOM     22  C   UNL     1       1.333   8.362  19.665  0.00  0.00    +0.000 A 
ATOM     23  C   UNL     1       2.264   7.339  19.709  0.00  0.00    +0.000 A 
ATOM     24  C   UNL     1       3.189   7.162  18.673  0.00  0.00    +0.000 A 
ATOM     25  C   UNL     1       3.125   8.000  17.558  0.00  0.00    +0.000 A 
ATOM     26  C   UNL     1       2.212   9.060  17.529  0.00  0.00    +0.000 A 
BRANCH  24  27
ATOM     27  O   UNL     1       4.195   6.216  18.688  0.00  0.00    +0.000 OA
BRANCH  27  28
ATOM     28  C   UNL     1       4.150   5.372  17.531  0.00  0.00    +0.000 C 
BRANCH  28  29
ATOM     29  C   UNL     1       3.499   4.012  17.776  0.00  0.00    +0.000 C 
BRANCH  29  30
ATOM     30  N   UNL     1       2.894   3.936  19.130  0.00  0.00    +0.000 NA
ATOM     31  C   UNL     1       1.433   3.825  19.020  0.00  0.00    +0.000 C 
ATOM     32  C   UNL     1       0.761   3.790  20.394  0.00  0.00    +0.000 C 
ATOM     33  C   UNL     1       1.321   2.667  21.259  0.00  0.00    +0.000 C 
ATOM     34  C   UNL     1       2.834   2.783  21.340  0.00  0.00    +0.000 C 
ATOM     35  C   UNL     1       3.457   2.846  19.946  0.00  0.00    +0.000 C 
ENDBRANCH  29  30
ENDBRANCH  28  29
ENDBRANCH  27  28
ENDBRANCH  24  27
ENDBRANCH  20  21
ENDBRANCH  10  20
TORSDOF 9
ENDMDL
MODEL 6
REMARK VINA RESULT:      -7.4      0.992      1.496
REMARK  Name = 
REMARK  10 active torsions:
REMARK  status: ('A' for Active; 'I' for Inactive)
REMARK    1  A    between atoms: C_1  and  O_2
REMARK    2  A    between atoms: O_2  and  C_3
REMARK    3  A    between atoms: C_6  and  C_7
REMARK    4  A    between atoms: C_7  and  C_8
REMARK    5  A    between atoms: N_17  and  C_18
REMARK    6  A    between atoms: C_18  and  C_19
REMARK    7  A    between atoms: C_22  and  O_23
REMARK    8  A    between atoms: O_23  and  C_24
REMARK    9  A    between atoms: C_24  and  C_25
REMARK   10  A    between atoms: C_25  and  N_26
REMARK                            x       y       z     vdW  Elec       q    Type
REMARK                         _______ _______ _______ _____ _____    ______ ____
ROOT
ATOM      1  C   UNL     1      -2.121  12.335  19.510  0.00  0.00    +0.000 C 
ATOM      2  C   UNL     1      -2.960  12.857  20.683  0.00  0.00    +0.000 C 
ATOM      3  S   UNL     1      -2.619  14.626  21.020  0.00  0.00    +0.000 S 
ATOM      4  C   UNL     1      -0.929  14.779  20.417  0.00  0.00    +0.000 A 
ATOM      5  C   UNL     1      -0.338  16.047  20.501  0.00  0.00    +0.000 A 
ATOM      6  C   UNL     1       0.967  16.251  20.059  0.00  0.00    +0.000 A 
ATOM      7  C   UNL     1       1.700  15.198  19.527  0.00  0.00    +0.000 A 
ATOM      8  C   UNL     1       1.123  13.937  19.448  0.00  0.00    +0.000 A 
ATOM      9  C   UNL     1      -0.183  13.691  19.905  0.00  0.00    +0.000 A 
ATOM     10  N   UNL     1      -0.687  12.383  19.854  0.00  0.00    +0.000 N 
ENDROOT
BRANCH   1  11
ATOM     11  C   UNL     1      -2.562  10.926  19.048  0.00  0.00    +0.000 C 
BRANCH  11  15
ATOM     12  C   UNL     1      -3.259  10.362  14.796  0.00  0.00    +0.000 A 
ATOM     13  C   UNL     1      -4.050  11.255  15.509  0.00  0.00    +0.000 A 
ATOM     14  C   UNL     1      -3.852  11.442  16.878  0.00  0.00    +0.000 A 
ATOM     15  C   UNL     1      -2.846  10.746  17.564  0.00  0.00    +0.000 A 
ATOM     16  C   UNL     1      -2.064   9.836  16.839  0.00  0.00    +0.000 A 
ATOM     17  C   UNL     1      -2.269   9.641  15.469  0.00  0.00    +0.000 A 
BRANCH  12  19
ATOM     18  C   UNL     1      -4.749   9.511  13.169  0.00  0.00    +0.000 C 
ATOM     19  O   UNL     1      -3.570  10.245  13.471  0.00  0.00    +0.000 OA
ENDBRANCH  12  19
ENDBRANCH  11  15
ENDBRANCH   1  11
BRANCH  10  20
ATOM     20  C   UNL     1      -0.113  11.316  20.720  0.00  0.00    +0.000 C 
BRANCH  20  21
ATOM     21  C   UNL     1       0.756  10.308  20.007  0.00  0.00    +0.000 A 
ATOM     22  C   UNL     1       1.111  10.555  18.680  0.00  0.00    +0.000 A 
ATOM     23  C   UNL     1       1.675   9.551  17.913  0.00  0.00    +0.000 A 
ATOM     24  C   UNL     1       1.965   8.298  18.468  0.00  0.00    +0.000 A 
ATOM     25  C   UNL     1       1.730   8.089  19.828  0.00  0.00    +0.000 A 
ATOM     26  C   UNL     1       1.122   9.089  20.597  0.00  0.00    +0.000 A 
BRANCH  24  27
ATOM     27  O   UNL     1       2.452   7.227  17.745  0.00  0.00    +0.000 OA
BRANCH  27  28
ATOM     28  C   UNL     1       2.724   6.099  18.583  0.00  0.00    +0.000 C 
BRANCH  28  29
ATOM     29  C   UNL     1       3.253   4.877  17.832  0.00  0.00    +0.000 C 
BRANCH  29  30
ATOM     30  N   UNL     1       4.708   4.689  18.061  0.00  0.00    +0.000 NA
ATOM     31  C   UNL     1       5.443   4.874  16.802  0.00  0.00    +0.000 C 
ATOM     32  C   UNL     1       6.944   4.646  16.981  0.00  0.00    +0.000 C 
ATOM     33  C   UNL     1       7.518   5.540  18.072  0.00  0.00    +0.000 C 
ATOM     34  C   UNL     1       6.731   5.355  19.359  0.00  0.00    +0.000 C 
ATOM     35  C   UNL     1       5.236   5.562  19.125  0.00  0.00    +0.000 C 
ENDBRANCH  29  30
ENDBRANCH  28  29
ENDBRANCH  27  28
ENDBRANCH  24  27
ENDBRANCH  20  21
ENDBRANCH  10  20
TORSDOF 9
ENDMDL
MODEL 7
REMARK VINA RESULT:      -7.3      3.404      4.762
REMARK  Name = 
REMARK  10 active torsions:
REMARK  status: ('A' for Active; 'I' for Inactive)
REMARK    1  A    between atoms: C_1  and  O_2
REMARK    2  A    between atoms: O_2  and  C_3
REMARK    3  A    between atoms: C_6  and  C_7
REMARK    4  A    between atoms: C_7  and  C_8
REMARK    5  A    between atoms: N_17  and  C_18
REMARK    6  A    between atoms: C_18  and  C_19
REMARK    7  A    between atoms: C_22  and  O_23
REMARK    8  A    between atoms: O_23  and  C_24
REMARK    9  A    between atoms: C_24  and  C_25
REMARK   10  A    between atoms: C_25  and  N_26
REMARK                            x       y       z     vdW  Elec       q    Type
REMARK                         _______ _______ _______ _____ _____    ______ ____
ROOT
ATOM      1  C   UNL     1      -1.163  13.741  19.594  0.00  0.00    +0.000 C 
ATOM      2  C   UNL     1      -1.421  14.901  20.563  0.00  0.00    +0.000 C 
ATOM      3  S   UNL     1      -0.475  16.398  20.087  0.00  0.00    +0.000 S 
ATOM      4  C   UNL     1       0.927  15.668  19.224  0.00  0.00    +0.000 A 
ATOM      5  C   UNL     1       1.873  16.553  18.690  0.00  0.00    +0.000 A 
ATOM      6  C   UNL     1       2.988  16.070  18.010  0.00  0.00    +0.000 A 
ATOM      7  C   UNL     1       3.177  14.703  17.851  0.00  0.00    +0.000 A 
ATOM      8  C   UNL     1       2.248  13.820  18.387  0.00  0.00    +0.000 A 
ATOM      9  C   UNL     1       1.122  14.272  19.097  0.00  0.00    +0.000 A 
ATOM     10  N   UNL     1       0.253  13.330  19.666  0.00  0.00    +0.000 N 
ENDROOT
BRANCH   1  11
ATOM     11  C   UNL     1      -2.126  12.552  19.825  0.00  0.00    +0.000 C 
BRANCH  11  15
ATOM     12  C   UNL     1      -4.711  12.750  23.312  0.00  0.00    +0.000 A 
ATOM     13  C   UNL     1      -5.230  13.039  22.055  0.00  0.00    +0.000 A 
ATOM     14  C   UNL     1      -4.415  12.995  20.924  0.00  0.00    +0.000 A 
ATOM     15  C   UNL     1      -3.060  12.646  21.022  0.00  0.00    +0.000 A 
ATOM     16  C   UNL     1      -2.543  12.370  22.295  0.00  0.00    +0.000 A 
ATOM     17  C   UNL     1      -3.358  12.425  23.432  0.00  0.00    +0.000 A 
BRANCH  12  19
ATOM     18  C   UNL     1      -6.974  12.718  23.998  0.00  0.00    +0.000 C 
ATOM     19  O   UNL     1      -5.602  12.857  24.343  0.00  0.00    +0.000 OA
ENDBRANCH  12  19
ENDBRANCH  11  15
ENDBRANCH   1  11
BRANCH  10  20
ATOM     20  C   UNL     1       0.702  12.469  20.795  0.00  0.00    +0.000 C 
BRANCH  20  21
ATOM     21  C   UNL     1       0.852  11.003  20.465  0.00  0.00    +0.000 A 
ATOM     22  C   UNL     1       0.917  10.087  21.516  0.00  0.00    +0.000 A 
ATOM     23  C   UNL     1       1.315   8.783  21.277  0.00  0.00    +0.000 A 
ATOM     24  C   UNL     1       1.588   8.340  19.978  0.00  0.00    +0.000 A 
ATOM     25  C   UNL     1       1.399   9.218  18.909  0.00  0.00    +0.000 A 
ATOM     26  C   UNL     1       1.037  10.549  19.151  0.00  0.00    +0.000 A 
BRANCH  24  27
ATOM     27  O   UNL     1       2.065   7.080  19.675  0.00  0.00    +0.000 OA
BRANCH  27  28
ATOM     28  C   UNL     1       2.865   7.084  18.488  0.00  0.00    +0.000 C 
BRANCH  28  29
ATOM     29  C   UNL     1       3.182   5.692  17.944  0.00  0.00    +0.000 C 
BRANCH  29  30
ATOM     30  N   UNL     1       2.549   4.631  18.768  0.00  0.00    +0.000 NA
ATOM     31  C   UNL     1       1.542   3.913  17.975  0.00  0.00    +0.000 C 
ATOM     32  C   UNL     1       0.831   2.838  18.798  0.00  0.00    +0.000 C 
ATOM     33  C   UNL     1       1.824   1.862  19.416  0.00  0.00    +0.000 C 
ATOM     34  C   UNL     1       2.871   2.622  20.211  0.00  0.00    +0.000 C 
ATOM     35  C   UNL     1       3.532   3.704  19.358  0.00  0.00    +0.000 C 
ENDBRANCH  29  30
ENDBRANCH  28  29
ENDBRANCH  27  28
ENDBRANCH  24  27
ENDBRANCH  20  21
ENDBRANCH  10  20
TORSDOF 9
ENDMDL
MODEL 8
REMARK VINA RESULT:      -7.2      3.276      5.906
REMARK  Name = 
REMARK  10 active torsions:
REMARK  status: ('A' for Active; 'I' for Inactive)
REMARK    1  A    between atoms: C_1  and  O_2
REMARK    2  A    between atoms: O_2  and  C_3
REMARK    3  A    between atoms: C_6  and  C_7
REMARK    4  A    between atoms: C_7  and  C_8
REMARK    5  A    between atoms: N_17  and  C_18
REMARK    6  A    between atoms: C_18  and  C_19
REMARK    7  A    between atoms: C_22  and  O_23
REMARK    8  A    between atoms: O_23  and  C_24
REMARK    9  A    between atoms: C_24  and  C_25
REMARK   10  A    between atoms: C_25  and  N_26
REMARK                            x       y       z     vdW  Elec       q    Type
REMARK                         _______ _______ _______ _____ _____    ______ ____
ROOT
ATOM      1  C   UNL     1       1.181  13.135  19.588  0.00  0.00    +0.000 C 
ATOM      2  C   UNL     1       0.074  13.985  18.953  0.00  0.00    +0.000 C 
ATOM      3  S   UNL     1      -1.281  14.321  20.140  0.00  0.00    +0.000 S 
ATOM      4  C   UNL     1      -1.156  12.893  21.230  0.00  0.00    +0.000 A 
ATOM      5  C   UNL     1      -2.057  12.833  22.302  0.00  0.00    +0.000 A 
ATOM      6  C   UNL     1      -2.029  11.760  23.190  0.00  0.00    +0.000 A 
ATOM      7  C   UNL     1      -1.105  10.736  23.026  0.00  0.00    +0.000 A 
ATOM      8  C   UNL     1      -0.215  10.785  21.960  0.00  0.00    +0.000 A 
ATOM      9  C   UNL     1      -0.230  11.841  21.033  0.00  0.00    +0.000 A 
ATOM     10  N   UNL     1       0.654  11.803  19.944  0.00  0.00    +0.000 N 
ENDROOT
BRANCH   1  11
ATOM     11  C   UNL     1       2.441  13.041  18.696  0.00  0.00    +0.000 C 
BRANCH  11  15
ATOM     12  C   UNL     1       5.229  16.375  18.710  0.00  0.00    +0.000 A 
ATOM     13  C   UNL     1       3.972  16.528  19.283  0.00  0.00    +0.000 A 
ATOM     14  C   UNL     1       3.056  15.475  19.278  0.00  0.00    +0.000 A 
ATOM     15  C   UNL     1       3.383  14.236  18.708  0.00  0.00    +0.000 A 
ATOM     16  C   UNL     1       4.647  14.096  18.120  0.00  0.00    +0.000 A 
ATOM     17  C   UNL     1       5.562  15.155  18.116  0.00  0.00    +0.000 A 
BRANCH  12  19
ATOM     18  C   UNL     1       7.422  17.256  18.656  0.00  0.00    +0.000 C 
ATOM     19  O   UNL     1       6.023  17.486  18.752  0.00  0.00    +0.000 OA
ENDBRANCH  12  19
ENDBRANCH  11  15
ENDBRANCH   1  11
BRANCH  10  20
ATOM     20  C   UNL     1       0.497  10.776  18.877  0.00  0.00    +0.000 C 
BRANCH  20  21
ATOM     21  C   UNL     1       1.217   9.474  19.128  0.00  0.00    +0.000 A 
ATOM     22  C   UNL     1       1.800   8.815  18.045  0.00  0.00    +0.000 A 
ATOM     23  C   UNL     1       2.235   7.507  18.178  0.00  0.00    +0.000 A 
ATOM     24  C   UNL     1       2.166   6.848  19.411  0.00  0.00    +0.000 A 
ATOM     25  C   UNL     1       1.703   7.547  20.528  0.00  0.00    +0.000 A 
ATOM     26  C   UNL     1       1.224   8.856  20.387  0.00  0.00    +0.000 A 
BRANCH  24  27
ATOM     27  O   UNL     1       2.505   5.523  19.599  0.00  0.00    +0.000 OA
BRANCH  27  28
ATOM     28  C   UNL     1       3.924   5.331  19.596  0.00  0.00    +0.000 C 
BRANCH  28  29
ATOM     29  C   UNL     1       4.488   4.858  18.256  0.00  0.00    +0.000 C 
BRANCH  29  30
ATOM     30  N   UNL     1       5.879   5.338  18.054  0.00  0.00    +0.000 NA
ATOM     31  C   UNL     1       5.871   6.585  17.277  0.00  0.00    +0.000 C 
ATOM     32  C   UNL     1       7.288   7.093  17.006  0.00  0.00    +0.000 C 
ATOM     33  C   UNL     1       8.073   7.273  18.299  0.00  0.00    +0.000 C 
ATOM     34  C   UNL     1       8.049   5.983  19.101  0.00  0.00    +0.000 C 
ATOM     35  C   UNL     1       6.616   5.497  19.320  0.00  0.00    +0.000 C 
ENDBRANCH  29  30
ENDBRANCH  28  29
ENDBRANCH  27  28
ENDBRANCH  24  27
ENDBRANCH  20  21
ENDBRANCH  10  20
TORSDOF 9
ENDMDL
MODEL 9
REMARK VINA RESULT:      -7.1      3.320      6.312
REMARK  Name = 
REMARK  10 active torsions:
REMARK  status: ('A' for Active; 'I' for Inactive)
REMARK    1  A    between atoms: C_1  and  O_2
REMARK    2  A    between atoms: O_2  and  C_3
REMARK    3  A    between atoms: C_6  and  C_7
REMARK    4  A    between atoms: C_7  and  C_8
REMARK    5  A    between atoms: N_17  and  C_18
REMARK    6  A    between atoms: C_18  and  C_19
REMARK    7  A    between atoms: C_22  and  O_23
REMARK    8  A    between atoms: O_23  and  C_24
REMARK    9  A    between atoms: C_24  and  C_25
REMARK   10  A    between atoms: C_25  and  N_26
REMARK                            x       y       z     vdW  Elec       q    Type
REMARK                         _______ _______ _______ _____ _____    ______ ____
ROOT
ATOM      1  C   UNL     1       0.913  13.365  19.876  0.00  0.00    +0.000 C 
ATOM      2  C   UNL     1      -0.178  14.315  19.367  0.00  0.00    +0.000 C 
ATOM      3  S   UNL     1      -1.468  14.600  20.638  0.00  0.00    +0.000 S 
ATOM      4  C   UNL     1      -1.365  13.076  21.591  0.00  0.00    +0.000 A 
ATOM      5  C   UNL     1      -2.225  12.958  22.692  0.00  0.00    +0.000 A 
ATOM      6  C   UNL     1      -2.211  11.809  23.481  0.00  0.00    +0.000 A 
ATOM      7  C   UNL     1      -1.342  10.766  23.186  0.00  0.00    +0.000 A 
ATOM      8  C   UNL     1      -0.494  10.873  22.091  0.00  0.00    +0.000 A 
ATOM      9  C   UNL     1      -0.497  12.008  21.262  0.00  0.00    +0.000 A 
ATOM     10  N   UNL     1       0.339  12.030  20.136  0.00  0.00    +0.000 N 
ENDROOT
BRANCH   1  11
ATOM     11  C   UNL     1       2.131  13.299  18.924  0.00  0.00    +0.000 C 
BRANCH  11  15
ATOM     12  C   UNL     1       4.910  16.639  18.960  0.00  0.00    +0.000 A 
ATOM     13  C   UNL     1       4.957  15.696  19.979  0.00  0.00    +0.000 A 
ATOM     14  C   UNL     1       4.066  14.622  19.995  0.00  0.00    +0.000 A 
ATOM     15  C   UNL     1       3.111  14.461  18.980  0.00  0.00    +0.000 A 
ATOM     16  C   UNL     1       3.061  15.427  17.965  0.00  0.00    +0.000 A 
ATOM     17  C   UNL     1       3.948  16.509  17.955  0.00  0.00    +0.000 A 
BRANCH  12  19
ATOM     18  C   UNL     1       6.015  18.170  20.384  0.00  0.00    +0.000 C 
ATOM     19  O   UNL     1       5.814  17.658  19.073  0.00  0.00    +0.000 OA
ENDBRANCH  12  19
ENDBRANCH  11  15
ENDBRANCH   1  11
BRANCH  10  20
ATOM     20  C   UNL     1       0.093  11.111  18.990  0.00  0.00    +0.000 C 
BRANCH  20  21
ATOM     21  C   UNL     1       1.081   9.978  18.852  0.00  0.00    +0.000 A 
ATOM     22  C   UNL     1       1.870   9.919  17.702  0.00  0.00    +0.000 A 
ATOM     23  C   UNL     1       2.590   8.774  17.411  0.00  0.00    +0.000 A 
ATOM     24  C   UNL     1       2.599   7.686  18.292  0.00  0.00    +0.000 A 
ATOM     25  C   UNL     1       1.915   7.791  19.505  0.00  0.00    +0.000 A 
ATOM     26  C   UNL     1       1.152   8.932  19.784  0.00  0.00    +0.000 A 
BRANCH  24  27
ATOM     27  O   UNL     1       3.227   6.484  18.030  0.00  0.00    +0.000 OA
BRANCH  27  28
ATOM     28  C   UNL     1       4.449   6.351  18.764  0.00  0.00    +0.000 C 
BRANCH  28  29
ATOM     29  C   UNL     1       4.535   5.080  19.608  0.00  0.00    +0.000 C 
BRANCH  29  30
ATOM     30  N   UNL     1       3.268   4.306  19.552  0.00  0.00    +0.000 NA
ATOM     31  C   UNL     1       3.557   2.891  19.279  0.00  0.00    +0.000 C 
ATOM     32  C   UNL     1       2.277   2.062  19.167  0.00  0.00    +0.000 C 
ATOM     33  C   UNL     1       1.412   2.202  20.414  0.00  0.00    +0.000 C 
ATOM     34  C   UNL     1       1.145   3.671  20.695  0.00  0.00    +0.000 C 
ATOM     35  C   UNL     1       2.449   4.464  20.766  0.00  0.00    +0.000 C 
ENDBRANCH  29  30
ENDBRANCH  28  29
ENDBRANCH  27  28
ENDBRANCH  24  27
ENDBRANCH  20  21
ENDBRANCH  10  20
TORSDOF 9
ENDMDL
