MODEL 1
REMARK VINA RESULT:      -8.3      0.000      0.000
REMARK  Name = 
REMARK  9 active torsions:
REMARK  status: ('A' for Active; 'I' for Inactive)
REMARK    1  A    between atoms: C_1  and  C_2
REMARK    2  A    between atoms: C_2  and  C_3
REMARK    3  A    between atoms: C_3  and  C_4
REMARK    4  A    between atoms: C_4  and  N_5
REMARK    5  A    between atoms: C_9  and  C_11
REMARK    6  A    between atoms: C_11  and  C_12
REMARK    7  A    between atoms: C_20  and  C_21
REMARK    8  A    between atoms: C_21  and  C_22
REMARK    9  A    between atoms: C_21  and  N_23
REMARK                            x       y       z     vdW  Elec       q    Type
REMARK                         _______ _______ _______ _____ _____    ______ ____
ROOT
ATOM      1  N   UNL     1       5.696   5.692  18.189  0.00  0.00    +0.000 NA
ATOM      2  C   UNL     1       5.147   6.626  17.200  0.00  0.00    +0.000 C 
ATOM      3  C   UNL     1       3.648   7.041  17.311  0.00  0.00    +0.000 C 
ATOM      4  N   UNL     1       3.045   6.826  18.635  0.00  0.00    +0.000 N 
ATOM      5  C   UNL     1       2.223   7.799  19.183  0.00  0.00    +0.000 C 
ATOM      6  O   UNL     1       1.983   8.856  18.592  0.00  0.00    +0.000 OA
ATOM      7  C   UNL     1       3.381   5.517  19.257  0.00  0.00    +0.000 C 
ATOM      8  C   UNL     1       4.917   5.516  19.412  0.00  0.00    +0.000 C 
ENDROOT
BRANCH   7   9
ATOM      9  C   UNL     1       2.767   4.314  18.435  0.00  0.00    +0.000 C 
ATOM     10  C   UNL     1       1.471   4.774  17.732  0.00  0.00    +0.000 C 
BRANCH   9  11
ATOM     11  N   UNL     1       2.644   3.015  19.149  0.00  0.00    +0.000 NA
ATOM     12  C   UNL     1       1.245   2.683  19.480  0.00  0.00    +0.000 C 
ATOM     13  C   UNL     1       1.078   3.018  20.951  0.00  0.00    +0.000 C 
ATOM     14  C   UNL     1       2.408   2.593  21.526  0.00  0.00    +0.000 C 
ATOM     15  C   UNL     1       3.412   2.830  20.391  0.00  0.00    +0.000 C 
ENDBRANCH   9  11
ENDBRANCH   7   9
BRANCH   1  16
ATOM     16  C   UNL     1       6.392   4.505  17.719  0.00  0.00    +0.000 C 
BRANCH  16  17
ATOM     17  C   UNL     1       7.500   4.805  16.693  0.00  0.00    +0.000 C 
BRANCH  17  19
ATOM     18  C   UNL     1       5.954   3.782  14.901  0.00  0.00    +0.000 C 
ATOM     19  C   UNL     1       7.104   4.729  15.211  0.00  0.00    +0.000 C 
ENDBRANCH  17  19
ENDBRANCH  16  17
ENDBRANCH   1  16
BRANCH   5  20
ATOM     20  C   UNL     1       1.601   7.557  20.556  0.00  0.00    +0.000 C 
BRANCH  20  21
ATOM     21  C   UNL     1       0.814   8.721  21.118  0.00  0.00    +0.000 A 
ATOM     22  C   UNL     1       0.721   8.897  22.508  0.00  0.00    +0.000 A 
ATOM     23  C   UNL     1      -0.037   9.941  23.051  0.00  0.00    +0.000 A 
ATOM     24  C   UNL     1      -0.726  10.818  22.213  0.00  0.00    +0.000 A 
ATOM     25 CL   UNL     1      -1.635  12.091  22.943  0.00  0.00    +0.000 Cl
ATOM     26  C   UNL     1      -0.667  10.641  20.828  0.00  0.00    +0.000 A 
ATOM     27 CL   UNL     1      -1.501  11.680  19.723  0.00  0.00    +0.000 Cl
ATOM     28  C   UNL     1       0.090   9.594  20.284  0.00  0.00    +0.000 A 
ENDBRANCH  20  21
ENDBRANCH   5  20
TORSDOF 7
ENDMDL
MODEL 2
REMARK VINA RESULT:      -7.9      1.097      1.338
REMARK  Name = 
REMARK  9 active torsions:
REMARK  status: ('A' for Active; 'I' for Inactive)
REMARK    1  A    between atoms: C_1  and  C_2
REMARK    2  A    between atoms: C_2  and  C_3
REMARK    3  A    between atoms: C_3  and  C_4
REMARK    4  A    between atoms: C_4  and  N_5
REMARK    5  A    between atoms: C_9  and  C_11
REMARK    6  A    between atoms: C_11  and  C_12
REMARK    7  A    between atoms: C_20  and  C_21
REMARK    8  A    between atoms: C_21  and  C_22
REMARK    9  A    between atoms: C_21  and  N_23
REMARK                            x       y       z     vdW  Elec       q    Type
REMARK                         _______ _______ _______ _____ _____    ______ ____
ROOT
ATOM      1  N   UNL     1       6.039   5.903  18.027  0.00  0.00    +0.000 NA
ATOM      2  C   UNL     1       5.647   6.682  16.847  0.00  0.00    +0.000 C 
ATOM      3  C   UNL     1       4.160   7.128  16.702  0.00  0.00    +0.000 C 
ATOM      4  N   UNL     1       3.392   7.127  17.957  0.00  0.00    +0.000 N 
ATOM      5  C   UNL     1       2.541   8.185  18.243  0.00  0.00    +0.000 C 
ATOM      6  O   UNL     1       2.410   9.141  17.474  0.00  0.00    +0.000 OA
ATOM      7  C   UNL     1       3.605   5.925  18.806  0.00  0.00    +0.000 C 
ATOM      8  C   UNL     1       5.110   5.927  19.154  0.00  0.00    +0.000 C 
ENDROOT
BRANCH   7   9
ATOM      9  C   UNL     1       3.058   4.619  18.105  0.00  0.00    +0.000 C 
ATOM     10  C   UNL     1       1.614   4.860  17.612  0.00  0.00    +0.000 C 
BRANCH   9  11
ATOM     11  N   UNL     1       3.246   3.340  18.840  0.00  0.00    +0.000 NA
ATOM     12  C   UNL     1       2.467   2.232  18.253  0.00  0.00    +0.000 C 
ATOM     13  C   UNL     1       1.247   2.069  19.141  0.00  0.00    +0.000 C 
ATOM     14  C   UNL     1       1.820   2.318  20.515  0.00  0.00    +0.000 C 
ATOM     15  C   UNL     1       2.957   3.320  20.283  0.00  0.00    +0.000 C 
ENDBRANCH   9  11
ENDBRANCH   7   9
BRANCH   1  16
ATOM     16  C   UNL     1       6.749   4.649  17.833  0.00  0.00    +0.000 C 
BRANCH  16  17
ATOM     17  C   UNL     1       7.107   4.363  16.364  0.00  0.00    +0.000 C 
BRANCH  17  19
ATOM     18  C   UNL     1       6.034   4.047  14.041  0.00  0.00    +0.000 C 
ATOM     19  C   UNL     1       6.031   3.670  15.515  0.00  0.00    +0.000 C 
ENDBRANCH  17  19
ENDBRANCH  16  17
ENDBRANCH   1  16
BRANCH   5  20
ATOM     20  C   UNL     1       1.747   8.164  19.546  0.00  0.00    +0.000 C 
BRANCH  20  21
ATOM     21  C   UNL     1       0.877   9.380  19.787  0.00  0.00    +0.000 A 
ATOM     22  C   UNL     1       0.832   9.967  21.062  0.00  0.00    +0.000 A 
ATOM     23  C   UNL     1       0.002  11.065  21.318  0.00  0.00    +0.000 A 
ATOM     24  C   UNL     1      -0.806  11.585  20.307  0.00  0.00    +0.000 A 
ATOM     25 CL   UNL     1      -1.800  12.946  20.684  0.00  0.00    +0.000 Cl
ATOM     26  C   UNL     1      -0.794  10.995  19.040  0.00  0.00    +0.000 A 
ATOM     27 CL   UNL     1      -1.776  11.575  17.737  0.00  0.00    +0.000 Cl
ATOM     28  C   UNL     1       0.034   9.894  18.784  0.00  0.00    +0.000 A 
ENDBRANCH  20  21
ENDBRANCH   5  20
TORSDOF 7
ENDMDL
MODEL 3
REMARK VINA RESULT:      -7.8      2.155      4.492
REMARK  Name = 
REMARK  9 active torsions:
REMARK  status: ('A' for Active; 'I' for Inactive)
REMARK    1  A    between atoms: C_1  and  C_2
REMARK    2  A    between atoms: C_2  and  C_3
REMARK    3  A    between atoms: C_3  and  C_4
REMARK    4  A    between atoms: C_4  and  N_5
REMARK    5  A    between atoms: C_9  and  C_11
REMARK    6  A    between atoms: C_11  and  C_12
REMARK    7  A    between atoms: C_20  and  C_21
REMARK    8  A    between atoms: C_21  and  C_22
REMARK    9  A    between atoms: C_21  and  N_23
REMARK                            x       y       z     vdW  Elec       q    Type
REMARK                         _______ _______ _______ _____ _____    ______ ____
ROOT
ATOM      1  N   UNL     1       1.189   3.585  18.876  0.00  0.00    +0.000 NA
ATOM      2  C   UNL     1       1.415   4.072  20.242  0.00  0.00    +0.000 C 
ATOM      3  C   UNL     1       2.179   5.417  20.442  0.00  0.00    +0.000 C 
ATOM      4  N   UNL     1       2.203   6.293  19.260  0.00  0.00    +0.000 N 
ATOM      5  C   UNL     1       1.987   7.655  19.410  0.00  0.00    +0.000 C 
ATOM      6  O   UNL     1       1.766   8.162  20.514  0.00  0.00    +0.000 OA
ATOM      7  C   UNL     1       2.494   5.592  17.982  0.00  0.00    +0.000 C 
ATOM      8  C   UNL     1       1.354   4.565  17.806  0.00  0.00    +0.000 C 
ENDROOT
BRANCH   7   9
ATOM      9  C   UNL     1       3.962   5.006  17.966  0.00  0.00    +0.000 C 
ATOM     10  C   UNL     1       4.691   5.397  19.271  0.00  0.00    +0.000 C 
BRANCH   9  11
ATOM     11  N   UNL     1       4.758   5.236  16.731  0.00  0.00    +0.000 NA
ATOM     12  C   UNL     1       5.651   4.105  16.416  0.00  0.00    +0.000 C 
ATOM     13  C   UNL     1       7.034   4.531  16.874  0.00  0.00    +0.000 C 
ATOM     14  C   UNL     1       7.051   5.996  16.511  0.00  0.00    +0.000 C 
ATOM     15  C   UNL     1       5.593   6.447  16.659  0.00  0.00    +0.000 C 
ENDBRANCH   9  11
ENDBRANCH   7   9
BRANCH   1  16
ATOM     16  C   UNL     1       1.588   2.227  18.543  0.00  0.00    +0.000 C 
BRANCH  16  17
ATOM     17  C   UNL     1       2.957   2.139  17.846  0.00  0.00    +0.000 C 
BRANCH  17  19
ATOM     18  C   UNL     1       4.413   1.934  19.964  0.00  0.00    +0.000 C 
ATOM     19  C   UNL     1       4.061   1.376  18.592  0.00  0.00    +0.000 C 
ENDBRANCH  17  19
ENDBRANCH  16  17
ENDBRANCH   1  16
BRANCH   5  20
ATOM     20  C   UNL     1       2.022   8.551  18.175  0.00  0.00    +0.000 C 
BRANCH  20  21
ATOM     21  C   UNL     1       1.433   9.932  18.366  0.00  0.00    +0.000 A 
ATOM     22  C   UNL     1       0.040  10.096  18.429  0.00  0.00    +0.000 A 
ATOM     23  C   UNL     1      -0.528  11.368  18.562  0.00  0.00    +0.000 A 
ATOM     24  C   UNL     1       0.287  12.499  18.621  0.00  0.00    +0.000 A 
ATOM     25 CL   UNL     1      -0.474  14.039  18.796  0.00  0.00    +0.000 Cl
ATOM     26  C   UNL     1       1.674  12.356  18.532  0.00  0.00    +0.000 A 
ATOM     27 CL   UNL     1       2.752  13.710  18.586  0.00  0.00    +0.000 Cl
ATOM     28  C   UNL     1       2.243  11.082  18.396  0.00  0.00    +0.000 A 
ENDBRANCH  20  21
ENDBRANCH   5  20
TORSDOF 7
ENDMDL
MODEL 4
REMARK VINA RESULT:      -7.7      2.087      4.363
REMARK  Name = 
REMARK  9 active torsions:
REMARK  status: ('A' for Active; 'I' for Inactive)
REMARK    1  A    between atoms: C_1  and  C_2
REMARK    2  A    between atoms: C_2  and  C_3
REMARK    3  A    between atoms: C_3  and  C_4
REMARK    4  A    between atoms: C_4  and  N_5
REMARK    5  A    between atoms: C_9  and  C_11
REMARK    6  A    between atoms: C_11  and  C_12
REMARK    7  A    between atoms: C_20  and  C_21
REMARK    8  A    between atoms: C_21  and  C_22
REMARK    9  A    between atoms: C_21  and  N_23
REMARK                            x       y       z     vdW  Elec       q    Type
REMARK                         _______ _______ _______ _____ _____    ______ ____
ROOT
ATOM      1  N   UNL     1       1.123   3.681  19.074  0.00  0.00    +0.000 NA
ATOM      2  C   UNL     1       1.356   4.213  20.421  0.00  0.00    +0.000 C 
ATOM      3  C   UNL     1       2.138   5.554  20.573  0.00  0.00    +0.000 C 
ATOM      4  N   UNL     1       2.172   6.387  19.361  0.00  0.00    +0.000 N 
ATOM      5  C   UNL     1       1.975   7.756  19.462  0.00  0.00    +0.000 C 
ATOM      6  O   UNL     1       1.761   8.305  20.547  0.00  0.00    +0.000 OA
ATOM      7  C   UNL     1       2.453   5.637  18.108  0.00  0.00    +0.000 C 
ATOM      8  C   UNL     1       1.300   4.620  17.970  0.00  0.00    +0.000 C 
ENDROOT
BRANCH   7   9
ATOM      9  C   UNL     1       3.913   5.032  18.113  0.00  0.00    +0.000 C 
ATOM     10  C   UNL     1       4.618   5.387  19.441  0.00  0.00    +0.000 C 
BRANCH   9  11
ATOM     11  N   UNL     1       4.739   5.276  16.901  0.00  0.00    +0.000 NA
ATOM     12  C   UNL     1       5.617   4.135  16.576  0.00  0.00    +0.000 C 
ATOM     13  C   UNL     1       6.998   4.521  17.073  0.00  0.00    +0.000 C 
ATOM     14  C   UNL     1       7.051   5.995  16.746  0.00  0.00    +0.000 C 
ATOM     15  C   UNL     1       5.599   6.471  16.876  0.00  0.00    +0.000 C 
ENDBRANCH   9  11
ENDBRANCH   7   9
BRANCH   1  16
ATOM     16  C   UNL     1       1.503   2.306  18.790  0.00  0.00    +0.000 C 
BRANCH  16  17
ATOM     17  C   UNL     1       2.601   2.179  17.718  0.00  0.00    +0.000 C 
BRANCH  17  19
ATOM     18  C   UNL     1       4.323   1.735  19.585  0.00  0.00    +0.000 C 
ATOM     19  C   UNL     1       3.901   1.482  18.145  0.00  0.00    +0.000 C 
ENDBRANCH  17  19
ENDBRANCH  16  17
ENDBRANCH   1  16
BRANCH   5  20
ATOM     20  C   UNL     1       2.020   8.607  18.196  0.00  0.00    +0.000 C 
BRANCH  20  21
ATOM     21  C   UNL     1       1.368   9.968  18.313  0.00  0.00    +0.000 A 
ATOM     22  C   UNL     1       2.165  11.119  18.419  0.00  0.00    +0.000 A 
ATOM     23  C   UNL     1       1.584  12.384  18.571  0.00  0.00    +0.000 A 
ATOM     24  C   UNL     1       0.197  12.516  18.634  0.00  0.00    +0.000 A 
ATOM     25 CL   UNL     1      -0.459  14.103  18.813  0.00  0.00    +0.000 Cl
ATOM     26  C   UNL     1      -0.610  11.378  18.558  0.00  0.00    +0.000 A 
ATOM     27 CL   UNL     1      -2.338  11.457  18.639  0.00  0.00    +0.000 Cl
ATOM     28  C   UNL     1      -0.029  10.111  18.408  0.00  0.00    +0.000 A 
ENDBRANCH  20  21
ENDBRANCH   5  20
TORSDOF 7
ENDMDL
MODEL 5
REMARK VINA RESULT:      -7.7      1.886      4.364
REMARK  Name = 
REMARK  9 active torsions:
REMARK  status: ('A' for Active; 'I' for Inactive)
REMARK    1  A    between atoms: C_1  and  C_2
REMARK    2  A    between atoms: C_2  and  C_3
REMARK    3  A    between atoms: C_3  and  C_4
REMARK    4  A    between atoms: C_4  and  N_5
REMARK    5  A    between atoms: C_9  and  C_11
REMARK    6  A    between atoms: C_11  and  C_12
REMARK    7  A    between atoms: C_20  and  C_21
REMARK    8  A    between atoms: C_21  and  C_22
REMARK    9  A    between atoms: C_21  and  N_23
REMARK                            x       y       z     vdW  Elec       q    Type
REMARK                         _______ _______ _______ _____ _____    ______ ____
ROOT
ATOM      1  N   UNL     1       1.226   3.716  18.697  0.00  0.00    +0.000 NA
ATOM      2  C   UNL     1       1.459   3.968  20.123  0.00  0.00    +0.000 C 
ATOM      3  C   UNL     1       2.206   5.270  20.543  0.00  0.00    +0.000 C 
ATOM      4  N   UNL     1       2.207   6.335  19.528  0.00  0.00    +0.000 N 
ATOM      5  C   UNL     1       1.974   7.648  19.909  0.00  0.00    +0.000 C 
ATOM      6  O   UNL     1       1.757   7.956  21.084  0.00  0.00    +0.000 OA
ATOM      7  C   UNL     1       2.494   5.865  18.146  0.00  0.00    +0.000 C 
ATOM      8  C   UNL     1       1.367   4.866  17.807  0.00  0.00    +0.000 C 
ENDROOT
BRANCH   7   9
ATOM      9  C   UNL     1       3.970   5.313  18.020  0.00  0.00    +0.000 C 
ATOM     10  C   UNL     1       4.782   5.713  19.272  0.00  0.00    +0.000 C 
BRANCH   9  11
ATOM     11  N   UNL     1       4.669   5.569  16.733  0.00  0.00    +0.000 NA
ATOM     12  C   UNL     1       5.118   4.326  16.077  0.00  0.00    +0.000 C 
ATOM     13  C   UNL     1       6.603   4.217  16.370  0.00  0.00    +0.000 C 
ATOM     14  C   UNL     1       7.050   5.657  16.278  0.00  0.00    +0.000 C 
ATOM     15  C   UNL     1       5.835   6.468  16.743  0.00  0.00    +0.000 C 
ENDBRANCH   9  11
ENDBRANCH   7   9
BRANCH   1  16
ATOM     16  C   UNL     1       1.640   2.440  18.135  0.00  0.00    +0.000 C 
BRANCH  16  17
ATOM     17  C   UNL     1       2.564   1.628  19.061  0.00  0.00    +0.000 C 
BRANCH  17  19
ATOM     18  C   UNL     1       4.724   2.072  20.396  0.00  0.00    +0.000 C 
ATOM     19  C   UNL     1       4.056   1.988  19.031  0.00  0.00    +0.000 C 
ENDBRANCH  17  19
ENDBRANCH  16  17
ENDBRANCH   1  16
BRANCH   5  20
ATOM     20  C   UNL     1       1.984   8.741  18.843  0.00  0.00    +0.000 C 
BRANCH  20  21
ATOM     21  C   UNL     1       0.731   9.588  18.781  0.00  0.00    +0.000 A 
ATOM     22  C   UNL     1       0.476  10.536  19.784  0.00  0.00    +0.000 A 
ATOM     23  C   UNL     1      -0.697  11.299  19.770  0.00  0.00    +0.000 A 
ATOM     24  C   UNL     1      -1.641  11.118  18.759  0.00  0.00    +0.000 A 
ATOM     25 CL   UNL     1      -3.063  12.097  18.791  0.00  0.00    +0.000 Cl
ATOM     26  C   UNL     1      -1.416  10.159  17.768  0.00  0.00    +0.000 A 
ATOM     27 CL   UNL     1      -2.543   9.866  16.486  0.00  0.00    +0.000 Cl
ATOM     28  C   UNL     1      -0.243   9.392  17.783  0.00  0.00    +0.000 A 
ENDBRANCH  20  21
ENDBRANCH   5  20
TORSDOF 7
ENDMDL
MODEL 6
REMARK VINA RESULT:      -7.7      0.925      1.609
REMARK  Name = 
REMARK  9 active torsions:
REMARK  status: ('A' for Active; 'I' for Inactive)
REMARK    1  A    between atoms: C_1  and  C_2
REMARK    2  A    between atoms: C_2  and  C_3
REMARK    3  A    between atoms: C_3  and  C_4
REMARK    4  A    between atoms: C_4  and  N_5
REMARK    5  A    between atoms: C_9  and  C_11
REMARK    6  A    between atoms: C_11  and  C_12
REMARK    7  A    between atoms: C_20  and  C_21
REMARK    8  A    between atoms: C_21  and  C_22
REMARK    9  A    between atoms: C_21  and  N_23
REMARK                            x       y       z     vdW  Elec       q    Type
REMARK                         _______ _______ _______ _____ _____    ______ ____
ROOT
ATOM      1  N   UNL     1       6.102   5.771  17.975  0.00  0.00    +0.000 NA
ATOM      2  C   UNL     1       5.668   6.620  16.859  0.00  0.00    +0.000 C 
ATOM      3  C   UNL     1       4.179   7.079  16.801  0.00  0.00    +0.000 C 
ATOM      4  N   UNL     1       3.462   7.006  18.083  0.00  0.00    +0.000 N 
ATOM      5  C   UNL     1       2.628   8.047  18.465  0.00  0.00    +0.000 C 
ATOM      6  O   UNL     1       2.472   9.048  17.760  0.00  0.00    +0.000 OA
ATOM      7  C   UNL     1       3.702   5.755  18.850  0.00  0.00    +0.000 C 
ATOM      8  C   UNL     1       5.219   5.732  19.137  0.00  0.00    +0.000 C 
ENDROOT
BRANCH   7   9
ATOM      9  C   UNL     1       3.120   4.494  18.095  0.00  0.00    +0.000 C 
ATOM     10  C   UNL     1       1.739   4.839  17.496  0.00  0.00    +0.000 C 
BRANCH   9  11
ATOM     11  N   UNL     1       3.161   3.201  18.828  0.00  0.00    +0.000 NA
ATOM     12  C   UNL     1       2.254   2.193  18.246  0.00  0.00    +0.000 C 
ATOM     13  C   UNL     1       1.028   2.174  19.142  0.00  0.00    +0.000 C 
ATOM     14  C   UNL     1       1.635   2.352  20.513  0.00  0.00    +0.000 C 
ATOM     15  C   UNL     1       2.881   3.214  20.274  0.00  0.00    +0.000 C 
ENDBRANCH   9  11
ENDBRANCH   7   9
BRANCH   1  16
ATOM     16  C   UNL     1       6.797   4.528  17.679  0.00  0.00    +0.000 C 
BRANCH  16  17
ATOM     17  C   UNL     1       7.096   4.329  16.182  0.00  0.00    +0.000 C 
BRANCH  17  19
ATOM     18  C   UNL     1       6.190   3.823  13.822  0.00  0.00    +0.000 C 
ATOM     19  C   UNL     1       5.961   3.752  15.325  0.00  0.00    +0.000 C 
ENDBRANCH  17  19
ENDBRANCH  16  17
ENDBRANCH   1  16
BRANCH   5  20
ATOM     20  C   UNL     1       1.886   7.952  19.795  0.00  0.00    +0.000 C 
BRANCH  20  21
ATOM     21  C   UNL     1       0.896   9.066  20.059  0.00  0.00    +0.000 A 
ATOM     22  C   UNL     1       0.526   9.934  19.019  0.00  0.00    +0.000 A 
ATOM     23  C   UNL     1      -0.354  10.997  19.250  0.00  0.00    +0.000 A 
ATOM     24  C   UNL     1      -0.870  11.218  20.528  0.00  0.00    +0.000 A 
ATOM     25 CL   UNL     1      -1.959  12.539  20.746  0.00  0.00    +0.000 Cl
ATOM     26  C   UNL     1      -0.491  10.379  21.579  0.00  0.00    +0.000 A 
ATOM     27 CL   UNL     1      -1.078  10.593  23.194  0.00  0.00    +0.000 Cl
ATOM     28  C   UNL     1       0.393   9.316  21.349  0.00  0.00    +0.000 A 
ENDBRANCH  20  21
ENDBRANCH   5  20
TORSDOF 7
ENDMDL
MODEL 7
REMARK VINA RESULT:      -7.5      1.594      4.270
REMARK  Name = 
REMARK  9 active torsions:
REMARK  status: ('A' for Active; 'I' for Inactive)
REMARK    1  A    between atoms: C_1  and  C_2
REMARK    2  A    between atoms: C_2  and  C_3
REMARK    3  A    between atoms: C_3  and  C_4
REMARK    4  A    between atoms: C_4  and  N_5
REMARK    5  A    between atoms: C_9  and  C_11
REMARK    6  A    between atoms: C_11  and  C_12
REMARK    7  A    between atoms: C_20  and  C_21
REMARK    8  A    between atoms: C_21  and  C_22
REMARK    9  A    between atoms: C_21  and  N_23
REMARK                            x       y       z     vdW  Elec       q    Type
REMARK                         _______ _______ _______ _____ _____    ______ ____
ROOT
ATOM      1  N   UNL     1       1.267   3.556  18.674  0.00  0.00    +0.000 NA
ATOM      2  C   UNL     1       1.489   3.765  20.109  0.00  0.00    +0.000 C 
ATOM      3  C   UNL     1       2.196   5.074  20.576  0.00  0.00    +0.000 C 
ATOM      4  N   UNL     1       2.165   6.173  19.598  0.00  0.00    +0.000 N 
ATOM      5  C   UNL     1       1.892   7.464  20.023  0.00  0.00    +0.000 C 
ATOM      6  O   UNL     1       1.663   7.725  21.208  0.00  0.00    +0.000 OA
ATOM      7  C   UNL     1       2.470   5.760  18.202  0.00  0.00    +0.000 C 
ATOM      8  C   UNL     1       1.374   4.739  17.825  0.00  0.00    +0.000 C 
ENDROOT
BRANCH   7   9
ATOM      9  C   UNL     1       3.962   5.258  18.062  0.00  0.00    +0.000 C 
ATOM     10  C   UNL     1       4.730   5.540  19.372  0.00  0.00    +0.000 C 
BRANCH   9  11
ATOM     11  N   UNL     1       4.688   5.665  16.830  0.00  0.00    +0.000 NA
ATOM     12  C   UNL     1       5.166   4.508  16.048  0.00  0.00    +0.000 C 
ATOM     13  C   UNL     1       6.645   4.378  16.363  0.00  0.00    +0.000 C 
ATOM     14  C   UNL     1       7.079   5.822  16.447  0.00  0.00    +0.000 C 
ATOM     15  C   UNL     1       5.844   6.566  16.971  0.00  0.00    +0.000 C 
ENDBRANCH   9  11
ENDBRANCH   7   9
BRANCH   1  16
ATOM     16  C   UNL     1       1.721   2.313  18.070  0.00  0.00    +0.000 C 
BRANCH  16  17
ATOM     17  C   UNL     1       3.250   2.222  17.919  0.00  0.00    +0.000 C 
BRANCH  17  19
ATOM     18  C   UNL     1       4.543   1.992  20.137  0.00  0.00    +0.000 C 
ATOM     19  C   UNL     1       3.985   1.300  18.902  0.00  0.00    +0.000 C 
ENDBRANCH  17  19
ENDBRANCH  16  17
ENDBRANCH   1  16
BRANCH   5  20
ATOM     20  C   UNL     1       1.871   8.593  18.996  0.00  0.00    +0.000 C 
BRANCH  20  21
ATOM     21  C   UNL     1       0.769   9.613  19.186  0.00  0.00    +0.000 A 
ATOM     22  C   UNL     1      -0.176   9.821  18.169  0.00  0.00    +0.000 A 
ATOM     23  C   UNL     1      -1.178  10.789  18.305  0.00  0.00    +0.000 A 
ATOM     24  C   UNL     1      -1.242  11.575  19.455  0.00  0.00    +0.000 A 
ATOM     25 CL   UNL     1      -2.507  12.745  19.567  0.00  0.00    +0.000 Cl
ATOM     26  C   UNL     1      -0.293  11.401  20.466  0.00  0.00    +0.000 A 
ATOM     27 CL   UNL     1      -0.299  12.344  21.918  0.00  0.00    +0.000 Cl
ATOM     28  C   UNL     1       0.711  10.434  20.328  0.00  0.00    +0.000 A 
ENDBRANCH  20  21
ENDBRANCH   5  20
TORSDOF 7
ENDMDL
MODEL 8
REMARK VINA RESULT:      -7.3      1.008      1.409
REMARK  Name = 
REMARK  9 active torsions:
REMARK  status: ('A' for Active; 'I' for Inactive)
REMARK    1  A    between atoms: C_1  and  C_2
REMARK    2  A    between atoms: C_2  and  C_3
REMARK    3  A    between atoms: C_3  and  C_4
REMARK    4  A    between atoms: C_4  and  N_5
REMARK    5  A    between atoms: C_9  and  C_11
REMARK    6  A    between atoms: C_11  and  C_12
REMARK    7  A    between atoms: C_20  and  C_21
REMARK    8  A    between atoms: C_21  and  C_22
REMARK    9  A    between atoms: C_21  and  N_23
REMARK                            x       y       z     vdW  Elec       q    Type
REMARK                         _______ _______ _______ _____ _____    ______ ____
ROOT
ATOM      1  N   UNL     1       5.557   5.856  18.102  0.00  0.00    +0.000 NA
ATOM      2  C   UNL     1       4.992   6.806  17.137  0.00  0.00    +0.000 C 
ATOM      3  C   UNL     1       3.497   7.223  17.282  0.00  0.00    +0.000 C 
ATOM      4  N   UNL     1       2.919   6.991  18.615  0.00  0.00    +0.000 N 
ATOM      5  C   UNL     1       2.111   7.959  19.192  0.00  0.00    +0.000 C 
ATOM      6  O   UNL     1       1.862   9.024  18.622  0.00  0.00    +0.000 OA
ATOM      7  C   UNL     1       3.262   5.672  19.211  0.00  0.00    +0.000 C 
ATOM      8  C   UNL     1       4.801   5.664  19.337  0.00  0.00    +0.000 C 
ENDROOT
BRANCH   7   9
ATOM      9  C   UNL     1       2.629   4.483  18.385  0.00  0.00    +0.000 C 
ATOM     10  C   UNL     1       1.352   4.972  17.667  0.00  0.00    +0.000 C 
BRANCH   9  11
ATOM     11  N   UNL     1       2.469   3.188  19.098  0.00  0.00    +0.000 NA
ATOM     12  C   UNL     1       3.432   3.030  20.205  0.00  0.00    +0.000 C 
ATOM     13  C   UNL     1       4.522   2.116  19.677  0.00  0.00    +0.000 C 
ATOM     14  C   UNL     1       3.736   1.135  18.840  0.00  0.00    +0.000 C 
ATOM     15  C   UNL     1       2.548   1.947  18.310  0.00  0.00    +0.000 C 
ENDBRANCH   9  11
ENDBRANCH   7   9
BRANCH   1  16
ATOM     16  C   UNL     1       6.240   4.674  17.601  0.00  0.00    +0.000 C 
BRANCH  16  17
ATOM     17  C   UNL     1       5.551   4.031  16.384  0.00  0.00    +0.000 C 
BRANCH  17  19
ATOM     18  C   UNL     1       5.663   4.134  13.810  0.00  0.00    +0.000 C 
ATOM     19  C   UNL     1       6.402   3.875  15.115  0.00  0.00    +0.000 C 
ENDBRANCH  17  19
ENDBRANCH  16  17
ENDBRANCH   1  16
BRANCH   5  20
ATOM     20  C   UNL     1       1.515   7.699  20.573  0.00  0.00    +0.000 C 
BRANCH  20  21
ATOM     21  C   UNL     1       0.836   8.891  21.214  0.00  0.00    +0.000 A 
ATOM     22  C   UNL     1      -0.048   8.699  22.288  0.00  0.00    +0.000 A 
ATOM     23  C   UNL     1      -0.719   9.781  22.868  0.00  0.00    +0.000 A 
ATOM     24  C   UNL     1      -0.528  11.072  22.374  0.00  0.00    +0.000 A 
ATOM     25 CL   UNL     1      -1.378  12.366  23.139  0.00  0.00    +0.000 Cl
ATOM     26  C   UNL     1       0.326  11.277  21.288  0.00  0.00    +0.000 A 
ATOM     27 CL   UNL     1       0.608  12.846  20.611  0.00  0.00    +0.000 Cl
ATOM     28  C   UNL     1       0.997  10.193  20.705  0.00  0.00    +0.000 A 
ENDBRANCH  20  21
ENDBRANCH   5  20
TORSDOF 7
ENDMDL
MODEL 9
REMARK VINA RESULT:      -7.2      4.174      7.422
REMARK  Name = 
REMARK  9 active torsions:
REMARK  status: ('A' for Active; 'I' for Inactive)
REMARK    1  A    between atoms: C_1  and  C_2
REMARK    2  A    between atoms: C_2  and  C_3
REMARK    3  A    between atoms: C_3  and  C_4
REMARK    4  A    between atoms: C_4  and  N_5
REMARK    5  A    between atoms: C_9  and  C_11
REMARK    6  A    between atoms: C_11  and  C_12
REMARK    7  A    between atoms: C_20  and  C_21
REMARK    8  A    between atoms: C_21  and  C_22
REMARK    9  A    between atoms: C_21  and  N_23
REMARK                            x       y       z     vdW  Elec       q    Type
REMARK                         _______ _______ _______ _____ _____    ______ ____
ROOT
ATOM      1  N   UNL     1       1.074   9.963  19.375  0.00  0.00    +0.000 NA
ATOM      2  C   UNL     1       1.665  11.281  19.633  0.00  0.00    +0.000 C 
ATOM      3  C   UNL     1       0.788  12.375  20.315  0.00  0.00    +0.000 C 
ATOM      4  N   UNL     1      -0.382  11.861  21.044  0.00  0.00    +0.000 N 
ATOM      5  C   UNL     1      -0.698  12.381  22.290  0.00  0.00    +0.000 C 
ATOM      6  O   UNL     1      -0.019  13.266  22.818  0.00  0.00    +0.000 OA
ATOM      7  C   UNL     1      -1.144  10.811  20.318  0.00  0.00    +0.000 C 
ATOM      8  C   UNL     1      -0.149   9.649  20.109  0.00  0.00    +0.000 C 
ENDROOT
BRANCH   7   9
ATOM      9  C   UNL     1      -1.820  11.388  19.010  0.00  0.00    +0.000 C 
ATOM     10  C   UNL     1      -2.541  12.713  19.341  0.00  0.00    +0.000 C 
BRANCH   9  11
ATOM     11  N   UNL     1      -2.631  10.437  18.205  0.00  0.00    +0.000 NA
ATOM     12  C   UNL     1      -2.005  10.118  16.908  0.00  0.00    +0.000 C 
ATOM     13  C   UNL     1      -2.740  10.953  15.877  0.00  0.00    +0.000 C 
ATOM     14  C   UNL     1      -4.163  10.899  16.382  0.00  0.00    +0.000 C 
ATOM     15  C   UNL     1      -4.027  10.796  17.905  0.00  0.00    +0.000 C 
ENDBRANCH   9  11
ENDBRANCH   7   9
BRANCH   1  16
ATOM     16  C   UNL     1       1.152   9.412  18.031  0.00  0.00    +0.000 C 
BRANCH  16  17
ATOM     17  C   UNL     1       2.418   8.572  17.781  0.00  0.00    +0.000 C 
BRANCH  17  19
ATOM     18  C   UNL     1       2.338   6.007  18.027  0.00  0.00    +0.000 C 
ATOM     19  C   UNL     1       2.622   7.349  18.686  0.00  0.00    +0.000 C 
ENDBRANCH  17  19
ENDBRANCH  16  17
ENDBRANCH   1  16
BRANCH   5  20
ATOM     20  C   UNL     1      -1.919  11.841  23.030  0.00  0.00    +0.000 C 
BRANCH  20  21
ATOM     21  C   UNL     1      -3.062  12.822  23.184  0.00  0.00    +0.000 A 
ATOM     22  C   UNL     1      -4.236  12.652  22.433  0.00  0.00    +0.000 A 
ATOM     23  C   UNL     1      -5.288  13.571  22.527  0.00  0.00    +0.000 A 
ATOM     24  C   UNL     1      -5.178  14.681  23.364  0.00  0.00    +0.000 A 
ATOM     25 CL   UNL     1      -6.513  15.772  23.445  0.00  0.00    +0.000 Cl
ATOM     26  C   UNL     1      -4.005  14.879  24.099  0.00  0.00    +0.000 A 
ATOM     27 CL   UNL     1      -3.787  16.237  25.151  0.00  0.00    +0.000 Cl
ATOM     28  C   UNL     1      -2.951  13.961  24.002  0.00  0.00    +0.000 A 
ENDBRANCH  20  21
ENDBRANCH   5  20
TORSDOF 7
ENDMDL
