MODEL 1
REMARK VINA RESULT:      -7.1      0.000      0.000
REMARK  Name = 
REMARK  2 active torsions:
REMARK  status: ('A' for Active; 'I' for Inactive)
REMARK    1  A    between atoms: C_5  and  C_6
REMARK    2  A    between atoms: C_17  and  C_18
REMARK                            x       y       z     vdW  Elec       q    Type
REMARK                         _______ _______ _______ _____ _____    ______ ____
ROOT
ATOM      1  O   UNL     1       7.914  18.175  21.973  0.00  0.00    +0.000 OA
ATOM      2  C   UNL     1       6.751  17.838  21.936  0.00  0.00    +0.000 C 
ATOM      3  C   UNL     1       5.692  18.530  22.787  0.00  0.00    +0.000 C 
ATOM      4  S   UNL     1       4.090  18.049  22.128  0.00  0.00    +0.000 S 
ATOM      5  C   UNL     1       4.792  16.575  21.338  0.00  0.00    +0.000 C 
ATOM      6  N   UNL     1       6.193  16.849  21.130  0.00  0.00    +0.000 N 
ATOM      7  C   UNL     1       7.026  16.217  20.221  0.00  0.00    +0.000 A 
ATOM      8  N   UNL     1       7.720  15.117  20.400  0.00  0.00    +0.000 NA
ATOM      9  C   UNL     1       8.476  14.830  19.261  0.00  0.00    +0.000 A 
ATOM     10  C   UNL     1       8.346  15.766  18.249  0.00  0.00    +0.000 A 
ATOM     11  S   UNL     1       7.244  16.990  18.706  0.00  0.00    +0.000 S 
ENDROOT
BRANCH   9  12
ATOM     12  C   UNL     1       9.331  13.566  19.209  0.00  0.00    +0.000 C 
ATOM     13  C   UNL     1      10.817  13.903  18.907  0.00  0.00    +0.000 C 
ATOM     14  C   UNL     1      11.675  12.626  18.871  0.00  0.00    +0.000 C 
ATOM     15  C   UNL     1      11.589  11.913  20.230  0.00  0.00    +0.000 C 
ATOM     16  C   UNL     1      10.131  11.532  20.530  0.00  0.00    +0.000 C 
ATOM     17  C   UNL     1       9.603  10.604  19.428  0.00  0.00    +0.000 C 
ATOM     18  C   UNL     1       9.682  11.312  18.069  0.00  0.00    +0.000 C 
ATOM     19  C   UNL     1      11.143  11.688  17.776  0.00  0.00    +0.000 C 
ATOM     20  C   UNL     1       8.829  12.594  18.110  0.00  0.00    +0.000 C 
ATOM     21  C   UNL     1       9.280  12.811  20.566  0.00  0.00    +0.000 C 
ENDBRANCH   9  12
BRANCH   5  22
ATOM     22  C   UNL     1       4.043  16.161  20.102  0.00  0.00    +0.000 A 
ATOM     23  C   UNL     1       3.934  17.056  19.012  0.00  0.00    +0.000 A 
ATOM     24  C   UNL     1       3.417  16.637  17.791  0.00  0.00    +0.000 A 
ATOM     25  C   UNL     1       2.992  15.320  17.643  0.00  0.00    +0.000 A 
ATOM     26  C   UNL     1       3.066  14.426  18.713  0.00  0.00    +0.000 A 
ATOM     27 CL   UNL     1       2.592  12.788  18.419  0.00  0.00    +0.000 Cl
ATOM     28  C   UNL     1       3.572  14.843  19.951  0.00  0.00    +0.000 A 
ATOM     29 CL   UNL     1       3.650  13.717  21.273  0.00  0.00    +0.000 Cl
ENDBRANCH   5  22
TORSDOF 2
ENDMDL
MODEL 2
REMARK VINA RESULT:      -6.9      0.354      1.413
REMARK  Name = 
REMARK  2 active torsions:
REMARK  status: ('A' for Active; 'I' for Inactive)
REMARK    1  A    between atoms: C_5  and  C_6
REMARK    2  A    between atoms: C_17  and  C_18
REMARK                            x       y       z     vdW  Elec       q    Type
REMARK                         _______ _______ _______ _____ _____    ______ ____
ROOT
ATOM      1  O   UNL     1       7.459  17.943  22.320  0.00  0.00    +0.000 OA
ATOM      2  C   UNL     1       6.307  17.593  22.190  0.00  0.00    +0.000 C 
ATOM      3  C   UNL     1       5.187  18.211  23.021  0.00  0.00    +0.000 C 
ATOM      4  S   UNL     1       3.635  17.755  22.234  0.00  0.00    +0.000 S 
ATOM      5  C   UNL     1       4.409  16.349  21.390  0.00  0.00    +0.000 C 
ATOM      6  N   UNL     1       5.815  16.656  21.286  0.00  0.00    +0.000 N 
ATOM      7  C   UNL     1       6.712  16.099  20.389  0.00  0.00    +0.000 A 
ATOM      8  N   UNL     1       7.413  14.999  20.534  0.00  0.00    +0.000 NA
ATOM      9  C   UNL     1       8.240  14.800  19.426  0.00  0.00    +0.000 A 
ATOM     10  C   UNL     1       8.155  15.803  18.474  0.00  0.00    +0.000 A 
ATOM     11  S   UNL     1       7.006  16.977  18.946  0.00  0.00    +0.000 S 
ENDROOT
BRANCH   9  12
ATOM     12  C   UNL     1       9.119  13.555  19.341  0.00  0.00    +0.000 C 
ATOM     13  C   UNL     1       8.691  12.642  18.159  0.00  0.00    +0.000 C 
ATOM     14  C   UNL     1       9.590  11.397  18.072  0.00  0.00    +0.000 C 
ATOM     15  C   UNL     1      11.050  11.832  17.866  0.00  0.00    +0.000 C 
ATOM     16  C   UNL     1      11.508  12.703  19.046  0.00  0.00    +0.000 C 
ATOM     17  C   UNL     1      11.389  11.905  20.352  0.00  0.00    +0.000 C 
ATOM     18  C   UNL     1       9.932  11.471  20.565  0.00  0.00    +0.000 C 
ATOM     19  C   UNL     1       9.483  10.601  19.381  0.00  0.00    +0.000 C 
ATOM     20  C   UNL     1       9.034  12.719  20.645  0.00  0.00    +0.000 C 
ATOM     21  C   UNL     1      10.607  13.945  19.128  0.00  0.00    +0.000 C 
ENDBRANCH   9  12
BRANCH   5  22
ATOM     22  C   UNL     1       3.742  16.012  20.085  0.00  0.00    +0.000 A 
ATOM     23  C   UNL     1       3.669  16.984  19.059  0.00  0.00    +0.000 A 
ATOM     24  C   UNL     1       3.234  16.645  17.783  0.00  0.00    +0.000 A 
ATOM     25  C   UNL     1       2.855  15.333  17.514  0.00  0.00    +0.000 A 
ATOM     26  C   UNL     1       2.895  14.363  18.517  0.00  0.00    +0.000 A 
ATOM     27 CL   UNL     1       2.485  12.741  18.076  0.00  0.00    +0.000 Cl
ATOM     28  C   UNL     1       3.319  14.698  19.810  0.00  0.00    +0.000 A 
ATOM     29 CL   UNL     1       3.354  13.477  21.048  0.00  0.00    +0.000 Cl
ENDBRANCH   5  22
TORSDOF 2
ENDMDL
MODEL 3
REMARK VINA RESULT:      -6.7      0.521      1.524
REMARK  Name = 
REMARK  2 active torsions:
REMARK  status: ('A' for Active; 'I' for Inactive)
REMARK    1  A    between atoms: C_5  and  C_6
REMARK    2  A    between atoms: C_17  and  C_18
REMARK                            x       y       z     vdW  Elec       q    Type
REMARK                         _______ _______ _______ _____ _____    ______ ____
ROOT
ATOM      1  O   UNL     1       7.466  17.670  22.825  0.00  0.00    +0.000 OA
ATOM      2  C   UNL     1       6.321  17.336  22.617  0.00  0.00    +0.000 C 
ATOM      3  C   UNL     1       5.170  17.865  23.465  0.00  0.00    +0.000 C 
ATOM      4  S   UNL     1       3.649  17.493  22.581  0.00  0.00    +0.000 S 
ATOM      5  C   UNL     1       4.458  16.181  21.626  0.00  0.00    +0.000 C 
ATOM      6  N   UNL     1       5.866  16.496  21.605  0.00  0.00    +0.000 N 
ATOM      7  C   UNL     1       6.797  16.034  20.689  0.00  0.00    +0.000 A 
ATOM      8  N   UNL     1       7.496  14.924  20.747  0.00  0.00    +0.000 NA
ATOM      9  C   UNL     1       8.363  14.839  19.655  0.00  0.00    +0.000 A 
ATOM     10  C   UNL     1       8.310  15.934  18.808  0.00  0.00    +0.000 A 
ATOM     11  S   UNL     1       7.140  17.055  19.356  0.00  0.00    +0.000 S 
ENDROOT
BRANCH   9  12
ATOM     12  C   UNL     1       9.249  13.609  19.475  0.00  0.00    +0.000 C 
ATOM     13  C   UNL     1       9.182  12.679  20.718  0.00  0.00    +0.000 C 
ATOM     14  C   UNL     1      10.065  11.435  20.523  0.00  0.00    +0.000 C 
ATOM     15  C   UNL     1       9.588  10.656  19.287  0.00  0.00    +0.000 C 
ATOM     16  C   UNL     1       9.686  11.544  18.038  0.00  0.00    +0.000 C 
ATOM     17  C   UNL     1      11.141  11.989  17.834  0.00  0.00    +0.000 C 
ATOM     18  C   UNL     1      11.623  12.772  19.064  0.00  0.00    +0.000 C 
ATOM     19  C   UNL     1      11.521  11.876  20.308  0.00  0.00    +0.000 C 
ATOM     20  C   UNL     1      10.732  14.012  19.261  0.00  0.00    +0.000 C 
ATOM     21  C   UNL     1       8.801  12.784  18.238  0.00  0.00    +0.000 C 
ENDBRANCH   9  12
BRANCH   5  22
ATOM     22  C   UNL     1       3.840  15.979  20.269  0.00  0.00    +0.000 A 
ATOM     23  C   UNL     1       3.934  16.999  19.294  0.00  0.00    +0.000 A 
ATOM     24  C   UNL     1       3.544  16.770  17.979  0.00  0.00    +0.000 A 
ATOM     25  C   UNL     1       3.045  15.521  17.621  0.00  0.00    +0.000 A 
ATOM     26  C   UNL     1       2.921  14.507  18.572  0.00  0.00    +0.000 A 
ATOM     27 CL   UNL     1       2.369  12.962  18.023  0.00  0.00    +0.000 Cl
ATOM     28  C   UNL     1       3.297  14.733  19.902  0.00  0.00    +0.000 A 
ATOM     29 CL   UNL     1       3.128  13.459  21.074  0.00  0.00    +0.000 Cl
ENDBRANCH   5  22
TORSDOF 2
ENDMDL
MODEL 4
REMARK VINA RESULT:      -6.5      3.083      4.249
REMARK  Name = 
REMARK  2 active torsions:
REMARK  status: ('A' for Active; 'I' for Inactive)
REMARK    1  A    between atoms: C_5  and  C_6
REMARK    2  A    between atoms: C_17  and  C_18
REMARK                            x       y       z     vdW  Elec       q    Type
REMARK                         _______ _______ _______ _____ _____    ______ ____
ROOT
ATOM      1  O   UNL     1       8.596  12.721  25.669  0.00  0.00    +0.000 OA
ATOM      2  C   UNL     1       7.564  13.327  25.484  0.00  0.00    +0.000 C 
ATOM      3  C   UNL     1       6.457  13.355  26.533  0.00  0.00    +0.000 C 
ATOM      4  S   UNL     1       5.331  14.680  26.074  0.00  0.00    +0.000 S 
ATOM      5  C   UNL     1       5.900  14.647  24.353  0.00  0.00    +0.000 C 
ATOM      6  N   UNL     1       7.234  14.096  24.372  0.00  0.00    +0.000 N 
ATOM      7  C   UNL     1       8.199  14.250  23.391  0.00  0.00    +0.000 A 
ATOM      8  N   UNL     1       8.384  13.508  22.323  0.00  0.00    +0.000 NA
ATOM      9  C   UNL     1       9.493  13.959  21.604  0.00  0.00    +0.000 A 
ATOM     10  C   UNL     1      10.143  15.034  22.189  0.00  0.00    +0.000 A 
ATOM     11  S   UNL     1       9.340  15.509  23.621  0.00  0.00    +0.000 S 
ENDROOT
BRANCH   9  12
ATOM     12  C   UNL     1       9.880  13.283  20.292  0.00  0.00    +0.000 C 
ATOM     13  C   UNL     1       8.822  13.550  19.186  0.00  0.00    +0.000 C 
ATOM     14  C   UNL     1       9.226  12.878  17.863  0.00  0.00    +0.000 C 
ATOM     15  C   UNL     1      10.584  13.430  17.401  0.00  0.00    +0.000 C 
ATOM     16  C   UNL     1      11.656  13.139  18.462  0.00  0.00    +0.000 C 
ATOM     17  C   UNL     1      11.766  11.624  18.683  0.00  0.00    +0.000 C 
ATOM     18  C   UNL     1      10.414  11.067  19.148  0.00  0.00    +0.000 C 
ATOM     19  C   UNL     1       9.348  11.362  18.081  0.00  0.00    +0.000 C 
ATOM     20  C   UNL     1      10.008  11.747  20.469  0.00  0.00    +0.000 C 
ATOM     21  C   UNL     1      11.248  13.814  19.781  0.00  0.00    +0.000 C 
ENDBRANCH   9  12
BRANCH   5  22
ATOM     22  C   UNL     1       5.783  15.982  23.672  0.00  0.00    +0.000 A 
ATOM     23  C   UNL     1       6.079  17.166  24.387  0.00  0.00    +0.000 A 
ATOM     24  C   UNL     1       6.165  18.392  23.737  0.00  0.00    +0.000 A 
ATOM     25  C   UNL     1       5.946  18.456  22.364  0.00  0.00    +0.000 A 
ATOM     26  C   UNL     1       5.627  17.304  21.642  0.00  0.00    +0.000 A 
ATOM     27 CL   UNL     1       5.451  17.461  19.928  0.00  0.00    +0.000 Cl
ATOM     28  C   UNL     1       5.524  16.067  22.290  0.00  0.00    +0.000 A 
ATOM     29 CL   UNL     1       5.119  14.646  21.375  0.00  0.00    +0.000 Cl
ENDBRANCH   5  22
TORSDOF 2
ENDMDL
MODEL 5
REMARK VINA RESULT:      -6.4      6.460      9.180
REMARK  Name = 
REMARK  2 active torsions:
REMARK  status: ('A' for Active; 'I' for Inactive)
REMARK    1  A    between atoms: C_5  and  C_6
REMARK    2  A    between atoms: C_17  and  C_18
REMARK                            x       y       z     vdW  Elec       q    Type
REMARK                         _______ _______ _______ _____ _____    ______ ____
ROOT
ATOM      1  O   UNL     1      -2.350  11.017  17.926  0.00  0.00    +0.000 OA
ATOM      2  C   UNL     1      -3.123  11.656  18.605  0.00  0.00    +0.000 C 
ATOM      3  C   UNL     1      -4.632  11.495  18.461  0.00  0.00    +0.000 C 
ATOM      4  S   UNL     1      -5.384  12.260  19.904  0.00  0.00    +0.000 S 
ATOM      5  C   UNL     1      -3.907  13.266  20.212  0.00  0.00    +0.000 C 
ATOM      6  N   UNL     1      -2.799  12.565  19.608  0.00  0.00    +0.000 N 
ATOM      7  C   UNL     1      -1.459  12.722  19.923  0.00  0.00    +0.000 A 
ATOM      8  N   UNL     1      -0.613  13.590  19.418  0.00  0.00    +0.000 NA
ATOM      9  C   UNL     1       0.660  13.398  19.960  0.00  0.00    +0.000 A 
ATOM     10  C   UNL     1       0.738  12.342  20.854  0.00  0.00    +0.000 A 
ATOM     11  S   UNL     1      -0.796  11.613  21.049  0.00  0.00    +0.000 S 
ENDROOT
BRANCH   9  12
ATOM     12  C   UNL     1       1.808  14.322  19.562  0.00  0.00    +0.000 C 
ATOM     13  C   UNL     1       2.589  14.820  20.809  0.00  0.00    +0.000 C 
ATOM     14  C   UNL     1       3.752  15.739  20.398  0.00  0.00    +0.000 C 
ATOM     15  C   UNL     1       4.714  14.970  19.478  0.00  0.00    +0.000 C 
ATOM     16  C   UNL     1       3.971  14.504  18.217  0.00  0.00    +0.000 C 
ATOM     17  C   UNL     1       3.409  15.722  17.470  0.00  0.00    +0.000 C 
ATOM     18  C   UNL     1       2.444  16.492  18.382  0.00  0.00    +0.000 C 
ATOM     19  C   UNL     1       3.196  16.955  19.640  0.00  0.00    +0.000 C 
ATOM     20  C   UNL     1       1.285  15.568  18.797  0.00  0.00    +0.000 C 
ATOM     21  C   UNL     1       2.811  13.586  18.633  0.00  0.00    +0.000 C 
ENDBRANCH   9  12
BRANCH   5  22
ATOM     22  C   UNL     1      -3.719  13.601  21.666  0.00  0.00    +0.000 A 
ATOM     23  C   UNL     1      -4.011  12.632  22.655  0.00  0.00    +0.000 A 
ATOM     24  C   UNL     1      -3.669  12.844  23.986  0.00  0.00    +0.000 A 
ATOM     25  C   UNL     1      -3.040  14.031  24.351  0.00  0.00    +0.000 A 
ATOM     26  C   UNL     1      -2.766  15.012  23.396  0.00  0.00    +0.000 A 
ATOM     27 CL   UNL     1      -1.910  16.420  23.922  0.00  0.00    +0.000 Cl
ATOM     28  C   UNL     1      -3.120  14.814  22.055  0.00  0.00    +0.000 A 
ATOM     29 CL   UNL     1      -2.776  16.051  20.882  0.00  0.00    +0.000 Cl
ENDBRANCH   5  22
TORSDOF 2
ENDMDL
MODEL 6
REMARK VINA RESULT:      -6.4      6.395      9.154
REMARK  Name = 
REMARK  2 active torsions:
REMARK  status: ('A' for Active; 'I' for Inactive)
REMARK    1  A    between atoms: C_5  and  C_6
REMARK    2  A    between atoms: C_17  and  C_18
REMARK                            x       y       z     vdW  Elec       q    Type
REMARK                         _______ _______ _______ _____ _____    ______ ____
ROOT
ATOM      1  O   UNL     1      -2.193  10.998  17.832  0.00  0.00    +0.000 OA
ATOM      2  C   UNL     1      -2.983  11.621  18.506  0.00  0.00    +0.000 C 
ATOM      3  C   UNL     1      -4.488  11.429  18.352  0.00  0.00    +0.000 C 
ATOM      4  S   UNL     1      -5.264  12.178  19.791  0.00  0.00    +0.000 S 
ATOM      5  C   UNL     1      -3.811  13.215  20.107  0.00  0.00    +0.000 C 
ATOM      6  N   UNL     1      -2.685  12.537  19.510  0.00  0.00    +0.000 N 
ATOM      7  C   UNL     1      -1.351  12.722  19.833  0.00  0.00    +0.000 A 
ATOM      8  N   UNL     1      -0.520  13.607  19.333  0.00  0.00    +0.000 NA
ATOM      9  C   UNL     1       0.754  13.442  19.882  0.00  0.00    +0.000 A 
ATOM     10  C   UNL     1       0.848  12.389  20.777  0.00  0.00    +0.000 A 
ATOM     11  S   UNL     1      -0.671  11.627  20.964  0.00  0.00    +0.000 S 
ENDROOT
BRANCH   9  12
ATOM     12  C   UNL     1       1.884  14.390  19.491  0.00  0.00    +0.000 C 
ATOM     13  C   UNL     1       2.743  13.799  18.339  0.00  0.00    +0.000 C 
ATOM     14  C   UNL     1       3.871  14.767  17.942  0.00  0.00    +0.000 C 
ATOM     15  C   UNL     1       3.263  16.101  17.480  0.00  0.00    +0.000 C 
ATOM     16  C   UNL     1       2.443  16.725  18.619  0.00  0.00    +0.000 C 
ATOM     17  C   UNL     1       3.348  16.967  19.835  0.00  0.00    +0.000 C 
ATOM     18  C   UNL     1       3.956  15.637  20.303  0.00  0.00    +0.000 C 
ATOM     19  C   UNL     1       4.774  15.021  19.158  0.00  0.00    +0.000 C 
ATOM     20  C   UNL     1       2.825  14.668  20.694  0.00  0.00    +0.000 C 
ATOM     21  C   UNL     1       1.317  15.755  19.012  0.00  0.00    +0.000 C 
ENDBRANCH   9  12
BRANCH   5  22
ATOM     22  C   UNL     1      -3.639  13.554  21.563  0.00  0.00    +0.000 A 
ATOM     23  C   UNL     1      -3.912  12.578  22.550  0.00  0.00    +0.000 A 
ATOM     24  C   UNL     1      -3.583  12.797  23.882  0.00  0.00    +0.000 A 
ATOM     25  C   UNL     1      -2.985  13.998  24.251  0.00  0.00    +0.000 A 
ATOM     26  C   UNL     1      -2.729  14.986  23.298  0.00  0.00    +0.000 A 
ATOM     27 CL   UNL     1      -1.909  16.414  23.829  0.00  0.00    +0.000 Cl
ATOM     28  C   UNL     1      -3.070  14.780  21.955  0.00  0.00    +0.000 A 
ATOM     29 CL   UNL     1      -2.750  16.025  20.784  0.00  0.00    +0.000 Cl
ENDBRANCH   5  22
TORSDOF 2
ENDMDL
MODEL 7
REMARK VINA RESULT:      -6.4      6.547      9.258
REMARK  Name = 
REMARK  2 active torsions:
REMARK  status: ('A' for Active; 'I' for Inactive)
REMARK    1  A    between atoms: C_5  and  C_6
REMARK    2  A    between atoms: C_17  and  C_18
REMARK                            x       y       z     vdW  Elec       q    Type
REMARK                         _______ _______ _______ _____ _____    ______ ____
ROOT
ATOM      1  O   UNL     1      -2.538  11.046  17.945  0.00  0.00    +0.000 OA
ATOM      2  C   UNL     1      -3.295  11.683  18.644  0.00  0.00    +0.000 C 
ATOM      3  C   UNL     1      -4.807  11.534  18.524  0.00  0.00    +0.000 C 
ATOM      4  S   UNL     1      -5.529  12.289  19.988  0.00  0.00    +0.000 S 
ATOM      5  C   UNL     1      -4.040  13.281  20.281  0.00  0.00    +0.000 C 
ATOM      6  N   UNL     1      -2.948  12.580  19.650  0.00  0.00    +0.000 N 
ATOM      7  C   UNL     1      -1.602  12.724  19.944  0.00  0.00    +0.000 A 
ATOM      8  N   UNL     1      -0.758  13.592  19.433  0.00  0.00    +0.000 NA
ATOM      9  C   UNL     1       0.523  13.385  19.951  0.00  0.00    +0.000 A 
ATOM     10  C   UNL     1       0.609  12.320  20.832  0.00  0.00    +0.000 A 
ATOM     11  S   UNL     1      -0.926  11.599  21.046  0.00  0.00    +0.000 S 
ENDROOT
BRANCH   9  12
ATOM     12  C   UNL     1       1.670  14.306  19.543  0.00  0.00    +0.000 C 
ATOM     13  C   UNL     1       1.138  15.633  18.932  0.00  0.00    +0.000 C 
ATOM     14  C   UNL     1       2.300  16.561  18.537  0.00  0.00    +0.000 C 
ATOM     15  C   UNL     1       3.144  16.884  19.780  0.00  0.00    +0.000 C 
ATOM     16  C   UNL     1       3.715  15.588  20.377  0.00  0.00    +0.000 C 
ATOM     17  C   UNL     1       4.589  14.881  19.331  0.00  0.00    +0.000 C 
ATOM     18  C   UNL     1       3.751  14.552  18.089  0.00  0.00    +0.000 C 
ATOM     19  C   UNL     1       3.184  15.853  17.499  0.00  0.00    +0.000 C 
ATOM     20  C   UNL     1       2.585  13.629  18.488  0.00  0.00    +0.000 C 
ATOM     21  C   UNL     1       2.551  14.666  20.770  0.00  0.00    +0.000 C 
ENDBRANCH   9  12
BRANCH   5  22
ATOM     22  C   UNL     1      -3.825  13.599  21.735  0.00  0.00    +0.000 A 
ATOM     23  C   UNL     1      -4.130  12.631  22.720  0.00  0.00    +0.000 A 
ATOM     24  C   UNL     1      -3.766  12.823  24.048  0.00  0.00    +0.000 A 
ATOM     25  C   UNL     1      -3.100  13.989  24.414  0.00  0.00    +0.000 A 
ATOM     26  C   UNL     1      -2.812  14.970  23.463  0.00  0.00    +0.000 A 
ATOM     27 CL   UNL     1      -1.911  16.350  23.990  0.00  0.00    +0.000 Cl
ATOM     28  C   UNL     1      -3.187  14.792  22.126  0.00  0.00    +0.000 A 
ATOM     29 CL   UNL     1      -2.825  16.028  20.958  0.00  0.00    +0.000 Cl
ENDBRANCH   5  22
TORSDOF 2
ENDMDL
MODEL 8
REMARK VINA RESULT:      -6.3      1.584      2.302
REMARK  Name = 
REMARK  2 active torsions:
REMARK  status: ('A' for Active; 'I' for Inactive)
REMARK    1  A    between atoms: C_5  and  C_6
REMARK    2  A    between atoms: C_17  and  C_18
REMARK                            x       y       z     vdW  Elec       q    Type
REMARK                         _______ _______ _______ _____ _____    ______ ____
ROOT
ATOM      1  O   UNL     1       7.266  17.344  23.055  0.00  0.00    +0.000 OA
ATOM      2  C   UNL     1       6.145  16.895  22.964  0.00  0.00    +0.000 C 
ATOM      3  C   UNL     1       5.041  17.306  23.933  0.00  0.00    +0.000 C 
ATOM      4  S   UNL     1       3.482  16.780  23.208  0.00  0.00    +0.000 S 
ATOM      5  C   UNL     1       4.314  15.556  22.161  0.00  0.00    +0.000 C 
ATOM      6  N   UNL     1       5.673  16.012  21.997  0.00  0.00    +0.000 N 
ATOM      7  C   UNL     1       6.545  15.646  20.984  0.00  0.00    +0.000 A 
ATOM      8  N   UNL     1       7.354  14.613  20.958  0.00  0.00    +0.000 NA
ATOM      9  C   UNL     1       8.107  14.616  19.781  0.00  0.00    +0.000 A 
ATOM     10  C   UNL     1       7.854  15.699  18.955  0.00  0.00    +0.000 A 
ATOM     11  S   UNL     1       6.641  16.696  19.632  0.00  0.00    +0.000 S 
ENDROOT
BRANCH   9  12
ATOM     12  C   UNL     1       9.088  13.482  19.497  0.00  0.00    +0.000 C 
ATOM     13  C   UNL     1       9.187  12.507  20.703  0.00  0.00    +0.000 C 
ATOM     14  C   UNL     1      10.167  11.360  20.404  0.00  0.00    +0.000 C 
ATOM     15  C   UNL     1       9.685  10.583  19.169  0.00  0.00    +0.000 C 
ATOM     16  C   UNL     1       9.620  11.519  17.953  0.00  0.00    +0.000 C 
ATOM     17  C   UNL     1      11.012  12.106  17.679  0.00  0.00    +0.000 C 
ATOM     18  C   UNL     1      11.498  12.888  18.908  0.00  0.00    +0.000 C 
ATOM     19  C   UNL     1      11.560  11.943  20.118  0.00  0.00    +0.000 C 
ATOM     20  C   UNL     1      10.511  14.031  19.209  0.00  0.00    +0.000 C 
ATOM     21  C   UNL     1       8.639  12.662  18.257  0.00  0.00    +0.000 C 
ENDBRANCH   9  12
BRANCH   5  22
ATOM     22  C   UNL     1       3.581  15.291  20.875  0.00  0.00    +0.000 A 
ATOM     23  C   UNL     1       3.305  13.960  20.483  0.00  0.00    +0.000 A 
ATOM     24  C   UNL     1       2.469  13.692  19.405  0.00  0.00    +0.000 A 
ATOM     25  C   UNL     1       1.905  14.748  18.696  0.00  0.00    +0.000 A 
ATOM     26  C   UNL     1       2.184  16.069  19.049  0.00  0.00    +0.000 A 
ATOM     27 CL   UNL     1       1.377  17.319  18.165  0.00  0.00    +0.000 Cl
ATOM     28  C   UNL     1       3.036  16.351  20.124  0.00  0.00    +0.000 A 
ATOM     29 CL   UNL     1       3.378  18.003  20.544  0.00  0.00    +0.000 Cl
ENDBRANCH   5  22
TORSDOF 2
ENDMDL
MODEL 9
REMARK VINA RESULT:      -6.3      1.556      2.250
REMARK  Name = 
REMARK  2 active torsions:
REMARK  status: ('A' for Active; 'I' for Inactive)
REMARK    1  A    between atoms: C_5  and  C_6
REMARK    2  A    between atoms: C_17  and  C_18
REMARK                            x       y       z     vdW  Elec       q    Type
REMARK                         _______ _______ _______ _____ _____    ______ ____
ROOT
ATOM      1  O   UNL     1       7.142  17.668  22.663  0.00  0.00    +0.000 OA
ATOM      2  C   UNL     1       6.037  17.171  22.677  0.00  0.00    +0.000 C 
ATOM      3  C   UNL     1       4.965  17.640  23.656  0.00  0.00    +0.000 C 
ATOM      4  S   UNL     1       3.396  16.985  23.070  0.00  0.00    +0.000 S 
ATOM      5  C   UNL     1       4.227  15.691  22.111  0.00  0.00    +0.000 C 
ATOM      6  N   UNL     1       5.557  16.176  21.831  0.00  0.00    +0.000 N 
ATOM      7  C   UNL     1       6.393  15.740  20.816  0.00  0.00    +0.000 A 
ATOM      8  N   UNL     1       7.243  14.740  20.853  0.00  0.00    +0.000 NA
ATOM      9  C   UNL     1       7.938  14.649  19.644  0.00  0.00    +0.000 A 
ATOM     10  C   UNL     1       7.601  15.631  18.727  0.00  0.00    +0.000 A 
ATOM     11  S   UNL     1       6.381  16.647  19.362  0.00  0.00    +0.000 S 
ENDROOT
BRANCH   9  12
ATOM     12  C   UNL     1       8.951  13.528  19.427  0.00  0.00    +0.000 C 
ATOM     13  C   UNL     1       8.593  12.679  18.176  0.00  0.00    +0.000 C 
ATOM     14  C   UNL     1       9.627  11.561  17.956  0.00  0.00    +0.000 C 
ATOM     15  C   UNL     1      11.019  12.181  17.759  0.00  0.00    +0.000 C 
ATOM     16  C   UNL     1      11.412  12.992  19.003  0.00  0.00    +0.000 C 
ATOM     17  C   UNL     1      11.428  12.074  20.234  0.00  0.00    +0.000 C 
ATOM     18  C   UNL     1      10.038  11.454  20.438  0.00  0.00    +0.000 C 
ATOM     19  C   UNL     1       9.654  10.645  19.189  0.00  0.00    +0.000 C 
ATOM     20  C   UNL     1       9.005  12.576  20.651  0.00  0.00    +0.000 C 
ATOM     21  C   UNL     1      10.377  14.107  19.218  0.00  0.00    +0.000 C 
ENDBRANCH   9  12
BRANCH   5  22
ATOM     22  C   UNL     1       3.446  15.267  20.898  0.00  0.00    +0.000 A 
ATOM     23  C   UNL     1       3.222  13.893  20.648  0.00  0.00    +0.000 A 
ATOM     24  C   UNL     1       2.349  13.481  19.648  0.00  0.00    +0.000 A 
ATOM     25  C   UNL     1       1.692  14.434  18.876  0.00  0.00    +0.000 A 
ATOM     26  C   UNL     1       1.917  15.796  19.088  0.00  0.00    +0.000 A 
ATOM     27 CL   UNL     1       0.998  16.913  18.138  0.00  0.00    +0.000 Cl
ATOM     28  C   UNL     1       2.806  16.221  20.083  0.00  0.00    +0.000 A 
ATOM     29 CL   UNL     1       3.078  17.921  20.327  0.00  0.00    +0.000 Cl
ENDBRANCH   5  22
TORSDOF 2
ENDMDL
