MODEL 1
REMARK VINA RESULT:      -5.7      0.000      0.000
REMARK  Name = 
REMARK  4 active torsions:
REMARK  status: ('A' for Active; 'I' for Inactive)
REMARK    1  A    between atoms: C_2  and  C_3
REMARK    2  A    between atoms: C_3  and  N_4
REMARK    3  A    between atoms: C_5  and  S_6
REMARK    4  A    between atoms: C_9  and  C_10
REMARK                            x       y       z     vdW  Elec       q    Type
REMARK                         _______ _______ _______ _____ _____    ______ ____
ROOT
ATOM      1  N   UNL     1       4.896   4.150  17.602  0.00  0.00    +0.000 N 
ATOM      2  C   UNL     1       4.300   3.168  18.354  0.00  0.00    +0.000 A 
ATOM      3  N   UNL     1       4.806   3.165  19.564  0.00  0.00    +0.000 NA
ATOM      4  N   UNL     1       5.741   4.165  19.623  0.00  0.00    +0.000 NA
ATOM      5  C   UNL     1       5.772   4.785  18.460  0.00  0.00    +0.000 A 
ENDROOT
BRANCH   5   6
ATOM      6  C   UNL     1       6.656   5.960  18.225  0.00  0.00    +0.000 A 
ATOM      7  C   UNL     1       6.583   7.028  17.299  0.00  0.00    +0.000 A 
ATOM      8  C   UNL     1       7.680   7.824  17.541  0.00  0.00    +0.000 A 
ATOM      9  O   UNL     1       8.415   7.324  18.566  0.00  0.00    +0.000 OA
ATOM     10  C   UNL     1       7.783   6.200  18.985  0.00  0.00    +0.000 A 
ENDBRANCH   5   6
BRANCH   2  11
ATOM     11  S   UNL     1       3.068   2.076  17.824  0.00  0.00    +0.000 S 
ATOM     12  H   UNL     1       2.995   2.384  16.526  0.00  0.00    +0.000 HD
ENDBRANCH   2  11
BRANCH   1  13
ATOM     13  C   UNL     1       4.752   4.369  16.176  0.00  0.00    +0.000 C 
BRANCH  13  15
ATOM     14  C   UNL     1       6.141   4.085  14.102  0.00  0.00    +0.000 C 
ATOM     15  C   UNL     1       5.886   3.789  15.385  0.00  0.00    +0.000 C 
ENDBRANCH  13  15
ENDBRANCH   1  13
TORSDOF 4
ENDMDL
MODEL 2
REMARK VINA RESULT:      -5.7      3.083      4.410
REMARK  Name = 
REMARK  4 active torsions:
REMARK  status: ('A' for Active; 'I' for Inactive)
REMARK    1  A    between atoms: C_2  and  C_3
REMARK    2  A    between atoms: C_3  and  N_4
REMARK    3  A    between atoms: C_5  and  S_6
REMARK    4  A    between atoms: C_9  and  C_10
REMARK                            x       y       z     vdW  Elec       q    Type
REMARK                         _______ _______ _______ _____ _____    ______ ____
ROOT
ATOM      1  N   UNL     1       5.633   5.482  17.748  0.00  0.00    +0.000 N 
ATOM      2  C   UNL     1       6.711   6.046  18.387  0.00  0.00    +0.000 A 
ATOM      3  N   UNL     1       6.902   5.455  19.541  0.00  0.00    +0.000 NA
ATOM      4  N   UNL     1       5.950   4.478  19.670  0.00  0.00    +0.000 NA
ATOM      5  C   UNL     1       5.209   4.464  18.579  0.00  0.00    +0.000 A 
ENDROOT
BRANCH   5   6
ATOM      6  C   UNL     1       4.115   3.472  18.392  0.00  0.00    +0.000 A 
ATOM      7  C   UNL     1       3.081   3.375  17.428  0.00  0.00    +0.000 A 
ATOM      8  C   UNL     1       2.359   2.247  17.750  0.00  0.00    +0.000 A 
ATOM      9  O   UNL     1       2.889   1.636  18.839  0.00  0.00    +0.000 OA
ATOM     10  C   UNL     1       3.961   2.376  19.217  0.00  0.00    +0.000 A 
ENDBRANCH   5   6
BRANCH   2  11
ATOM     11  S   UNL     1       7.691   7.342  17.795  0.00  0.00    +0.000 S 
ATOM     12  H   UNL     1       7.741   8.135  18.868  0.00  0.00    +0.000 HD
ENDBRANCH   2  11
BRANCH   1  13
ATOM     13  C   UNL     1       4.985   5.956  16.542  0.00  0.00    +0.000 C 
BRANCH  13  15
ATOM     14  C   UNL     1       5.699   4.205  14.887  0.00  0.00    +0.000 C 
ATOM     15  C   UNL     1       5.668   5.483  15.294  0.00  0.00    +0.000 C 
ENDBRANCH  13  15
ENDBRANCH   1  13
TORSDOF 4
ENDMDL
MODEL 3
REMARK VINA RESULT:      -5.7      2.175      3.084
REMARK  Name = 
REMARK  4 active torsions:
REMARK  status: ('A' for Active; 'I' for Inactive)
REMARK    1  A    between atoms: C_2  and  C_3
REMARK    2  A    between atoms: C_3  and  N_4
REMARK    3  A    between atoms: C_5  and  S_6
REMARK    4  A    between atoms: C_9  and  C_10
REMARK                            x       y       z     vdW  Elec       q    Type
REMARK                         _______ _______ _______ _____ _____    ______ ____
ROOT
ATOM      1  N   UNL     1       3.299   4.059  18.756  0.00  0.00    +0.000 N 
ATOM      2  C   UNL     1       2.847   3.395  19.871  0.00  0.00    +0.000 A 
ATOM      3  N   UNL     1       3.804   2.647  20.362  0.00  0.00    +0.000 NA
ATOM      4  N   UNL     1       4.913   2.822  19.575  0.00  0.00    +0.000 NA
ATOM      5  C   UNL     1       4.627   3.699  18.632  0.00  0.00    +0.000 A 
ENDROOT
BRANCH   5   6
ATOM      6  C   UNL     1       5.648   4.143  17.643  0.00  0.00    +0.000 A 
ATOM      7  C   UNL     1       5.676   4.097  16.228  0.00  0.00    +0.000 A 
ATOM      8  C   UNL     1       6.879   4.651  15.849  0.00  0.00    +0.000 A 
ATOM      9  O   UNL     1       7.585   5.049  16.937  0.00  0.00    +0.000 OA
ATOM     10  C   UNL     1       6.828   4.749  18.022  0.00  0.00    +0.000 A 
ENDBRANCH   5   6
BRANCH   2  11
ATOM     11  S   UNL     1       1.261   3.499  20.552  0.00  0.00    +0.000 S 
ATOM     12  H   UNL     1       1.206   4.795  20.875  0.00  0.00    +0.000 HD
ENDBRANCH   2  11
BRANCH   1  13
ATOM     13  C   UNL     1       2.512   4.840  17.823  0.00  0.00    +0.000 C 
BRANCH  13  15
ATOM     14  C   UNL     1       3.452   7.171  17.805  0.00  0.00    +0.000 C 
ATOM     15  C   UNL     1       2.496   6.301  18.162  0.00  0.00    +0.000 C 
ENDBRANCH  13  15
ENDBRANCH   1  13
TORSDOF 4
ENDMDL
MODEL 4
REMARK VINA RESULT:      -5.7      3.120      4.515
REMARK  Name = 
REMARK  4 active torsions:
REMARK  status: ('A' for Active; 'I' for Inactive)
REMARK    1  A    between atoms: C_2  and  C_3
REMARK    2  A    between atoms: C_3  and  N_4
REMARK    3  A    between atoms: C_5  and  S_6
REMARK    4  A    between atoms: C_9  and  C_10
REMARK                            x       y       z     vdW  Elec       q    Type
REMARK                         _______ _______ _______ _____ _____    ______ ____
ROOT
ATOM      1  N   UNL     1       5.490   5.529  17.640  0.00  0.00    +0.000 N 
ATOM      2  C   UNL     1       6.588   5.947  18.350  0.00  0.00    +0.000 A 
ATOM      3  N   UNL     1       6.655   5.300  19.488  0.00  0.00    +0.000 NA
ATOM      4  N   UNL     1       5.597   4.431  19.533  0.00  0.00    +0.000 NA
ATOM      5  C   UNL     1       4.915   4.537  18.409  0.00  0.00    +0.000 A 
ENDROOT
BRANCH   5   6
ATOM      6  C   UNL     1       3.730   3.679  18.132  0.00  0.00    +0.000 A 
ATOM      7  C   UNL     1       3.587   2.276  18.006  0.00  0.00    +0.000 A 
ATOM      8  C   UNL     1       2.254   2.046  17.746  0.00  0.00    +0.000 A 
ATOM      9  O   UNL     1       1.565   3.215  17.717  0.00  0.00    +0.000 OA
ATOM     10  C   UNL     1       2.463   4.201  17.964  0.00  0.00    +0.000 A 
ENDBRANCH   5   6
BRANCH   2  11
ATOM     11  S   UNL     1       7.733   7.146  17.855  0.00  0.00    +0.000 S 
ATOM     12  H   UNL     1       7.817   7.891  18.961  0.00  0.00    +0.000 HD
ENDBRANCH   2  11
BRANCH   1  13
ATOM     13  C   UNL     1       4.959   6.113  16.424  0.00  0.00    +0.000 C 
BRANCH  13  15
ATOM     14  C   UNL     1       5.778   4.214  14.997  0.00  0.00    +0.000 C 
ATOM     15  C   UNL     1       5.567   5.525  15.186  0.00  0.00    +0.000 C 
ENDBRANCH  13  15
ENDBRANCH   1  13
TORSDOF 4
ENDMDL
MODEL 5
REMARK VINA RESULT:      -5.6      3.656      5.274
REMARK  Name = 
REMARK  4 active torsions:
REMARK  status: ('A' for Active; 'I' for Inactive)
REMARK    1  A    between atoms: C_2  and  C_3
REMARK    2  A    between atoms: C_3  and  N_4
REMARK    3  A    between atoms: C_5  and  S_6
REMARK    4  A    between atoms: C_9  and  C_10
REMARK                            x       y       z     vdW  Elec       q    Type
REMARK                         _______ _______ _______ _____ _____    ______ ____
ROOT
ATOM      1  N   UNL     1       4.643   5.317  18.067  0.00  0.00    +0.000 N 
ATOM      2  C   UNL     1       5.993   5.394  18.308  0.00  0.00    +0.000 A 
ATOM      3  N   UNL     1       6.356   4.431  19.120  0.00  0.00    +0.000 NA
ATOM      4  N   UNL     1       5.239   3.695  19.415  0.00  0.00    +0.000 NA
ATOM      5  C   UNL     1       4.214   4.199  18.755  0.00  0.00    +0.000 A 
ENDROOT
BRANCH   5   6
ATOM      6  C   UNL     1       2.861   3.583  18.827  0.00  0.00    +0.000 A 
ATOM      7  C   UNL     1       1.779   3.779  19.719  0.00  0.00    +0.000 A 
ATOM      8  C   UNL     1       0.776   2.933  19.301  0.00  0.00    +0.000 A 
ATOM      9  O   UNL     1       1.165   2.239  18.201  0.00  0.00    +0.000 OA
ATOM     10  C   UNL     1       2.425   2.647  17.911  0.00  0.00    +0.000 A 
ENDBRANCH   5   6
BRANCH   2  11
ATOM     11  S   UNL     1       7.084   6.571  17.661  0.00  0.00    +0.000 S 
ATOM     12  H   UNL     1       6.396   7.697  17.867  0.00  0.00    +0.000 HD
ENDBRANCH   2  11
BRANCH   1  13
ATOM     13  C   UNL     1       3.821   6.288  17.374  0.00  0.00    +0.000 C 
BRANCH  13  15
ATOM     14  C   UNL     1       2.278   8.195  17.919  0.00  0.00    +0.000 C 
ATOM     15  C   UNL     1       3.070   7.186  18.311  0.00  0.00    +0.000 C 
ENDBRANCH  13  15
ENDBRANCH   1  13
TORSDOF 4
ENDMDL
MODEL 6
REMARK VINA RESULT:      -5.6      2.345      3.517
REMARK  Name = 
REMARK  4 active torsions:
REMARK  status: ('A' for Active; 'I' for Inactive)
REMARK    1  A    between atoms: C_2  and  C_3
REMARK    2  A    between atoms: C_3  and  N_4
REMARK    3  A    between atoms: C_5  and  S_6
REMARK    4  A    between atoms: C_9  and  C_10
REMARK                            x       y       z     vdW  Elec       q    Type
REMARK                         _______ _______ _______ _____ _____    ______ ____
ROOT
ATOM      1  N   UNL     1       3.902   4.728  18.577  0.00  0.00    +0.000 N 
ATOM      2  C   UNL     1       2.995   5.566  19.179  0.00  0.00    +0.000 A 
ATOM      3  N   UNL     1       3.066   6.759  18.640  0.00  0.00    +0.000 NA
ATOM      4  N   UNL     1       4.021   6.713  17.658  0.00  0.00    +0.000 NA
ATOM      5  C   UNL     1       4.499   5.486  17.589  0.00  0.00    +0.000 A 
ENDROOT
BRANCH   5   6
ATOM      6  C   UNL     1       5.522   5.102  16.578  0.00  0.00    +0.000 A 
ATOM      7  C   UNL     1       5.406   4.656  15.239  0.00  0.00    +0.000 A 
ATOM      8  C   UNL     1       6.691   4.449  14.789  0.00  0.00    +0.000 A 
ATOM      9  O   UNL     1       7.591   4.754  15.759  0.00  0.00    +0.000 OA
ATOM     10  C   UNL     1       6.876   5.161  16.837  0.00  0.00    +0.000 A 
ENDBRANCH   5   6
BRANCH   2  11
ATOM     11  S   UNL     1       1.910   5.152  20.460  0.00  0.00    +0.000 S 
ATOM     12  H   UNL     1       0.901   5.994  20.223  0.00  0.00    +0.000 HD
ENDBRANCH   2  11
BRANCH   1  13
ATOM     13  C   UNL     1       4.264   3.387  18.992  0.00  0.00    +0.000 C 
BRANCH  13  15
ATOM     14  C   UNL     1       2.387   2.250  17.768  0.00  0.00    +0.000 C 
ATOM     15  C   UNL     1       3.684   2.329  18.102  0.00  0.00    +0.000 C 
ENDBRANCH  13  15
ENDBRANCH   1  13
TORSDOF 4
ENDMDL
MODEL 7
REMARK VINA RESULT:      -5.6      2.400      3.415
REMARK  Name = 
REMARK  4 active torsions:
REMARK  status: ('A' for Active; 'I' for Inactive)
REMARK    1  A    between atoms: C_2  and  C_3
REMARK    2  A    between atoms: C_3  and  N_4
REMARK    3  A    between atoms: C_5  and  S_6
REMARK    4  A    between atoms: C_9  and  C_10
REMARK                            x       y       z     vdW  Elec       q    Type
REMARK                         _______ _______ _______ _____ _____    ______ ____
ROOT
ATOM      1  N   UNL     1       3.465   4.424  18.820  0.00  0.00    +0.000 N 
ATOM      2  C   UNL     1       2.567   3.491  19.279  0.00  0.00    +0.000 A 
ATOM      3  N   UNL     1       2.716   2.368  18.619  0.00  0.00    +0.000 NA
ATOM      4  N   UNL     1       3.732   2.549  17.718  0.00  0.00    +0.000 NA
ATOM      5  C   UNL     1       4.213   3.769  17.861  0.00  0.00    +0.000 A 
ENDROOT
BRANCH   5   6
ATOM      6  C   UNL     1       5.367   4.253  17.055  0.00  0.00    +0.000 A 
ATOM      7  C   UNL     1       5.501   4.544  15.676  0.00  0.00    +0.000 A 
ATOM      8  C   UNL     1       6.803   4.956  15.494  0.00  0.00    +0.000 A 
ATOM      9  O   UNL     1       7.474   4.951  16.673  0.00  0.00    +0.000 OA
ATOM     10  C   UNL     1       6.595   4.536  17.619  0.00  0.00    +0.000 A 
ENDBRANCH   5   6
BRANCH   2  11
ATOM     11  S   UNL     1       1.398   3.723  20.532  0.00  0.00    +0.000 S 
ATOM     12  H   UNL     1       1.348   5.057  20.591  0.00  0.00    +0.000 HD
ENDBRANCH   2  11
BRANCH   1  13
ATOM     13  C   UNL     1       3.513   5.833  19.157  0.00  0.00    +0.000 C 
BRANCH  13  15
ATOM     14  C   UNL     1       2.972   7.864  17.779  0.00  0.00    +0.000 C 
ATOM     15  C   UNL     1       2.629   6.667  18.279  0.00  0.00    +0.000 C 
ENDBRANCH  13  15
ENDBRANCH   1  13
TORSDOF 4
ENDMDL
MODEL 8
REMARK VINA RESULT:      -5.6      2.196      3.126
REMARK  Name = 
REMARK  4 active torsions:
REMARK  status: ('A' for Active; 'I' for Inactive)
REMARK    1  A    between atoms: C_2  and  C_3
REMARK    2  A    between atoms: C_3  and  N_4
REMARK    3  A    between atoms: C_5  and  S_6
REMARK    4  A    between atoms: C_9  and  C_10
REMARK                            x       y       z     vdW  Elec       q    Type
REMARK                         _______ _______ _______ _____ _____    ______ ____
ROOT
ATOM      1  N   UNL     1       3.520   4.227  19.827  0.00  0.00    +0.000 N 
ATOM      2  C   UNL     1       3.091   3.114  20.508  0.00  0.00    +0.000 A 
ATOM      3  N   UNL     1       4.011   2.182  20.463  0.00  0.00    +0.000 NA
ATOM      4  N   UNL     1       5.073   2.682  19.756  0.00  0.00    +0.000 NA
ATOM      5  C   UNL     1       4.800   3.924  19.405  0.00  0.00    +0.000 A 
ENDROOT
BRANCH   5   6
ATOM      6  C   UNL     1       5.784   4.760  18.665  0.00  0.00    +0.000 A 
ATOM      7  C   UNL     1       6.849   5.582  19.110  0.00  0.00    +0.000 A 
ATOM      8  C   UNL     1       7.422   6.117  17.977  0.00  0.00    +0.000 A 
ATOM      9  O   UNL     1       6.788   5.666  16.864  0.00  0.00    +0.000 OA
ATOM     10  C   UNL     1       5.804   4.835  17.287  0.00  0.00    +0.000 A 
ENDBRANCH   5   6
BRANCH   2  11
ATOM     11  S   UNL     1       1.570   2.927  21.312  0.00  0.00    +0.000 S 
ATOM     12  H   UNL     1       1.212   4.203  21.479  0.00  0.00    +0.000 HD
ENDBRANCH   2  11
BRANCH   1  13
ATOM     13  C   UNL     1       2.742   5.402  19.490  0.00  0.00    +0.000 C 
BRANCH  13  15
ATOM     14  C   UNL     1       1.538   4.271  17.597  0.00  0.00    +0.000 C 
ATOM     15  C   UNL     1       2.169   5.339  18.106  0.00  0.00    +0.000 C 
ENDBRANCH  13  15
ENDBRANCH   1  13
TORSDOF 4
ENDMDL
MODEL 9
REMARK VINA RESULT:      -5.5      2.271      2.939
REMARK  Name = 
REMARK  4 active torsions:
REMARK  status: ('A' for Active; 'I' for Inactive)
REMARK    1  A    between atoms: C_2  and  C_3
REMARK    2  A    between atoms: C_3  and  N_4
REMARK    3  A    between atoms: C_5  and  S_6
REMARK    4  A    between atoms: C_9  and  C_10
REMARK                            x       y       z     vdW  Elec       q    Type
REMARK                         _______ _______ _______ _____ _____    ______ ____
ROOT
ATOM      1  N   UNL     1       3.655   4.990  19.670  0.00  0.00    +0.000 N 
ATOM      2  C   UNL     1       3.071   3.804  20.039  0.00  0.00    +0.000 A 
ATOM      3  N   UNL     1       3.877   2.807  19.767  0.00  0.00    +0.000 NA
ATOM      4  N   UNL     1       5.018   3.334  19.221  0.00  0.00    +0.000 NA
ATOM      5  C   UNL     1       4.907   4.648  19.196  0.00  0.00    +0.000 A 
ENDROOT
BRANCH   5   6
ATOM      6  C   UNL     1       6.012   5.516  18.704  0.00  0.00    +0.000 A 
ATOM      7  C   UNL     1       6.134   6.329  17.552  0.00  0.00    +0.000 A 
ATOM      8  C   UNL     1       7.384   6.903  17.616  0.00  0.00    +0.000 A 
ATOM      9  O   UNL     1       8.033   6.509  18.740  0.00  0.00    +0.000 OA
ATOM     10  C   UNL     1       7.192   5.677  19.403  0.00  0.00    +0.000 A 
ENDBRANCH   5   6
BRANCH   2  11
ATOM     11  S   UNL     1       1.508   3.610  20.754  0.00  0.00    +0.000 S 
ATOM     12  H   UNL     1       0.715   3.900  19.719  0.00  0.00    +0.000 HD
ENDBRANCH   2  11
BRANCH   1  13
ATOM     13  C   UNL     1       3.034   6.299  19.636  0.00  0.00    +0.000 C 
BRANCH  13  15
ATOM     14  C   UNL     1       2.482   7.935  17.811  0.00  0.00    +0.000 C 
ATOM     15  C   UNL     1       2.552   6.676  18.268  0.00  0.00    +0.000 C 
ENDBRANCH  13  15
ENDBRANCH   1  13
TORSDOF 4
ENDMDL
