MODEL 1
REMARK VINA RESULT:      -7.3      0.000      0.000
REMARK  Name = 
REMARK  7 active torsions:
REMARK  status: ('A' for Active; 'I' for Inactive)
REMARK    1  A    between atoms: C_1  and  C_2
REMARK    2  A    between atoms: N_6  and  C_7
REMARK    3  A    between atoms: N_10  and  C_11
REMARK    4  A    between atoms: C_11  and  C_12
REMARK    5  A    between atoms: C_12  and  C_13
REMARK    6  A    between atoms: C_13  and  N_14
REMARK    7  A    between atoms: N_14  and  C_15
REMARK                            x       y       z     vdW  Elec       q    Type
REMARK                         _______ _______ _______ _____ _____    ______ ____
ROOT
ATOM      1  C   UNL     1       5.692   6.070  18.742  0.00  0.00    +0.000 C 
ENDROOT
BRANCH   1  11
ATOM      2  C   UNL     1       3.257   7.437  17.793  0.00  0.00    +0.000 C 
ATOM      3  C   UNL     1       3.276   5.960  18.075  0.00  0.00    +0.000 A 
ATOM      4  C   UNL     1       2.154   5.254  17.884  0.00  0.00    +0.000 A 
ATOM      5  C   UNL     1       2.114   3.811  18.144  0.00  0.00    +0.000 A 
ATOM      6  O   UNL     1       1.060   3.210  17.959  0.00  0.00    +0.000 OA
ATOM      7  N   UNL     1       3.290   3.248  18.580  0.00  0.00    +0.000 N 
ATOM      8  C   UNL     1       3.315   1.821  18.851  0.00  0.00    +0.000 C 
ATOM      9  C   UNL     1       4.475   3.949  18.782  0.00  0.00    +0.000 A 
ATOM     10  O   UNL     1       5.505   3.386  19.161  0.00  0.00    +0.000 OA
ATOM     11  N   UNL     1       4.431   5.331  18.532  0.00  0.00    +0.000 N 
ENDBRANCH   1  11
BRANCH   1  12
ATOM     12  C   UNL     1       6.352   6.481  17.423  0.00  0.00    +0.000 C 
BRANCH  12  13
ATOM     13  C   UNL     1       7.172   5.348  16.791  0.00  0.00    +0.000 C 
BRANCH  13  14
ATOM     14  N   UNL     1       7.508   5.723  15.415  0.00  0.00    +0.000 N 
ATOM     15  H   UNL     1       8.495   5.941  15.303  0.00  0.00    +0.000 HD
BRANCH  14  16
ATOM     16  C   UNL     1       7.045   4.942  14.347  0.00  0.00    +0.000 A 
ATOM     17  C   UNL     1       5.871   4.185  14.395  0.00  0.00    +0.000 A 
ATOM     18  C   UNL     1       5.420   3.476  13.273  0.00  0.00    +0.000 A 
ATOM     19  C   UNL     1       6.129   3.529  12.076  0.00  0.00    +0.000 A 
ATOM     20  C   UNL     1       7.275   4.312  11.994  0.00  0.00    +0.000 A 
ATOM     21  C   UNL     1       7.714   5.024  13.115  0.00  0.00    +0.000 A 
ENDBRANCH  14  16
ENDBRANCH  13  14
ENDBRANCH  12  13
ENDBRANCH   1  12
TORSDOF 5
ENDMDL
MODEL 2
REMARK VINA RESULT:      -7.2      0.415      1.156
REMARK  Name = 
REMARK  7 active torsions:
REMARK  status: ('A' for Active; 'I' for Inactive)
REMARK    1  A    between atoms: C_1  and  C_2
REMARK    2  A    between atoms: N_6  and  C_7
REMARK    3  A    between atoms: N_10  and  C_11
REMARK    4  A    between atoms: C_11  and  C_12
REMARK    5  A    between atoms: C_12  and  C_13
REMARK    6  A    between atoms: C_13  and  N_14
REMARK    7  A    between atoms: N_14  and  C_15
REMARK                            x       y       z     vdW  Elec       q    Type
REMARK                         _______ _______ _______ _____ _____    ______ ____
ROOT
ATOM      1  C   UNL     1       5.629   5.788  18.980  0.00  0.00    +0.000 C 
ENDROOT
BRANCH   1  11
ATOM      2  C   UNL     1       3.338   7.258  17.845  0.00  0.00    +0.000 C 
ATOM      3  C   UNL     1       3.258   5.790  18.160  0.00  0.00    +0.000 A 
ATOM      4  C   UNL     1       2.113   5.139  17.913  0.00  0.00    +0.000 A 
ATOM      5  C   UNL     1       1.978   3.707  18.202  0.00  0.00    +0.000 A 
ATOM      6  O   UNL     1       0.906   3.159  17.963  0.00  0.00    +0.000 OA
ATOM      7  N   UNL     1       3.091   3.094  18.726  0.00  0.00    +0.000 N 
ATOM      8  C   UNL     1       3.021   1.676  19.030  0.00  0.00    +0.000 C 
ATOM      9  C   UNL     1       4.298   3.736  18.988  0.00  0.00    +0.000 A 
ATOM     10  O   UNL     1       5.269   3.130  19.446  0.00  0.00    +0.000 OA
ATOM     11  N   UNL     1       4.345   5.112  18.705  0.00  0.00    +0.000 N 
ENDBRANCH   1  11
BRANCH   1  12
ATOM     12  C   UNL     1       6.708   5.426  17.954  0.00  0.00    +0.000 C 
BRANCH  12  13
ATOM     13  C   UNL     1       6.488   6.107  16.597  0.00  0.00    +0.000 C 
BRANCH  13  14
ATOM     14  N   UNL     1       7.473   5.586  15.646  0.00  0.00    +0.000 N 
ATOM     15  H   UNL     1       8.186   5.018  16.098  0.00  0.00    +0.000 HD
BRANCH  14  16
ATOM     16  C   UNL     1       7.043   4.990  14.453  0.00  0.00    +0.000 A 
ATOM     17  C   UNL     1       7.757   5.057  13.252  0.00  0.00    +0.000 A 
ATOM     18  C   UNL     1       7.312   4.384  12.107  0.00  0.00    +0.000 A 
ATOM     19  C   UNL     1       6.153   3.614  12.148  0.00  0.00    +0.000 A 
ATOM     20  C   UNL     1       5.452   3.498  13.343  0.00  0.00    +0.000 A 
ATOM     21  C   UNL     1       5.906   4.165  14.485  0.00  0.00    +0.000 A 
ENDBRANCH  14  16
ENDBRANCH  13  14
ENDBRANCH  12  13
ENDBRANCH   1  12
TORSDOF 5
ENDMDL
MODEL 3
REMARK VINA RESULT:      -6.9      4.057      6.150
REMARK  Name = 
REMARK  7 active torsions:
REMARK  status: ('A' for Active; 'I' for Inactive)
REMARK    1  A    between atoms: C_1  and  C_2
REMARK    2  A    between atoms: N_6  and  C_7
REMARK    3  A    between atoms: N_10  and  C_11
REMARK    4  A    between atoms: C_11  and  C_12
REMARK    5  A    between atoms: C_12  and  C_13
REMARK    6  A    between atoms: C_13  and  N_14
REMARK    7  A    between atoms: N_14  and  C_15
REMARK                            x       y       z     vdW  Elec       q    Type
REMARK                         _______ _______ _______ _____ _____    ______ ____
ROOT
ATOM      1  C   UNL     1       7.630   5.918  17.739  0.00  0.00    +0.000 C 
ENDROOT
BRANCH   1  11
ATOM      2  C   UNL     1       6.841   4.957  15.065  0.00  0.00    +0.000 C 
ATOM      3  C   UNL     1       5.971   4.740  16.271  0.00  0.00    +0.000 A 
ATOM      4  C   UNL     1       4.810   4.089  16.120  0.00  0.00    +0.000 A 
ATOM      5  C   UNL     1       3.920   3.851  17.262  0.00  0.00    +0.000 A 
ATOM      6  O   UNL     1       2.864   3.255  17.070  0.00  0.00    +0.000 OA
ATOM      7  N   UNL     1       4.361   4.327  18.474  0.00  0.00    +0.000 N 
ATOM      8  C   UNL     1       3.526   4.118  19.643  0.00  0.00    +0.000 C 
ATOM      9  C   UNL     1       5.563   4.999  18.669  0.00  0.00    +0.000 A 
ATOM     10  O   UNL     1       5.913   5.391  19.786  0.00  0.00    +0.000 OA
ATOM     11  N   UNL     1       6.352   5.209  17.526  0.00  0.00    +0.000 N 
ENDBRANCH   1  11
BRANCH   1  12
ATOM     12  C   UNL     1       7.504   7.427  17.507  0.00  0.00    +0.000 C 
BRANCH  12  13
ATOM     13  C   UNL     1       8.367   8.250  18.472  0.00  0.00    +0.000 C 
BRANCH  13  14
ATOM     14  N   UNL     1       8.560   9.588  17.905  0.00  0.00    +0.000 N 
ATOM     15  H   UNL     1       7.694   9.986  17.549  0.00  0.00    +0.000 HD
BRANCH  14  16
ATOM     16  C   UNL     1       9.295  10.546  18.615  0.00  0.00    +0.000 A 
ATOM     17  C   UNL     1       9.361  10.592  20.011  0.00  0.00    +0.000 A 
ATOM     18  C   UNL     1      10.167  11.531  20.668  0.00  0.00    +0.000 A 
ATOM     19  C   UNL     1      10.938  12.431  19.936  0.00  0.00    +0.000 A 
ATOM     20  C   UNL     1      10.921  12.373  18.547  0.00  0.00    +0.000 A 
ATOM     21  C   UNL     1      10.121  11.427  17.898  0.00  0.00    +0.000 A 
ENDBRANCH  14  16
ENDBRANCH  13  14
ENDBRANCH  12  13
ENDBRANCH   1  12
TORSDOF 5
ENDMDL
MODEL 4
REMARK VINA RESULT:      -6.9      1.667      2.091
REMARK  Name = 
REMARK  7 active torsions:
REMARK  status: ('A' for Active; 'I' for Inactive)
REMARK    1  A    between atoms: C_1  and  C_2
REMARK    2  A    between atoms: N_6  and  C_7
REMARK    3  A    between atoms: N_10  and  C_11
REMARK    4  A    between atoms: C_11  and  C_12
REMARK    5  A    between atoms: C_12  and  C_13
REMARK    6  A    between atoms: C_13  and  N_14
REMARK    7  A    between atoms: N_14  and  C_15
REMARK                            x       y       z     vdW  Elec       q    Type
REMARK                         _______ _______ _______ _____ _____    ______ ____
ROOT
ATOM      1  C   UNL     1       5.170   4.225  17.714  0.00  0.00    +0.000 C 
ENDROOT
BRANCH   1  11
ATOM      2  C   UNL     1       4.171   6.958  17.229  0.00  0.00    +0.000 C 
ATOM      3  C   UNL     1       3.643   6.111  18.354  0.00  0.00    +0.000 A 
ATOM      4  C   UNL     1       2.692   6.617  19.149  0.00  0.00    +0.000 A 
ATOM      5  C   UNL     1       2.142   5.837  20.263  0.00  0.00    +0.000 A 
ATOM      6  O   UNL     1       1.275   6.348  20.967  0.00  0.00    +0.000 OA
ATOM      7  N   UNL     1       2.657   4.572  20.420  0.00  0.00    +0.000 N 
ATOM      8  C   UNL     1       2.149   3.748  21.503  0.00  0.00    +0.000 C 
ATOM      9  C   UNL     1       3.638   4.011  19.609  0.00  0.00    +0.000 A 
ATOM     10  O   UNL     1       4.052   2.863  19.789  0.00  0.00    +0.000 OA
ATOM     11  N   UNL     1       4.132   4.826  18.576  0.00  0.00    +0.000 N 
ENDBRANCH   1  11
BRANCH   1  12
ATOM     12  C   UNL     1       6.568   4.772  18.018  0.00  0.00    +0.000 C 
BRANCH  12  13
ATOM     13  C   UNL     1       7.558   4.543  16.868  0.00  0.00    +0.000 C 
BRANCH  13  14
ATOM     14  N   UNL     1       7.232   5.468  15.778  0.00  0.00    +0.000 N 
ATOM     15  H   UNL     1       7.862   6.265  15.746  0.00  0.00    +0.000 HD
BRANCH  14  16
ATOM     16  C   UNL     1       6.992   4.969  14.491  0.00  0.00    +0.000 A 
ATOM     17  C   UNL     1       7.788   5.273  13.383  0.00  0.00    +0.000 A 
ATOM     18  C   UNL     1       7.541   4.692  12.132  0.00  0.00    +0.000 A 
ATOM     19  C   UNL     1       6.501   3.779  11.973  0.00  0.00    +0.000 A 
ATOM     20  C   UNL     1       5.725   3.429  13.073  0.00  0.00    +0.000 A 
ATOM     21  C   UNL     1       5.983   4.006  14.320  0.00  0.00    +0.000 A 
ENDBRANCH  14  16
ENDBRANCH  13  14
ENDBRANCH  12  13
ENDBRANCH   1  12
TORSDOF 5
ENDMDL
MODEL 5
REMARK VINA RESULT:      -6.8      1.465      1.650
REMARK  Name = 
REMARK  7 active torsions:
REMARK  status: ('A' for Active; 'I' for Inactive)
REMARK    1  A    between atoms: C_1  and  C_2
REMARK    2  A    between atoms: N_6  and  C_7
REMARK    3  A    between atoms: N_10  and  C_11
REMARK    4  A    between atoms: C_11  and  C_12
REMARK    5  A    between atoms: C_12  and  C_13
REMARK    6  A    between atoms: C_13  and  N_14
REMARK    7  A    between atoms: N_14  and  C_15
REMARK                            x       y       z     vdW  Elec       q    Type
REMARK                         _______ _______ _______ _____ _____    ______ ____
ROOT
ATOM      1  C   UNL     1       4.014   5.834  17.348  0.00  0.00    +0.000 C 
ENDROOT
BRANCH   1  11
ATOM      2  C   UNL     1       2.390   7.273  19.345  0.00  0.00    +0.000 C 
ATOM      3  C   UNL     1       2.436   5.771  19.298  0.00  0.00    +0.000 A 
ATOM      4  C   UNL     1       1.715   5.077  20.187  0.00  0.00    +0.000 A 
ATOM      5  C   UNL     1       1.724   3.609  20.189  0.00  0.00    +0.000 A 
ATOM      6  O   UNL     1       1.050   3.019  21.029  0.00  0.00    +0.000 OA
ATOM      7  N   UNL     1       2.503   3.014  19.225  0.00  0.00    +0.000 N 
ATOM      8  C   UNL     1       2.549   1.563  19.173  0.00  0.00    +0.000 C 
ATOM      9  C   UNL     1       3.257   3.703  18.282  0.00  0.00    +0.000 A 
ATOM     10  O   UNL     1       3.927   3.114  17.430  0.00  0.00    +0.000 OA
ATOM     11  N   UNL     1       3.216   5.106  18.356  0.00  0.00    +0.000 N 
ENDBRANCH   1  11
BRANCH   1  12
ATOM     12  C   UNL     1       5.472   6.016  17.782  0.00  0.00    +0.000 C 
BRANCH  12  13
ATOM     13  C   UNL     1       6.471   5.518  16.730  0.00  0.00    +0.000 C 
BRANCH  13  14
ATOM     14  N   UNL     1       5.774   4.610  15.814  0.00  0.00    +0.000 N 
ATOM     15  H   UNL     1       4.769   4.762  15.809  0.00  0.00    +0.000 HD
BRANCH  14  16
ATOM     16  C   UNL     1       6.258   4.428  14.512  0.00  0.00    +0.000 A 
ATOM     17  C   UNL     1       5.649   3.593  13.570  0.00  0.00    +0.000 A 
ATOM     18  C   UNL     1       6.138   3.500  12.260  0.00  0.00    +0.000 A 
ATOM     19  C   UNL     1       7.235   4.260  11.863  0.00  0.00    +0.000 A 
ATOM     20  C   UNL     1       7.828   5.130  12.771  0.00  0.00    +0.000 A 
ATOM     21  C   UNL     1       7.330   5.224  14.075  0.00  0.00    +0.000 A 
ENDBRANCH  14  16
ENDBRANCH  13  14
ENDBRANCH  12  13
ENDBRANCH   1  12
TORSDOF 5
ENDMDL
MODEL 6
REMARK VINA RESULT:      -6.7      1.398      1.824
REMARK  Name = 
REMARK  7 active torsions:
REMARK  status: ('A' for Active; 'I' for Inactive)
REMARK    1  A    between atoms: C_1  and  C_2
REMARK    2  A    between atoms: N_6  and  C_7
REMARK    3  A    between atoms: N_10  and  C_11
REMARK    4  A    between atoms: C_11  and  C_12
REMARK    5  A    between atoms: C_12  and  C_13
REMARK    6  A    between atoms: C_13  and  N_14
REMARK    7  A    between atoms: N_14  and  C_15
REMARK                            x       y       z     vdW  Elec       q    Type
REMARK                         _______ _______ _______ _____ _____    ______ ____
ROOT
ATOM      1  C   UNL     1       4.041   5.816  17.202  0.00  0.00    +0.000 C 
ENDROOT
BRANCH   1  11
ATOM      2  C   UNL     1       2.632   7.429  19.230  0.00  0.00    +0.000 C 
ATOM      3  C   UNL     1       2.552   5.927  19.218  0.00  0.00    +0.000 A 
ATOM      4  C   UNL     1       1.816   5.314  20.155  0.00  0.00    +0.000 A 
ATOM      5  C   UNL     1       1.703   3.852  20.193  0.00  0.00    +0.000 A 
ATOM      6  O   UNL     1       1.021   3.338  21.074  0.00  0.00    +0.000 OA
ATOM      7  N   UNL     1       2.386   3.173  19.211  0.00  0.00    +0.000 N 
ATOM      8  C   UNL     1       2.310   1.723  19.193  0.00  0.00    +0.000 C 
ATOM      9  C   UNL     1       3.153   3.777  18.220  0.00  0.00    +0.000 A 
ATOM     10  O   UNL     1       3.732   3.115  17.355  0.00  0.00    +0.000 OA
ATOM     11  N   UNL     1       3.231   5.179  18.260  0.00  0.00    +0.000 N 
ENDBRANCH   1  11
BRANCH   1  12
ATOM     12  C   UNL     1       5.492   6.044  17.638  0.00  0.00    +0.000 C 
BRANCH  12  13
ATOM     13  C   UNL     1       6.466   5.043  17.003  0.00  0.00    +0.000 C 
BRANCH  13  14
ATOM     14  N   UNL     1       7.052   5.653  15.806  0.00  0.00    +0.000 N 
ATOM     15  H   UNL     1       8.030   5.899  15.937  0.00  0.00    +0.000 HD
BRANCH  14  16
ATOM     16  C   UNL     1       6.849   5.063  14.552  0.00  0.00    +0.000 A 
ATOM     17  C   UNL     1       7.696   5.260  13.457  0.00  0.00    +0.000 A 
ATOM     18  C   UNL     1       7.482   4.591  12.245  0.00  0.00    +0.000 A 
ATOM     19  C   UNL     1       6.424   3.694  12.114  0.00  0.00    +0.000 A 
ATOM     20  C   UNL     1       5.596   3.451  13.204  0.00  0.00    +0.000 A 
ATOM     21  C   UNL     1       5.821   4.115  14.413  0.00  0.00    +0.000 A 
ENDBRANCH  14  16
ENDBRANCH  13  14
ENDBRANCH  12  13
ENDBRANCH   1  12
TORSDOF 5
ENDMDL
MODEL 7
REMARK VINA RESULT:      -6.7      1.846      2.990
REMARK  Name = 
REMARK  7 active torsions:
REMARK  status: ('A' for Active; 'I' for Inactive)
REMARK    1  A    between atoms: C_1  and  C_2
REMARK    2  A    between atoms: N_6  and  C_7
REMARK    3  A    between atoms: N_10  and  C_11
REMARK    4  A    between atoms: C_11  and  C_12
REMARK    5  A    between atoms: C_12  and  C_13
REMARK    6  A    between atoms: C_13  and  N_14
REMARK    7  A    between atoms: N_14  and  C_15
REMARK                            x       y       z     vdW  Elec       q    Type
REMARK                         _______ _______ _______ _____ _____    ______ ____
ROOT
ATOM      1  C   UNL     1       5.055   4.174  17.625  0.00  0.00    +0.000 C 
ENDROOT
BRANCH   1  11
ATOM      2  C   UNL     1       3.974   2.806  20.005  0.00  0.00    +0.000 C 
ATOM      3  C   UNL     1       3.538   4.194  19.624  0.00  0.00    +0.000 A 
ATOM      4  C   UNL     1       2.638   4.820  20.393  0.00  0.00    +0.000 A 
ATOM      5  C   UNL     1       2.175   6.174  20.068  0.00  0.00    +0.000 A 
ATOM      6  O   UNL     1       1.344   6.702  20.802  0.00  0.00    +0.000 OA
ATOM      7  N   UNL     1       2.729   6.743  18.946  0.00  0.00    +0.000 N 
ATOM      8  C   UNL     1       2.314   8.084  18.576  0.00  0.00    +0.000 C 
ATOM      9  C   UNL     1       3.671   6.126  18.130  0.00  0.00    +0.000 A 
ATOM     10  O   UNL     1       4.145   6.694  17.142  0.00  0.00    +0.000 OA
ATOM     11  N   UNL     1       4.050   4.822  18.492  0.00  0.00    +0.000 N 
ENDBRANCH   1  11
BRANCH   1  12
ATOM     12  C   UNL     1       6.488   4.545  18.018  0.00  0.00    +0.000 C 
BRANCH  12  13
ATOM     13  C   UNL     1       7.404   4.740  16.802  0.00  0.00    +0.000 C 
BRANCH  13  14
ATOM     14  N   UNL     1       6.655   5.445  15.758  0.00  0.00    +0.000 N 
ATOM     15  H   UNL     1       6.812   6.449  15.779  0.00  0.00    +0.000 HD
BRANCH  14  16
ATOM     16  C   UNL     1       6.674   4.964  14.442  0.00  0.00    +0.000 A 
ATOM     17  C   UNL     1       7.663   5.297  13.511  0.00  0.00    +0.000 A 
ATOM     18  C   UNL     1       7.669   4.732  12.229  0.00  0.00    +0.000 A 
ATOM     19  C   UNL     1       6.695   3.807  11.862  0.00  0.00    +0.000 A 
ATOM     20  C   UNL     1       5.729   3.429  12.787  0.00  0.00    +0.000 A 
ATOM     21  C   UNL     1       5.733   3.989  14.068  0.00  0.00    +0.000 A 
ENDBRANCH  14  16
ENDBRANCH  13  14
ENDBRANCH  12  13
ENDBRANCH   1  12
TORSDOF 5
ENDMDL
MODEL 8
REMARK VINA RESULT:      -6.7      1.007      1.025
REMARK  Name = 
REMARK  7 active torsions:
REMARK  status: ('A' for Active; 'I' for Inactive)
REMARK    1  A    between atoms: C_1  and  C_2
REMARK    2  A    between atoms: N_6  and  C_7
REMARK    3  A    between atoms: N_10  and  C_11
REMARK    4  A    between atoms: C_11  and  C_12
REMARK    5  A    between atoms: C_12  and  C_13
REMARK    6  A    between atoms: C_13  and  N_14
REMARK    7  A    between atoms: N_14  and  C_15
REMARK                            x       y       z     vdW  Elec       q    Type
REMARK                         _______ _______ _______ _____ _____    ______ ____
ROOT
ATOM      1  C   UNL     1       5.020   6.619  18.174  0.00  0.00    +0.000 C 
ENDROOT
BRANCH   1  11
ATOM      2  C   UNL     1       2.095   6.996  18.109  0.00  0.00    +0.000 C 
ATOM      3  C   UNL     1       2.716   5.697  18.545  0.00  0.00    +0.000 A 
ATOM      4  C   UNL     1       1.912   4.690  18.909  0.00  0.00    +0.000 A 
ATOM      5  C   UNL     1       2.462   3.401  19.345  0.00  0.00    +0.000 A 
ATOM      6  O   UNL     1       1.683   2.511  19.674  0.00  0.00    +0.000 OA
ATOM      7  N   UNL     1       3.834   3.305  19.344  0.00  0.00    +0.000 N 
ATOM      8  C   UNL     1       4.438   2.052  19.762  0.00  0.00    +0.000 C 
ATOM      9  C   UNL     1       4.698   4.327  18.965  0.00  0.00    +0.000 A 
ATOM     10  O   UNL     1       5.922   4.177  18.971  0.00  0.00    +0.000 OA
ATOM     11  N   UNL     1       4.098   5.539  18.580  0.00  0.00    +0.000 N 
ENDBRANCH   1  11
BRANCH   1  12
ATOM     12  C   UNL     1       5.460   6.489  16.713  0.00  0.00    +0.000 C 
BRANCH  12  13
ATOM     13  C   UNL     1       6.979   6.332  16.562  0.00  0.00    +0.000 C 
BRANCH  13  14
ATOM     14  N   UNL     1       7.267   4.963  16.124  0.00  0.00    +0.000 N 
ATOM     15  H   UNL     1       6.860   4.265  16.740  0.00  0.00    +0.000 HD
BRANCH  14  16
ATOM     16  C   UNL     1       7.085   4.610  14.780  0.00  0.00    +0.000 A 
ATOM     17  C   UNL     1       6.097   3.724  14.340  0.00  0.00    +0.000 A 
ATOM     18  C   UNL     1       5.917   3.458  12.976  0.00  0.00    +0.000 A 
ATOM     19  C   UNL     1       6.711   4.093  12.025  0.00  0.00    +0.000 A 
ATOM     20  C   UNL     1       7.670   5.011  12.438  0.00  0.00    +0.000 A 
ATOM     21  C   UNL     1       7.839   5.278  13.800  0.00  0.00    +0.000 A 
ENDBRANCH  14  16
ENDBRANCH  13  14
ENDBRANCH  12  13
ENDBRANCH   1  12
TORSDOF 5
ENDMDL
MODEL 9
REMARK VINA RESULT:      -6.6      3.845      7.670
REMARK  Name = 
REMARK  7 active torsions:
REMARK  status: ('A' for Active; 'I' for Inactive)
REMARK    1  A    between atoms: C_1  and  C_2
REMARK    2  A    between atoms: N_6  and  C_7
REMARK    3  A    between atoms: N_10  and  C_11
REMARK    4  A    between atoms: C_11  and  C_12
REMARK    5  A    between atoms: C_12  and  C_13
REMARK    6  A    between atoms: C_13  and  N_14
REMARK    7  A    between atoms: N_14  and  C_15
REMARK                            x       y       z     vdW  Elec       q    Type
REMARK                         _______ _______ _______ _____ _____    ______ ____
ROOT
ATOM      1  C   UNL     1       3.174   7.230  18.717  0.00  0.00    +0.000 C 
ENDROOT
BRANCH   1  11
ATOM      2  C   UNL     1       4.765   5.970  16.577  0.00  0.00    +0.000 C 
ATOM      3  C   UNL     1       3.812   5.175  17.427  0.00  0.00    +0.000 A 
ATOM      4  C   UNL     1       3.692   3.860  17.202  0.00  0.00    +0.000 A 
ATOM      5  C   UNL     1       2.776   3.036  17.999  0.00  0.00    +0.000 A 
ATOM      6  O   UNL     1       2.698   1.837  17.750  0.00  0.00    +0.000 OA
ATOM      7  N   UNL     1       2.074   3.697  18.979  0.00  0.00    +0.000 N 
ATOM      8  C   UNL     1       1.155   2.934  19.805  0.00  0.00    +0.000 C 
ATOM      9  C   UNL     1       2.180   5.058  19.245  0.00  0.00    +0.000 A 
ATOM     10  O   UNL     1       1.534   5.595  20.149  0.00  0.00    +0.000 OA
ATOM     11  N   UNL     1       3.061   5.787  18.427  0.00  0.00    +0.000 N 
ENDBRANCH   1  11
BRANCH   1  12
ATOM     12  C   UNL     1       2.219   8.072  17.865  0.00  0.00    +0.000 C 
BRANCH  12  13
ATOM     13  C   UNL     1       1.497   9.154  18.678  0.00  0.00    +0.000 C 
BRANCH  13  14
ATOM     14  N   UNL     1       1.387   8.703  20.068  0.00  0.00    +0.000 N 
ATOM     15  H   UNL     1       2.286   8.435  20.460  0.00  0.00    +0.000 HD
BRANCH  14  16
ATOM     16  C   UNL     1       0.646   9.456  20.988  0.00  0.00    +0.000 A 
ATOM     17  C   UNL     1      -0.122  10.571  20.636  0.00  0.00    +0.000 A 
ATOM     18  C   UNL     1      -0.897  11.246  21.587  0.00  0.00    +0.000 A 
ATOM     19  C   UNL     1      -0.935  10.803  22.907  0.00  0.00    +0.000 A 
ATOM     20  C   UNL     1      -0.215   9.671  23.268  0.00  0.00    +0.000 A 
ATOM     21  C   UNL     1       0.551   8.996  22.312  0.00  0.00    +0.000 A 
ENDBRANCH  14  16
ENDBRANCH  13  14
ENDBRANCH  12  13
ENDBRANCH   1  12
TORSDOF 5
ENDMDL
