MODEL 1
REMARK VINA RESULT:      -7.6      0.000      0.000
REMARK  Name = 
REMARK  6 active torsions:
REMARK  status: ('A' for Active; 'I' for Inactive)
REMARK    1  A    between atoms: C_1  and  O_2
REMARK    2  A    between atoms: O_2  and  C_3
REMARK    3  A    between atoms: C_6  and  C_7
REMARK    4  A    between atoms: C_12  and  O_13
REMARK    5  A    between atoms: C_20  and  O_21
REMARK    6  A    between atoms: O_21  and  C_22
REMARK                            x       y       z     vdW  Elec       q    Type
REMARK                         _______ _______ _______ _____ _____    ______ ____
ROOT
ATOM      1  C   UNL     1       3.986   4.718  18.524  0.00  0.00    +0.000 C 
ATOM      2  C   UNL     1       3.030   5.647  18.693  0.00  0.00    +0.000 C 
ATOM      3  O   UNL     1       2.722   6.626  17.755  0.00  0.00    +0.000 OA
ATOM      4  C   UNL     1       2.087   7.624  18.447  0.00  0.00    +0.000 A 
ATOM      5  C   UNL     1       1.788   8.864  17.918  0.00  0.00    +0.000 A 
ATOM      6  C   UNL     1       1.275   9.810  18.797  0.00  0.00    +0.000 A 
ATOM      7  C   UNL     1       1.073   9.516  20.159  0.00  0.00    +0.000 A 
ATOM      8  C   UNL     1       1.368   8.243  20.671  0.00  0.00    +0.000 A 
ATOM      9  C   UNL     1       1.869   7.310  19.785  0.00  0.00    +0.000 A 
ATOM     10  C   UNL     1       2.382   5.952  19.999  0.00  0.00    +0.000 C 
ATOM     11  O   UNL     1       2.366   5.300  21.017  0.00  0.00    +0.000 OA
ENDROOT
BRANCH   1  15
ATOM     12  C   UNL     1       6.902   5.062  15.376  0.00  0.00    +0.000 A 
ATOM     13  C   UNL     1       5.961   4.012  15.369  0.00  0.00    +0.000 A 
ATOM     14  C   UNL     1       4.979   3.898  16.365  0.00  0.00    +0.000 A 
ATOM     15  C   UNL     1       4.945   4.815  17.409  0.00  0.00    +0.000 A 
ATOM     16  C   UNL     1       5.945   5.799  17.453  0.00  0.00    +0.000 A 
ATOM     17  C   UNL     1       6.908   5.952  16.453  0.00  0.00    +0.000 A 
BRANCH  12  19
ATOM     18  C   UNL     1       7.414   4.909  13.064  0.00  0.00    +0.000 C 
ATOM     19  O   UNL     1       7.838   5.210  14.390  0.00  0.00    +0.000 OA
ENDBRANCH  12  19
BRANCH  17  20
ATOM     20  O   UNL     1       7.726   7.014  16.718  0.00  0.00    +0.000 OA
ATOM     21  C   UNL     1       7.862   7.487  18.044  0.00  0.00    +0.000 C 
ENDBRANCH  17  20
ENDBRANCH   1  15
BRANCH   6  22
ATOM     22  O   UNL     1       0.975  11.071  18.372  0.00  0.00    +0.000 OA
ATOM     23  H   UNL     1       0.887  11.654  19.145  0.00  0.00    +0.000 HD
ENDBRANCH   6  22
TORSDOF 4
ENDMDL
MODEL 2
REMARK VINA RESULT:      -7.3      2.755      4.266
REMARK  Name = 
REMARK  6 active torsions:
REMARK  status: ('A' for Active; 'I' for Inactive)
REMARK    1  A    between atoms: C_1  and  O_2
REMARK    2  A    between atoms: O_2  and  C_3
REMARK    3  A    between atoms: C_6  and  C_7
REMARK    4  A    between atoms: C_12  and  O_13
REMARK    5  A    between atoms: C_20  and  O_21
REMARK    6  A    between atoms: O_21  and  C_22
REMARK                            x       y       z     vdW  Elec       q    Type
REMARK                         _______ _______ _______ _____ _____    ______ ____
ROOT
ATOM      1  C   UNL     1       2.437   7.313  17.926  0.00  0.00    +0.000 C 
ATOM      2  C   UNL     1       2.082   8.204  18.866  0.00  0.00    +0.000 C 
ATOM      3  O   UNL     1       2.220   7.991  20.233  0.00  0.00    +0.000 OA
ATOM      4  C   UNL     1       1.346   8.855  20.840  0.00  0.00    +0.000 A 
ATOM      5  C   UNL     1       1.036   8.825  22.185  0.00  0.00    +0.000 A 
ATOM      6  C   UNL     1       0.024   9.675  22.611  0.00  0.00    +0.000 A 
ATOM      7  C   UNL     1      -0.653  10.522  21.711  0.00  0.00    +0.000 A 
ATOM      8  C   UNL     1      -0.309  10.548  20.352  0.00  0.00    +0.000 A 
ATOM      9  C   UNL     1       0.705   9.705  19.944  0.00  0.00    +0.000 A 
ATOM     10  C   UNL     1       1.228   9.398  18.608  0.00  0.00    +0.000 C 
ATOM     11  O   UNL     1       0.947   9.925  17.556  0.00  0.00    +0.000 OA
ENDROOT
BRANCH   1  15
ATOM     12  C   UNL     1       3.604   3.336  19.088  0.00  0.00    +0.000 A 
ATOM     13  C   UNL     1       2.243   3.660  18.915  0.00  0.00    +0.000 A 
ATOM     14  C   UNL     1       1.839   4.941  18.503  0.00  0.00    +0.000 A 
ATOM     15  C   UNL     1       2.792   5.930  18.292  0.00  0.00    +0.000 A 
ATOM     16  C   UNL     1       4.135   5.619  18.558  0.00  0.00    +0.000 A 
ATOM     17  C   UNL     1       4.561   4.342  18.933  0.00  0.00    +0.000 A 
BRANCH  12  19
ATOM     18  C   UNL     1       3.790   1.045  18.496  0.00  0.00    +0.000 C 
ATOM     19  O   UNL     1       4.016   2.082  19.447  0.00  0.00    +0.000 OA
ENDBRANCH  12  19
BRANCH  17  20
ATOM     20  O   UNL     1       5.919   4.302  19.080  0.00  0.00    +0.000 OA
ATOM     21  C   UNL     1       6.645   5.501  19.263  0.00  0.00    +0.000 C 
ENDBRANCH  17  20
ENDBRANCH   1  15
BRANCH   6  22
ATOM     22  O   UNL     1      -0.371   9.696  23.916  0.00  0.00    +0.000 OA
ATOM     23  H   UNL     1       0.401   9.527  24.484  0.00  0.00    +0.000 HD
ENDBRANCH   6  22
TORSDOF 4
ENDMDL
MODEL 3
REMARK VINA RESULT:      -7.2      1.298      1.712
REMARK  Name = 
REMARK  6 active torsions:
REMARK  status: ('A' for Active; 'I' for Inactive)
REMARK    1  A    between atoms: C_1  and  O_2
REMARK    2  A    between atoms: O_2  and  C_3
REMARK    3  A    between atoms: C_6  and  C_7
REMARK    4  A    between atoms: C_12  and  O_13
REMARK    5  A    between atoms: C_20  and  O_21
REMARK    6  A    between atoms: O_21  and  C_22
REMARK                            x       y       z     vdW  Elec       q    Type
REMARK                         _______ _______ _______ _____ _____    ______ ____
ROOT
ATOM      1  C   UNL     1       4.189   3.455  17.248  0.00  0.00    +0.000 C 
ATOM      2  C   UNL     1       3.276   4.247  17.835  0.00  0.00    +0.000 C 
ATOM      3  O   UNL     1       3.053   5.574  17.482  0.00  0.00    +0.000 OA
ATOM      4  C   UNL     1       2.444   6.154  18.564  0.00  0.00    +0.000 A 
ATOM      5  C   UNL     1       2.229   7.512  18.696  0.00  0.00    +0.000 A 
ATOM      6  C   UNL     1       1.731   7.949  19.916  0.00  0.00    +0.000 A 
ATOM      7  C   UNL     1       1.463   7.050  20.967  0.00  0.00    +0.000 A 
ATOM      8  C   UNL     1       1.674   5.673  20.804  0.00  0.00    +0.000 A 
ATOM      9  C   UNL     1       2.160   5.250  19.583  0.00  0.00    +0.000 A 
ATOM     10  C   UNL     1       2.595   3.927  19.121  0.00  0.00    +0.000 C 
ATOM     11  O   UNL     1       2.507   2.868  19.699  0.00  0.00    +0.000 OA
ENDROOT
BRANCH   1  15
ATOM     12  C   UNL     1       7.224   5.121  14.689  0.00  0.00    +0.000 A 
ATOM     13  C   UNL     1       6.413   4.059  14.240  0.00  0.00    +0.000 A 
ATOM     14  C   UNL     1       5.394   3.521  15.043  0.00  0.00    +0.000 A 
ATOM     15  C   UNL     1       5.193   4.016  16.327  0.00  0.00    +0.000 A 
ATOM     16  C   UNL     1       6.068   5.009  16.794  0.00  0.00    +0.000 A 
ATOM     17  C   UNL     1       7.064   5.582  15.998  0.00  0.00    +0.000 A 
BRANCH  12  19
ATOM     18  C   UNL     1       8.034   5.527  12.497  0.00  0.00    +0.000 C 
ATOM     19  O   UNL     1       8.192   5.683  13.903  0.00  0.00    +0.000 OA
ENDBRANCH  12  19
BRANCH  17  20
ATOM     20  O   UNL     1       7.737   6.556  16.681  0.00  0.00    +0.000 OA
ATOM     21  C   UNL     1       7.639   6.627  18.091  0.00  0.00    +0.000 C 
ENDBRANCH  17  20
ENDBRANCH   1  15
BRANCH   6  22
ATOM     22  O   UNL     1       1.511   9.275  20.148  0.00  0.00    +0.000 OA
ATOM     23  H   UNL     1       0.760   9.572  19.607  0.00  0.00    +0.000 HD
ENDBRANCH   6  22
TORSDOF 4
ENDMDL
MODEL 4
REMARK VINA RESULT:      -7.1      3.098      4.918
REMARK  Name = 
REMARK  6 active torsions:
REMARK  status: ('A' for Active; 'I' for Inactive)
REMARK    1  A    between atoms: C_1  and  O_2
REMARK    2  A    between atoms: O_2  and  C_3
REMARK    3  A    between atoms: C_6  and  C_7
REMARK    4  A    between atoms: C_12  and  O_13
REMARK    5  A    between atoms: C_20  and  O_21
REMARK    6  A    between atoms: O_21  and  C_22
REMARK                            x       y       z     vdW  Elec       q    Type
REMARK                         _______ _______ _______ _____ _____    ______ ____
ROOT
ATOM      1  C   UNL     1       2.359   7.322  17.833  0.00  0.00    +0.000 C 
ATOM      2  C   UNL     1       2.028   8.193  18.801  0.00  0.00    +0.000 C 
ATOM      3  O   UNL     1       2.281   7.988  20.153  0.00  0.00    +0.000 OA
ATOM      4  C   UNL     1       1.410   8.802  20.827  0.00  0.00    +0.000 A 
ATOM      5  C   UNL     1       1.204   8.756  22.192  0.00  0.00    +0.000 A 
ATOM      6  C   UNL     1       0.182   9.549  22.696  0.00  0.00    +0.000 A 
ATOM      7  C   UNL     1      -0.606  10.358  21.854  0.00  0.00    +0.000 A 
ATOM      8  C   UNL     1      -0.368  10.402  20.472  0.00  0.00    +0.000 A 
ATOM      9  C   UNL     1       0.657   9.616  19.986  0.00  0.00    +0.000 A 
ATOM     10  C   UNL     1       1.093   9.338  18.612  0.00  0.00    +0.000 C 
ATOM     11  O   UNL     1       0.704   9.848  17.587  0.00  0.00    +0.000 OA
ENDROOT
BRANCH   1  15
ATOM     12  C   UNL     1       3.536   3.291  18.783  0.00  0.00    +0.000 A 
ATOM     13  C   UNL     1       4.418   4.152  18.097  0.00  0.00    +0.000 A 
ATOM     14  C   UNL     1       4.070   5.481  17.806  0.00  0.00    +0.000 A 
ATOM     15  C   UNL     1       2.816   5.961  18.166  0.00  0.00    +0.000 A 
ATOM     16  C   UNL     1       1.915   5.065  18.764  0.00  0.00    +0.000 A 
ATOM     17  C   UNL     1       2.255   3.751  19.095  0.00  0.00    +0.000 A 
BRANCH  12  19
ATOM     18  C   UNL     1       4.674   1.844  20.280  0.00  0.00    +0.000 C 
ATOM     19  O   UNL     1       3.877   2.008  19.111  0.00  0.00    +0.000 OA
ENDBRANCH  12  19
BRANCH  17  20
ATOM     20  O   UNL     1       1.213   3.116  19.711  0.00  0.00    +0.000 OA
ATOM     21  C   UNL     1       1.226   2.934  21.113  0.00  0.00    +0.000 C 
ENDBRANCH  17  20
ENDBRANCH   1  15
BRANCH   6  22
ATOM     22  O   UNL     1      -0.112   9.549  24.028  0.00  0.00    +0.000 OA
ATOM     23  H   UNL     1      -0.858  10.153  24.188  0.00  0.00    +0.000 HD
ENDBRANCH   6  22
TORSDOF 4
ENDMDL
MODEL 5
REMARK VINA RESULT:      -7.1      2.868      4.645
REMARK  Name = 
REMARK  6 active torsions:
REMARK  status: ('A' for Active; 'I' for Inactive)
REMARK    1  A    between atoms: C_1  and  O_2
REMARK    2  A    between atoms: O_2  and  C_3
REMARK    3  A    between atoms: C_6  and  C_7
REMARK    4  A    between atoms: C_12  and  O_13
REMARK    5  A    between atoms: C_20  and  O_21
REMARK    6  A    between atoms: O_21  and  C_22
REMARK                            x       y       z     vdW  Elec       q    Type
REMARK                         _______ _______ _______ _____ _____    ______ ____
ROOT
ATOM      1  C   UNL     1       3.098   7.344  17.464  0.00  0.00    +0.000 C 
ATOM      2  C   UNL     1       2.593   8.073  18.474  0.00  0.00    +0.000 C 
ATOM      3  O   UNL     1       2.403   7.590  19.764  0.00  0.00    +0.000 OA
ATOM      4  C   UNL     1       1.469   8.411  20.339  0.00  0.00    +0.000 A 
ATOM      5  C   UNL     1       0.859   8.160  21.552  0.00  0.00    +0.000 A 
ATOM      6  C   UNL     1      -0.170   9.016  21.923  0.00  0.00    +0.000 A 
ATOM      7  C   UNL     1      -0.570  10.086  21.098  0.00  0.00    +0.000 A 
ATOM      8  C   UNL     1       0.076  10.332  19.878  0.00  0.00    +0.000 A 
ATOM      9  C   UNL     1       1.102   9.479  19.526  0.00  0.00    +0.000 A 
ATOM     10  C   UNL     1       1.896   9.378  18.296  0.00  0.00    +0.000 C 
ATOM     11  O   UNL     1       1.894  10.121  17.342  0.00  0.00    +0.000 OA
ENDROOT
BRANCH   1  15
ATOM     12  C   UNL     1       3.463   3.067  17.792  0.00  0.00    +0.000 A 
ATOM     13  C   UNL     1       4.596   3.864  17.531  0.00  0.00    +0.000 A 
ATOM     14  C   UNL     1       4.508   5.263  17.453  0.00  0.00    +0.000 A 
ATOM     15  C   UNL     1       3.275   5.887  17.601  0.00  0.00    +0.000 A 
ATOM     16  C   UNL     1       2.142   5.074  17.768  0.00  0.00    +0.000 A 
ATOM     17  C   UNL     1       2.213   3.684  17.884  0.00  0.00    +0.000 A 
BRANCH  12  19
ATOM     18  C   UNL     1       4.061   1.208  19.141  0.00  0.00    +0.000 C 
ATOM     19  O   UNL     1       3.539   1.706  17.913  0.00  0.00    +0.000 OA
ENDBRANCH  12  19
BRANCH  17  20
ATOM     20  O   UNL     1       0.974   3.146  18.090  0.00  0.00    +0.000 OA
ATOM     21  C   UNL     1       0.592   2.724  19.385  0.00  0.00    +0.000 C 
ENDBRANCH  17  20
ENDBRANCH   1  15
BRANCH   6  22
ATOM     22  O   UNL     1      -0.849   8.831  23.091  0.00  0.00    +0.000 OA
ATOM     23  H   UNL     1      -0.645   9.564  23.697  0.00  0.00    +0.000 HD
ENDBRANCH   6  22
TORSDOF 4
ENDMDL
MODEL 6
REMARK VINA RESULT:      -7.0      2.503      7.567
REMARK  Name = 
REMARK  6 active torsions:
REMARK  status: ('A' for Active; 'I' for Inactive)
REMARK    1  A    between atoms: C_1  and  O_2
REMARK    2  A    between atoms: O_2  and  C_3
REMARK    3  A    between atoms: C_6  and  C_7
REMARK    4  A    between atoms: C_12  and  O_13
REMARK    5  A    between atoms: C_20  and  O_21
REMARK    6  A    between atoms: O_21  and  C_22
REMARK                            x       y       z     vdW  Elec       q    Type
REMARK                         _______ _______ _______ _____ _____    ______ ____
ROOT
ATOM      1  C   UNL     1       2.950   7.943  18.057  0.00  0.00    +0.000 C 
ATOM      2  C   UNL     1       2.825   6.646  17.730  0.00  0.00    +0.000 C 
ATOM      3  O   UNL     1       1.723   5.863  18.058  0.00  0.00    +0.000 OA
ATOM      4  C   UNL     1       2.154   4.563  18.000  0.00  0.00    +0.000 A 
ATOM      5  C   UNL     1       1.418   3.482  18.445  0.00  0.00    +0.000 A 
ATOM      6  C   UNL     1       2.059   2.250  18.447  0.00  0.00    +0.000 A 
ATOM      7  C   UNL     1       3.394   2.114  18.020  0.00  0.00    +0.000 A 
ATOM      8  C   UNL     1       4.117   3.223  17.557  0.00  0.00    +0.000 A 
ATOM      9  C   UNL     1       3.465   4.440  17.551  0.00  0.00    +0.000 A 
ATOM     10  C   UNL     1       3.947   5.793  17.248  0.00  0.00    +0.000 C 
ATOM     11  O   UNL     1       5.026   6.121  16.813  0.00  0.00    +0.000 OA
ENDROOT
BRANCH   1  15
ATOM     12  C   UNL     1       0.109   9.829  20.685  0.00  0.00    +0.000 A 
ATOM     13  C   UNL     1       0.861   8.720  21.122  0.00  0.00    +0.000 A 
ATOM     14  C   UNL     1       1.818   8.109  20.296  0.00  0.00    +0.000 A 
ATOM     15  C   UNL     1       2.012   8.577  19.002  0.00  0.00    +0.000 A 
ATOM     16  C   UNL     1       1.190   9.621  18.549  0.00  0.00    +0.000 A 
ATOM     17  C   UNL     1       0.259  10.266  19.367  0.00  0.00    +0.000 A 
BRANCH  12  19
ATOM     18  C   UNL     1      -0.753  10.124  22.876  0.00  0.00    +0.000 C 
ATOM     19  O   UNL     1      -0.796  10.461  21.493  0.00  0.00    +0.000 OA
ENDBRANCH  12  19
BRANCH  17  20
ATOM     20  O   UNL     1      -0.369  11.275  18.693  0.00  0.00    +0.000 OA
ATOM     21  C   UNL     1      -1.630  11.047  18.093  0.00  0.00    +0.000 C 
ENDBRANCH  17  20
ENDBRANCH   1  15
BRANCH   6  22
ATOM     22  O   UNL     1       1.421   1.130  18.894  0.00  0.00    +0.000 OA
ATOM     23  H   UNL     1       0.479   1.334  19.030  0.00  0.00    +0.000 HD
ENDBRANCH   6  22
TORSDOF 4
ENDMDL
MODEL 7
REMARK VINA RESULT:      -6.9      2.587      7.279
REMARK  Name = 
REMARK  6 active torsions:
REMARK  status: ('A' for Active; 'I' for Inactive)
REMARK    1  A    between atoms: C_1  and  O_2
REMARK    2  A    between atoms: O_2  and  C_3
REMARK    3  A    between atoms: C_6  and  C_7
REMARK    4  A    between atoms: C_12  and  O_13
REMARK    5  A    between atoms: C_20  and  O_21
REMARK    6  A    between atoms: O_21  and  C_22
REMARK                            x       y       z     vdW  Elec       q    Type
REMARK                         _______ _______ _______ _____ _____    ______ ____
ROOT
ATOM      1  C   UNL     1       3.247   7.846  17.998  0.00  0.00    +0.000 C 
ATOM      2  C   UNL     1       3.131   6.528  17.769  0.00  0.00    +0.000 C 
ATOM      3  O   UNL     1       1.925   5.835  17.797  0.00  0.00    +0.000 OA
ATOM      4  C   UNL     1       2.251   4.520  17.999  0.00  0.00    +0.000 A 
ATOM      5  C   UNL     1       1.332   3.528  18.282  0.00  0.00    +0.000 A 
ATOM      6  C   UNL     1       1.842   2.277  18.602  0.00  0.00    +0.000 A 
ATOM      7  C   UNL     1       3.230   2.036  18.640  0.00  0.00    +0.000 A 
ATOM      8  C   UNL     1       4.144   3.054  18.333  0.00  0.00    +0.000 A 
ATOM      9  C   UNL     1       3.624   4.290  18.007  0.00  0.00    +0.000 A 
ATOM     10  C   UNL     1       4.279   5.578  17.752  0.00  0.00    +0.000 C 
ATOM     11  O   UNL     1       5.462   5.808  17.658  0.00  0.00    +0.000 OA
ENDROOT
BRANCH   1  15
ATOM     12  C   UNL     1      -0.002  10.097  19.706  0.00  0.00    +0.000 A 
ATOM     13  C   UNL     1       0.490  10.412  18.423  0.00  0.00    +0.000 A 
ATOM     14  C   UNL     1       1.526   9.671  17.830  0.00  0.00    +0.000 A 
ATOM     15  C   UNL     1       2.112   8.622  18.529  0.00  0.00    +0.000 A 
ATOM     16  C   UNL     1       1.675   8.381  19.842  0.00  0.00    +0.000 A 
ATOM     17  C   UNL     1       0.622   9.082  20.435  0.00  0.00    +0.000 A 
BRANCH  12  19
ATOM     18  C   UNL     1      -1.767  11.657  19.424  0.00  0.00    +0.000 C 
ATOM     19  O   UNL     1      -1.038  10.782  20.279  0.00  0.00    +0.000 OA
ENDBRANCH  12  19
BRANCH  17  20
ATOM     20  O   UNL     1       0.370   8.614  21.694  0.00  0.00    +0.000 OA
ATOM     21  C   UNL     1       0.807   9.349  22.821  0.00  0.00    +0.000 C 
ENDBRANCH  17  20
ENDBRANCH   1  15
BRANCH   6  22
ATOM     22  O   UNL     1       1.012   1.243  18.922  0.00  0.00    +0.000 OA
ATOM     23  H   UNL     1       0.234   1.269  18.339  0.00  0.00    +0.000 HD
ENDBRANCH   6  22
TORSDOF 4
ENDMDL
MODEL 8
REMARK VINA RESULT:      -6.8      1.398      6.951
REMARK  Name = 
REMARK  6 active torsions:
REMARK  status: ('A' for Active; 'I' for Inactive)
REMARK    1  A    between atoms: C_1  and  O_2
REMARK    2  A    between atoms: O_2  and  C_3
REMARK    3  A    between atoms: C_6  and  C_7
REMARK    4  A    between atoms: C_12  and  O_13
REMARK    5  A    between atoms: C_20  and  O_21
REMARK    6  A    between atoms: O_21  and  C_22
REMARK                            x       y       z     vdW  Elec       q    Type
REMARK                         _______ _______ _______ _____ _____    ______ ____
ROOT
ATOM      1  C   UNL     1       2.508   6.031  19.337  0.00  0.00    +0.000 C 
ATOM      2  C   UNL     1       3.630   5.604  18.736  0.00  0.00    +0.000 C 
ATOM      3  O   UNL     1       4.546   6.442  18.108  0.00  0.00    +0.000 OA
ATOM      4  C   UNL     1       5.248   5.648  17.239  0.00  0.00    +0.000 A 
ATOM      5  C   UNL     1       6.122   6.130  16.284  0.00  0.00    +0.000 A 
ATOM      6  C   UNL     1       6.641   5.204  15.389  0.00  0.00    +0.000 A 
ATOM      7  C   UNL     1       6.289   3.841  15.453  0.00  0.00    +0.000 A 
ATOM      8  C   UNL     1       5.413   3.372  16.443  0.00  0.00    +0.000 A 
ATOM      9  C   UNL     1       4.912   4.301  17.331  0.00  0.00    +0.000 A 
ATOM     10  C   UNL     1       3.905   4.180  18.392  0.00  0.00    +0.000 C 
ATOM     11  O   UNL     1       3.368   3.176  18.801  0.00  0.00    +0.000 OA
ENDROOT
BRANCH   1  15
ATOM     12  C   UNL     1       1.209  10.123  19.012  0.00  0.00    +0.000 A 
ATOM     13  C   UNL     1       1.741   9.450  17.893  0.00  0.00    +0.000 A 
ATOM     14  C   UNL     1       2.140   8.105  17.965  0.00  0.00    +0.000 A 
ATOM     15  C   UNL     1       2.046   7.421  19.171  0.00  0.00    +0.000 A 
ATOM     16  C   UNL     1       1.602   8.132  20.298  0.00  0.00    +0.000 A 
ATOM     17  C   UNL     1       1.167   9.458  20.239  0.00  0.00    +0.000 A 
BRANCH  12  19
ATOM     18  C   UNL     1      -0.606  11.612  18.665  0.00  0.00    +0.000 C 
ATOM     19  O   UNL     1       0.777  11.419  18.946  0.00  0.00    +0.000 OA
ENDBRANCH  12  19
BRANCH  17  20
ATOM     20  O   UNL     1       0.742   9.889  21.465  0.00  0.00    +0.000 OA
ATOM     21  C   UNL     1      -0.210   9.134  22.188  0.00  0.00    +0.000 C 
ENDBRANCH  17  20
ENDBRANCH   1  15
BRANCH   6  22
ATOM     22  O   UNL     1       7.491   5.590  14.394  0.00  0.00    +0.000 OA
ATOM     23  H   UNL     1       8.407   5.429  14.679  0.00  0.00    +0.000 HD
ENDBRANCH   6  22
TORSDOF 4
ENDMDL
MODEL 9
REMARK VINA RESULT:      -6.8      1.886      7.191
REMARK  Name = 
REMARK  6 active torsions:
REMARK  status: ('A' for Active; 'I' for Inactive)
REMARK    1  A    between atoms: C_1  and  O_2
REMARK    2  A    between atoms: O_2  and  C_3
REMARK    3  A    between atoms: C_6  and  C_7
REMARK    4  A    between atoms: C_12  and  O_13
REMARK    5  A    between atoms: C_20  and  O_21
REMARK    6  A    between atoms: O_21  and  C_22
REMARK                            x       y       z     vdW  Elec       q    Type
REMARK                         _______ _______ _______ _____ _____    ______ ____
ROOT
ATOM      1  C   UNL     1       1.856   6.471  20.379  0.00  0.00    +0.000 C 
ATOM      2  C   UNL     1       2.858   5.984  19.628  0.00  0.00    +0.000 C 
ATOM      3  O   UNL     1       3.747   6.775  18.908  0.00  0.00    +0.000 OA
ATOM      4  C   UNL     1       4.272   5.963  17.937  0.00  0.00    +0.000 A 
ATOM      5  C   UNL     1       5.051   6.413  16.889  0.00  0.00    +0.000 A 
ATOM      6  C   UNL     1       5.382   5.483  15.913  0.00  0.00    +0.000 A 
ATOM      7  C   UNL     1       4.939   4.148  15.988  0.00  0.00    +0.000 A 
ATOM      8  C   UNL     1       4.162   3.709  17.071  0.00  0.00    +0.000 A 
ATOM      9  C   UNL     1       3.849   4.642  18.039  0.00  0.00    +0.000 A 
ATOM     10  C   UNL     1       2.979   4.557  19.217  0.00  0.00    +0.000 C 
ATOM     11  O   UNL     1       2.423   3.581  19.667  0.00  0.00    +0.000 OA
ENDROOT
BRANCH   1  15
ATOM     12  C   UNL     1       0.827  10.651  20.329  0.00  0.00    +0.000 A 
ATOM     13  C   UNL     1       1.254  10.005  19.151  0.00  0.00    +0.000 A 
ATOM     14  C   UNL     1       1.562   8.635  19.134  0.00  0.00    +0.000 A 
ATOM     15  C   UNL     1       1.482   7.895  20.308  0.00  0.00    +0.000 A 
ATOM     16  C   UNL     1       1.146   8.572  21.491  0.00  0.00    +0.000 A 
ATOM     17  C   UNL     1       0.801   9.925  21.522  0.00  0.00    +0.000 A 
BRANCH  12  19
ATOM     18  C   UNL     1       1.551  12.904  20.499  0.00  0.00    +0.000 C 
ATOM     19  O   UNL     1       0.482  11.974  20.351  0.00  0.00    +0.000 OA
ENDBRANCH  12  19
BRANCH  17  20
ATOM     20  O   UNL     1       0.470  10.317  22.789  0.00  0.00    +0.000 OA
ATOM     21  C   UNL     1      -0.885  10.320  23.196  0.00  0.00    +0.000 C 
ENDBRANCH  17  20
ENDBRANCH   1  15
BRANCH   6  22
ATOM     22  O   UNL     1       6.126   5.841  14.827  0.00  0.00    +0.000 OA
ATOM     23  H   UNL     1       6.705   6.584  15.070  0.00  0.00    +0.000 HD
ENDBRANCH   6  22
TORSDOF 4
ENDMDL
