MODEL 1
REMARK VINA RESULT:      -8.4      0.000      0.000
REMARK  Name = 
REMARK  4 active torsions:
REMARK  status: ('A' for Active; 'I' for Inactive)
REMARK    1  A    between atoms: C_1  and  C_2
REMARK    2  A    between atoms: C_2  and  N_3
REMARK    3  A    between atoms: C_5  and  C_6
REMARK    4  A    between atoms: C_17  and  C_18
REMARK                            x       y       z     vdW  Elec       q    Type
REMARK                         _______ _______ _______ _____ _____    ______ ____
ROOT
ATOM      1  N   UNL     1       1.567   8.585  20.031  0.00  0.00    +0.000 N 
ATOM      2  N   UNL     1       2.276   7.448  19.872  0.00  0.00    +0.000 NA
ATOM      3  C   UNL     1       2.483   7.336  18.555  0.00  0.00    +0.000 A 
ATOM      4  C   UNL     1       1.935   8.456  17.886  0.00  0.00    +0.000 A 
ATOM      5  C   UNL     1       1.309   9.235  18.846  0.00  0.00    +0.000 A 
ENDROOT
BRANCH   3   6
ATOM      6  C   UNL     1       3.187   6.198  17.946  0.00  0.00    +0.000 A 
ATOM      7  C   UNL     1       4.347   6.477  17.195  0.00  0.00    +0.000 A 
ATOM      8  C   UNL     1       5.056   5.460  16.563  0.00  0.00    +0.000 A 
ATOM      9  C   UNL     1       4.621   4.145  16.676  0.00  0.00    +0.000 A 
ATOM     10  C   UNL     1       3.469   3.833  17.418  0.00  0.00    +0.000 A 
ATOM     11  C   UNL     1       3.025   2.510  17.533  0.00  0.00    +0.000 A 
ATOM     12  N   UNL     1       1.924   2.119  18.210  0.00  0.00    +0.000 NA
ATOM     13  C   UNL     1       1.219   3.096  18.805  0.00  0.00    +0.000 A 
ATOM     14  C   UNL     1       1.564   4.438  18.754  0.00  0.00    +0.000 A 
ATOM     15  C   UNL     1       2.727   4.850  18.058  0.00  0.00    +0.000 A 
ENDBRANCH   3   6
BRANCH   5  16
ATOM     16  C   UNL     1       0.513  10.441  18.667  0.00  0.00    +0.000 A 
ATOM     17  C   UNL     1      -0.819  10.387  18.282  0.00  0.00    +0.000 A 
ATOM     18  C   UNL     1      -1.514  11.576  18.112  0.00  0.00    +0.000 A 
ATOM     19  C   UNL     1      -0.839  12.759  18.331  0.00  0.00    +0.000 A 
ATOM     20  N   UNL     1       0.454  12.792  18.705  0.00  0.00    +0.000 NA
ATOM     21  N   UNL     1       1.136  11.619  18.870  0.00  0.00    +0.000 NA
ENDBRANCH   5  16
BRANCH   1  23
ATOM     22  C   UNL     1      -0.324   8.540  21.626  0.00  0.00    +0.000 C 
ATOM     23  C   UNL     1       1.129   8.911  21.378  0.00  0.00    +0.000 C 
ENDBRANCH   1  23
TORSDOF 3
ENDMDL
MODEL 2
REMARK VINA RESULT:      -8.3      0.799      1.001
REMARK  Name = 
REMARK  4 active torsions:
REMARK  status: ('A' for Active; 'I' for Inactive)
REMARK    1  A    between atoms: C_1  and  C_2
REMARK    2  A    between atoms: C_2  and  N_3
REMARK    3  A    between atoms: C_5  and  C_6
REMARK    4  A    between atoms: C_17  and  C_18
REMARK                            x       y       z     vdW  Elec       q    Type
REMARK                         _______ _______ _______ _____ _____    ______ ____
ROOT
ATOM      1  N   UNL     1       1.585   8.568  20.027  0.00  0.00    +0.000 N 
ATOM      2  N   UNL     1       2.242   7.400  19.872  0.00  0.00    +0.000 NA
ATOM      3  C   UNL     1       2.485   7.298  18.561  0.00  0.00    +0.000 A 
ATOM      4  C   UNL     1       2.014   8.454  17.893  0.00  0.00    +0.000 A 
ATOM      5  C   UNL     1       1.397   9.248  18.845  0.00  0.00    +0.000 A 
ENDROOT
BRANCH   3   6
ATOM      6  C   UNL     1       3.152   6.136  17.955  0.00  0.00    +0.000 A 
ATOM      7  C   UNL     1       4.300   6.377  17.175  0.00  0.00    +0.000 A 
ATOM      8  C   UNL     1       4.973   5.335  16.544  0.00  0.00    +0.000 A 
ATOM      9  C   UNL     1       4.514   4.032  16.688  0.00  0.00    +0.000 A 
ATOM     10  C   UNL     1       3.372   3.756  17.460  0.00  0.00    +0.000 A 
ATOM     11  C   UNL     1       2.904   2.446  17.607  0.00  0.00    +0.000 A 
ATOM     12  N   UNL     1       1.810   2.089  18.315  0.00  0.00    +0.000 NA
ATOM     13  C   UNL     1       1.139   3.090  18.909  0.00  0.00    +0.000 A 
ATOM     14  C   UNL     1       1.510   4.423  18.828  0.00  0.00    +0.000 A 
ATOM     15  C   UNL     1       2.666   4.799  18.100  0.00  0.00    +0.000 A 
ENDBRANCH   3   6
BRANCH   5  16
ATOM     16  C   UNL     1       0.667  10.495  18.661  0.00  0.00    +0.000 A 
ATOM     17  C   UNL     1       1.274  11.729  18.839  0.00  0.00    +0.000 A 
ATOM     18  C   UNL     1       0.514  12.878  18.666  0.00  0.00    +0.000 A 
ATOM     19  C   UNL     1      -0.815  12.732  18.326  0.00  0.00    +0.000 A 
ATOM     20  N   UNL     1      -1.387  11.524  18.155  0.00  0.00    +0.000 NA
ATOM     21  N   UNL     1      -0.635  10.396  18.330  0.00  0.00    +0.000 NA
ENDBRANCH   5  16
BRANCH   1  23
ATOM     22  C   UNL     1      -0.328   8.495  21.595  0.00  0.00    +0.000 C 
ATOM     23  C   UNL     1       1.119   8.896  21.365  0.00  0.00    +0.000 C 
ENDBRANCH   1  23
TORSDOF 3
ENDMDL
MODEL 3
REMARK VINA RESULT:      -8.3      3.499      7.440
REMARK  Name = 
REMARK  4 active torsions:
REMARK  status: ('A' for Active; 'I' for Inactive)
REMARK    1  A    between atoms: C_1  and  C_2
REMARK    2  A    between atoms: C_2  and  N_3
REMARK    3  A    between atoms: C_5  and  C_6
REMARK    4  A    between atoms: C_17  and  C_18
REMARK                            x       y       z     vdW  Elec       q    Type
REMARK                         _______ _______ _______ _____ _____    ______ ____
ROOT
ATOM      1  N   UNL     1       6.460   4.304  17.225  0.00  0.00    +0.000 N 
ATOM      2  N   UNL     1       5.608   4.106  18.253  0.00  0.00    +0.000 NA
ATOM      3  C   UNL     1       4.413   3.894  17.691  0.00  0.00    +0.000 A 
ATOM      4  C   UNL     1       4.535   3.909  16.280  0.00  0.00    +0.000 A 
ATOM      5  C   UNL     1       5.854   4.217  15.992  0.00  0.00    +0.000 A 
ENDROOT
BRANCH   3   6
ATOM      6  C   UNL     1       3.185   3.677  18.471  0.00  0.00    +0.000 A 
ATOM      7  C   UNL     1       2.610   2.390  18.436  0.00  0.00    +0.000 A 
ATOM      8  C   UNL     1       1.433   2.109  19.123  0.00  0.00    +0.000 A 
ATOM      9  C   UNL     1       0.814   3.109  19.864  0.00  0.00    +0.000 A 
ATOM     10  C   UNL     1       1.362   4.402  19.921  0.00  0.00    +0.000 A 
ATOM     11  C   UNL     1       0.741   5.413  20.664  0.00  0.00    +0.000 A 
ATOM     12  N   UNL     1       1.185   6.684  20.764  0.00  0.00    +0.000 NA
ATOM     13  C   UNL     1       2.309   6.972  20.085  0.00  0.00    +0.000 A 
ATOM     14  C   UNL     1       3.003   6.052  19.316  0.00  0.00    +0.000 A 
ATOM     15  C   UNL     1       2.549   4.713  19.222  0.00  0.00    +0.000 A 
ENDBRANCH   3   6
BRANCH   5  16
ATOM     16  C   UNL     1       6.475   4.450  14.696  0.00  0.00    +0.000 A 
ATOM     17  C   UNL     1       6.099   3.737  13.567  0.00  0.00    +0.000 A 
ATOM     18  C   UNL     1       6.746   3.997  12.367  0.00  0.00    +0.000 A 
ATOM     19  C   UNL     1       7.738   4.955  12.357  0.00  0.00    +0.000 A 
ATOM     20  N   UNL     1       8.088   5.640  13.464  0.00  0.00    +0.000 NA
ATOM     21  N   UNL     1       7.451   5.379  14.645  0.00  0.00    +0.000 NA
ENDBRANCH   5  16
BRANCH   1  23
ATOM     22  C   UNL     1       7.929   5.711  18.634  0.00  0.00    +0.000 C 
ATOM     23  C   UNL     1       7.834   4.643  17.557  0.00  0.00    +0.000 C 
ENDBRANCH   1  23
TORSDOF 3
ENDMDL
MODEL 4
REMARK VINA RESULT:      -8.2      1.456      2.575
REMARK  Name = 
REMARK  4 active torsions:
REMARK  status: ('A' for Active; 'I' for Inactive)
REMARK    1  A    between atoms: C_1  and  C_2
REMARK    2  A    between atoms: C_2  and  N_3
REMARK    3  A    between atoms: C_5  and  C_6
REMARK    4  A    between atoms: C_17  and  C_18
REMARK                            x       y       z     vdW  Elec       q    Type
REMARK                         _______ _______ _______ _____ _____    ______ ____
ROOT
ATOM      1  N   UNL     1       1.634   8.448  20.056  0.00  0.00    +0.000 N 
ATOM      2  N   UNL     1       2.244   7.255  19.895  0.00  0.00    +0.000 NA
ATOM      3  C   UNL     1       2.452   7.135  18.579  0.00  0.00    +0.000 A 
ATOM      4  C   UNL     1       2.007   8.302  17.913  0.00  0.00    +0.000 A 
ATOM      5  C   UNL     1       1.442   9.125  18.873  0.00  0.00    +0.000 A 
ENDROOT
BRANCH   3   6
ATOM      6  C   UNL     1       3.061   5.944  17.967  0.00  0.00    +0.000 A 
ATOM      7  C   UNL     1       2.263   4.788  17.855  0.00  0.00    +0.000 A 
ATOM      8  C   UNL     1       2.772   3.612  17.315  0.00  0.00    +0.000 A 
ATOM      9  C   UNL     1       4.088   3.573  16.868  0.00  0.00    +0.000 A 
ATOM     10  C   UNL     1       4.910   4.708  16.964  0.00  0.00    +0.000 A 
ATOM     11  C   UNL     1       6.237   4.673  16.518  0.00  0.00    +0.000 A 
ATOM     12  N   UNL     1       7.103   5.707  16.584  0.00  0.00    +0.000 NA
ATOM     13  C   UNL     1       6.628   6.842  17.126  0.00  0.00    +0.000 A 
ATOM     14  C   UNL     1       5.334   6.987  17.603  0.00  0.00    +0.000 A 
ATOM     15  C   UNL     1       4.418   5.909  17.521  0.00  0.00    +0.000 A 
ENDBRANCH   3   6
BRANCH   5  16
ATOM     16  C   UNL     1       0.754  10.396  18.696  0.00  0.00    +0.000 A 
ATOM     17  C   UNL     1      -0.608  10.460  18.445  0.00  0.00    +0.000 A 
ATOM     18  C   UNL     1      -1.197  11.705  18.267  0.00  0.00    +0.000 A 
ATOM     19  C   UNL     1      -0.391  12.822  18.347  0.00  0.00    +0.000 A 
ATOM     20  N   UNL     1       0.931  12.740  18.593  0.00  0.00    +0.000 NA
ATOM     21  N   UNL     1       1.507  11.512  18.764  0.00  0.00    +0.000 NA
ENDBRANCH   5  16
BRANCH   1  23
ATOM     22  C   UNL     1      -0.256   8.507  21.652  0.00  0.00    +0.000 C 
ATOM     23  C   UNL     1       1.214   8.803  21.402  0.00  0.00    +0.000 C 
ENDBRANCH   1  23
TORSDOF 3
ENDMDL
MODEL 5
REMARK VINA RESULT:      -7.8      3.907      7.090
REMARK  Name = 
REMARK  4 active torsions:
REMARK  status: ('A' for Active; 'I' for Inactive)
REMARK    1  A    between atoms: C_1  and  C_2
REMARK    2  A    between atoms: C_2  and  N_3
REMARK    3  A    between atoms: C_5  and  C_6
REMARK    4  A    between atoms: C_17  and  C_18
REMARK                            x       y       z     vdW  Elec       q    Type
REMARK                         _______ _______ _______ _____ _____    ______ ____
ROOT
ATOM      1  N   UNL     1       6.424   6.195  16.902  0.00  0.00    +0.000 N 
ATOM      2  N   UNL     1       5.729   6.409  18.039  0.00  0.00    +0.000 NA
ATOM      3  C   UNL     1       4.633   5.649  17.936  0.00  0.00    +0.000 A 
ATOM      4  C   UNL     1       4.673   4.907  16.731  0.00  0.00    +0.000 A 
ATOM      5  C   UNL     1       5.814   5.300  16.053  0.00  0.00    +0.000 A 
ENDROOT
BRANCH   3   6
ATOM      6  C   UNL     1       3.574   5.622  18.957  0.00  0.00    +0.000 A 
ATOM      7  C   UNL     1       2.755   6.762  19.076  0.00  0.00    +0.000 A 
ATOM      8  C   UNL     1       1.749   6.829  20.035  0.00  0.00    +0.000 A 
ATOM      9  C   UNL     1       1.540   5.751  20.888  0.00  0.00    +0.000 A 
ATOM     10  C   UNL     1       2.338   4.599  20.796  0.00  0.00    +0.000 A 
ATOM     11  C   UNL     1       2.133   3.513  21.654  0.00  0.00    +0.000 A 
ATOM     12  N   UNL     1       2.859   2.374  21.648  0.00  0.00    +0.000 NA
ATOM     13  C   UNL     1       3.849   2.309  20.741  0.00  0.00    +0.000 A 
ATOM     14  C   UNL     1       4.143   3.325  19.845  0.00  0.00    +0.000 A 
ATOM     15  C   UNL     1       3.373   4.514  19.837  0.00  0.00    +0.000 A 
ENDBRANCH   3   6
BRANCH   5  16
ATOM     16  C   UNL     1       6.267   4.912  14.724  0.00  0.00    +0.000 A 
ATOM     17  C   UNL     1       5.597   3.955  13.975  0.00  0.00    +0.000 A 
ATOM     18  C   UNL     1       6.094   3.618  12.724  0.00  0.00    +0.000 A 
ATOM     19  C   UNL     1       7.237   4.254  12.286  0.00  0.00    +0.000 A 
ATOM     20  N   UNL     1       7.873   5.182  13.027  0.00  0.00    +0.000 NA
ATOM     21  N   UNL     1       7.382   5.509  14.260  0.00  0.00    +0.000 NA
ENDBRANCH   5  16
BRANCH   1  23
ATOM     22  C   UNL     1       7.795   8.076  17.743  0.00  0.00    +0.000 C 
ATOM     23  C   UNL     1       7.639   6.971  16.711  0.00  0.00    +0.000 C 
ENDBRANCH   1  23
TORSDOF 3
ENDMDL
MODEL 6
REMARK VINA RESULT:      -7.8      2.051      3.927
REMARK  Name = 
REMARK  4 active torsions:
REMARK  status: ('A' for Active; 'I' for Inactive)
REMARK    1  A    between atoms: C_1  and  C_2
REMARK    2  A    between atoms: C_2  and  N_3
REMARK    3  A    between atoms: C_5  and  C_6
REMARK    4  A    between atoms: C_17  and  C_18
REMARK                            x       y       z     vdW  Elec       q    Type
REMARK                         _______ _______ _______ _____ _____    ______ ____
ROOT
ATOM      1  N   UNL     1       1.716   8.658  18.813  0.00  0.00    +0.000 N 
ATOM      2  N   UNL     1       2.377   7.936  17.884  0.00  0.00    +0.000 NA
ATOM      3  C   UNL     1       2.721   6.797  18.495  0.00  0.00    +0.000 A 
ATOM      4  C   UNL     1       2.218   6.790  19.818  0.00  0.00    +0.000 A 
ATOM      5  C   UNL     1       1.607   8.016  20.025  0.00  0.00    +0.000 A 
ENDROOT
BRANCH   3   6
ATOM      6  C   UNL     1       3.504   5.738  17.841  0.00  0.00    +0.000 A 
ATOM      7  C   UNL     1       2.883   4.487  17.658  0.00  0.00    +0.000 A 
ATOM      8  C   UNL     1       3.564   3.424  17.073  0.00  0.00    +0.000 A 
ATOM      9  C   UNL     1       4.877   3.596  16.652  0.00  0.00    +0.000 A 
ATOM     10  C   UNL     1       5.526   4.832  16.817  0.00  0.00    +0.000 A 
ATOM     11  C   UNL     1       6.849   5.010  16.397  0.00  0.00    +0.000 A 
ATOM     12  N   UNL     1       7.556   6.154  16.529  0.00  0.00    +0.000 NA
ATOM     13  C   UNL     1       6.915   7.180  17.114  0.00  0.00    +0.000 A 
ATOM     14  C   UNL     1       5.608   7.114  17.571  0.00  0.00    +0.000 A 
ATOM     15  C   UNL     1       4.858   5.921  17.420  0.00  0.00    +0.000 A 
ENDBRANCH   3   6
BRANCH   5  16
ATOM     16  C   UNL     1       1.019   8.548  21.246  0.00  0.00    +0.000 A 
ATOM     17  C   UNL     1      -0.350   8.531  21.466  0.00  0.00    +0.000 A 
ATOM     18  C   UNL     1      -0.845   9.073  22.644  0.00  0.00    +0.000 A 
ATOM     19  C   UNL     1       0.056   9.608  23.541  0.00  0.00    +0.000 A 
ATOM     20  N   UNL     1       1.384   9.615  23.311  0.00  0.00    +0.000 NA
ATOM     21  N   UNL     1       1.866   9.082  22.149  0.00  0.00    +0.000 NA
ENDBRANCH   5  16
BRANCH   1  23
ATOM     22  C   UNL     1      -0.188  10.071  18.106  0.00  0.00    +0.000 C 
ATOM     23  C   UNL     1       1.294   9.997  18.436  0.00  0.00    +0.000 C 
ENDBRANCH   1  23
TORSDOF 3
ENDMDL
MODEL 7
REMARK VINA RESULT:      -7.7      1.413      2.546
REMARK  Name = 
REMARK  4 active torsions:
REMARK  status: ('A' for Active; 'I' for Inactive)
REMARK    1  A    between atoms: C_1  and  C_2
REMARK    2  A    between atoms: C_2  and  N_3
REMARK    3  A    between atoms: C_5  and  C_6
REMARK    4  A    between atoms: C_17  and  C_18
REMARK                            x       y       z     vdW  Elec       q    Type
REMARK                         _______ _______ _______ _____ _____    ______ ____
ROOT
ATOM      1  N   UNL     1       1.076   9.244  18.524  0.00  0.00    +0.000 N 
ATOM      2  N   UNL     1       1.816   8.487  17.688  0.00  0.00    +0.000 NA
ATOM      3  C   UNL     1       2.409   7.573  18.463  0.00  0.00    +0.000 A 
ATOM      4  C   UNL     1       1.987   7.732  19.805  0.00  0.00    +0.000 A 
ATOM      5  C   UNL     1       1.159   8.842  19.838  0.00  0.00    +0.000 A 
ENDROOT
BRANCH   3   6
ATOM      6  C   UNL     1       3.350   6.568  17.945  0.00  0.00    +0.000 A 
ATOM      7  C   UNL     1       4.582   7.028  17.439  0.00  0.00    +0.000 A 
ATOM      8  C   UNL     1       5.516   6.145  16.905  0.00  0.00    +0.000 A 
ATOM      9  C   UNL     1       5.236   4.784  16.875  0.00  0.00    +0.000 A 
ATOM     10  C   UNL     1       4.018   4.292  17.372  0.00  0.00    +0.000 A 
ATOM     11  C   UNL     1       3.731   2.922  17.342  0.00  0.00    +0.000 A 
ATOM     12  N   UNL     1       2.584   2.361  17.782  0.00  0.00    +0.000 NA
ATOM     13  C   UNL     1       1.666   3.208  18.278  0.00  0.00    +0.000 A 
ATOM     14  C   UNL     1       1.842   4.580  18.353  0.00  0.00    +0.000 A 
ATOM     15  C   UNL     1       3.051   5.170  17.908  0.00  0.00    +0.000 A 
ENDBRANCH   3   6
BRANCH   5  16
ATOM     16  C   UNL     1       0.542   9.487  20.989  0.00  0.00    +0.000 A 
ATOM     17  C   UNL     1      -0.136   8.761  21.957  0.00  0.00    +0.000 A 
ATOM     18  C   UNL     1      -0.716   9.442  23.018  0.00  0.00    +0.000 A 
ATOM     19  C   UNL     1      -0.591  10.815  23.055  0.00  0.00    +0.000 A 
ATOM     20  N   UNL     1       0.072  11.504  22.106  0.00  0.00    +0.000 NA
ATOM     21  N   UNL     1       0.640  10.829  21.061  0.00  0.00    +0.000 NA
ENDBRANCH   5  16
BRANCH   1  23
ATOM     22  C   UNL     1      -1.117  10.147  17.816  0.00  0.00    +0.000 C 
ATOM     23  C   UNL     1       0.379  10.383  17.949  0.00  0.00    +0.000 C 
ENDBRANCH   1  23
TORSDOF 3
ENDMDL
MODEL 8
REMARK VINA RESULT:      -7.6      2.218      6.954
REMARK  Name = 
REMARK  4 active torsions:
REMARK  status: ('A' for Active; 'I' for Inactive)
REMARK    1  A    between atoms: C_1  and  C_2
REMARK    2  A    between atoms: C_2  and  N_3
REMARK    3  A    between atoms: C_5  and  C_6
REMARK    4  A    between atoms: C_17  and  C_18
REMARK                            x       y       z     vdW  Elec       q    Type
REMARK                         _______ _______ _______ _____ _____    ______ ____
ROOT
ATOM      1  N   UNL     1       3.097   6.060  19.103  0.00  0.00    +0.000 N 
ATOM      2  N   UNL     1       2.132   6.825  19.656  0.00  0.00    +0.000 NA
ATOM      3  C   UNL     1       2.085   7.934  18.910  0.00  0.00    +0.000 A 
ATOM      4  C   UNL     1       3.004   7.834  17.839  0.00  0.00    +0.000 A 
ATOM      5  C   UNL     1       3.682   6.637  17.999  0.00  0.00    +0.000 A 
ENDROOT
BRANCH   3   6
ATOM      6  C   UNL     1       1.186   9.061  19.203  0.00  0.00    +0.000 A 
ATOM      7  C   UNL     1       0.690   9.800  18.110  0.00  0.00    +0.000 A 
ATOM      8  C   UNL     1      -0.143  10.898  18.302  0.00  0.00    +0.000 A 
ATOM      9  C   UNL     1      -0.502  11.272  19.591  0.00  0.00    +0.000 A 
ATOM     10  C   UNL     1      -0.026  10.556  20.703  0.00  0.00    +0.000 A 
ATOM     11  C   UNL     1      -0.383  10.930  22.004  0.00  0.00    +0.000 A 
ATOM     12  N   UNL     1       0.037  10.313  23.130  0.00  0.00    +0.000 NA
ATOM     13  C   UNL     1       0.861   9.265  22.956  0.00  0.00    +0.000 A 
ATOM     14  C   UNL     1       1.281   8.811  21.716  0.00  0.00    +0.000 A 
ATOM     15  C   UNL     1       0.830   9.446  20.533  0.00  0.00    +0.000 A 
ENDBRANCH   3   6
BRANCH   5  16
ATOM     16  C   UNL     1       4.794   6.107  17.223  0.00  0.00    +0.000 A 
ATOM     17  C   UNL     1       4.666   4.962  16.450  0.00  0.00    +0.000 A 
ATOM     18  C   UNL     1       5.773   4.501  15.751  0.00  0.00    +0.000 A 
ATOM     19  C   UNL     1       6.952   5.208  15.861  0.00  0.00    +0.000 A 
ATOM     20  N   UNL     1       7.057   6.319  16.616  0.00  0.00    +0.000 NA
ATOM     21  N   UNL     1       5.966   6.768  17.305  0.00  0.00    +0.000 NA
ENDBRANCH   5  16
BRANCH   1  23
ATOM     22  C   UNL     1       2.499   4.522  20.948  0.00  0.00    +0.000 C 
ATOM     23  C   UNL     1       3.420   4.811  19.773  0.00  0.00    +0.000 C 
ENDBRANCH   1  23
TORSDOF 3
ENDMDL
MODEL 9
REMARK VINA RESULT:      -7.5      1.485      2.825
REMARK  Name = 
REMARK  4 active torsions:
REMARK  status: ('A' for Active; 'I' for Inactive)
REMARK    1  A    between atoms: C_1  and  C_2
REMARK    2  A    between atoms: C_2  and  N_3
REMARK    3  A    between atoms: C_5  and  C_6
REMARK    4  A    between atoms: C_17  and  C_18
REMARK                            x       y       z     vdW  Elec       q    Type
REMARK                         _______ _______ _______ _____ _____    ______ ____
ROOT
ATOM      1  N   UNL     1       1.655   8.867  18.806  0.00  0.00    +0.000 N 
ATOM      2  N   UNL     1       2.337   8.203  17.850  0.00  0.00    +0.000 NA
ATOM      3  C   UNL     1       2.730   7.059  18.422  0.00  0.00    +0.000 A 
ATOM      4  C   UNL     1       2.236   6.988  19.746  0.00  0.00    +0.000 A 
ATOM      5  C   UNL     1       1.579   8.181  19.997  0.00  0.00    +0.000 A 
ENDROOT
BRANCH   3   6
ATOM      6  C   UNL     1       3.549   6.053  17.728  0.00  0.00    +0.000 A 
ATOM      7  C   UNL     1       4.595   6.520  16.906  0.00  0.00    +0.000 A 
ATOM      8  C   UNL     1       5.398   5.636  16.193  0.00  0.00    +0.000 A 
ATOM      9  C   UNL     1       5.175   4.267  16.295  0.00  0.00    +0.000 A 
ATOM     10  C   UNL     1       4.141   3.769  17.106  0.00  0.00    +0.000 A 
ATOM     11  C   UNL     1       3.911   2.393  17.210  0.00  0.00    +0.000 A 
ATOM     12  N   UNL     1       2.934   1.825  17.951  0.00  0.00    +0.000 NA
ATOM     13  C   UNL     1       2.137   2.672  18.626  0.00  0.00    +0.000 A 
ATOM     14  C   UNL     1       2.272   4.051  18.593  0.00  0.00    +0.000 A 
ATOM     15  C   UNL     1       3.305   4.649  17.830  0.00  0.00    +0.000 A 
ENDBRANCH   3   6
BRANCH   5  16
ATOM     16  C   UNL     1       0.979   8.650  21.238  0.00  0.00    +0.000 A 
ATOM     17  C   UNL     1      -0.382   8.542  21.479  0.00  0.00    +0.000 A 
ATOM     18  C   UNL     1      -0.890   9.027  22.676  0.00  0.00    +0.000 A 
ATOM     19  C   UNL     1      -0.010   9.598  23.571  0.00  0.00    +0.000 A 
ATOM     20  N   UNL     1       1.311   9.694  23.321  0.00  0.00    +0.000 NA
ATOM     21  N   UNL     1       1.806   9.218  22.139  0.00  0.00    +0.000 NA
ENDBRANCH   5  16
BRANCH   1  23
ATOM     22  C   UNL     1      -0.314  10.232  18.186  0.00  0.00    +0.000 C 
ATOM     23  C   UNL     1       1.177  10.200  18.476  0.00  0.00    +0.000 C 
ENDBRANCH   1  23
TORSDOF 3
ENDMDL
