MODEL 1
REMARK VINA RESULT:      -8.1      0.000      0.000
REMARK  Name = 
REMARK  5 active torsions:
REMARK  status: ('A' for Active; 'I' for Inactive)
REMARK    1  A    between atoms: C_1  and  N_2
REMARK    2  A    between atoms: N_2  and  C_3
REMARK    3  A    between atoms: C_3  and  C_4
REMARK    4  A    between atoms: C_4  and  C_5
REMARK    5  A    between atoms: C_5  and  C_6
REMARK                            x       y       z     vdW  Elec       q    Type
REMARK                         _______ _______ _______ _____ _____    ______ ____
ROOT
ATOM      1  C   UNL     1       3.708   4.762  17.712  0.00  0.00    +0.000 C 
ATOM      2  C   UNL     1       4.989   4.167  18.342  0.00  0.00    +0.000 C 
ATOM      3  C   UNL     1       6.052   5.220  18.418  0.00  0.00    +0.000 A 
ATOM      4  C   UNL     1       6.994   5.237  19.452  0.00  0.00    +0.000 A 
ATOM      5  C   UNL     1       8.018   6.183  19.441  0.00  0.00    +0.000 A 
ATOM      6  C   UNL     1       8.111   7.107  18.400  0.00  0.00    +0.000 A 
ATOM      7  C   UNL     1       7.176   7.090  17.363  0.00  0.00    +0.000 A 
ATOM      8  C   UNL     1       6.140   6.150  17.377  0.00  0.00    +0.000 A 
ATOM      9  C   UNL     1       5.169   6.111  16.252  0.00  0.00    +0.000 C 
ATOM     10  O   UNL     1       5.368   6.730  15.216  0.00  0.00    +0.000 OA
ATOM     11  O   UNL     1       4.069   5.331  16.419  0.00  0.00    +0.000 OA
ENDROOT
BRANCH   1  12
ATOM     12  C   UNL     1       3.012   5.837  18.576  0.00  0.00    +0.000 A 
ATOM     13  C   UNL     1       2.584   5.570  19.891  0.00  0.00    +0.000 A 
ATOM     14  C   UNL     1       1.954   6.553  20.662  0.00  0.00    +0.000 A 
ATOM     15  C   UNL     1       1.725   7.816  20.126  0.00  0.00    +0.000 A 
ATOM     16 CL   UNL     1       0.938   9.016  21.075  0.00  0.00    +0.000 Cl
ATOM     17  C   UNL     1       2.122   8.104  18.826  0.00  0.00    +0.000 A 
ATOM     18  C   UNL     1       2.756   7.121  18.057  0.00  0.00    +0.000 A 
ENDBRANCH   1  12
BRANCH   1  19
ATOM     19  C   UNL     1       2.670   3.636  17.420  0.00  0.00    +0.000 C 
BRANCH  19  20
ATOM     20  C   UNL     1       3.114   2.255  17.927  0.00  0.00    +0.000 C 
BRANCH  20  22
ATOM     21  C   UNL     1       0.893   2.446  18.795  0.00  0.00    +0.000 C 
ATOM     22  N   UNL     1       2.037   1.553  18.626  0.00  0.00    +0.000 NA
ATOM     23  H   UNL     1       1.747   0.736  18.089  0.00  0.00    +0.000 HD
ENDBRANCH  20  22
ENDBRANCH  19  20
ENDBRANCH   1  19
TORSDOF 4
ENDMDL
MODEL 2
REMARK VINA RESULT:      -8.0      0.140      1.037
REMARK  Name = 
REMARK  5 active torsions:
REMARK  status: ('A' for Active; 'I' for Inactive)
REMARK    1  A    between atoms: C_1  and  N_2
REMARK    2  A    between atoms: N_2  and  C_3
REMARK    3  A    between atoms: C_3  and  C_4
REMARK    4  A    between atoms: C_4  and  C_5
REMARK    5  A    between atoms: C_5  and  C_6
REMARK                            x       y       z     vdW  Elec       q    Type
REMARK                         _______ _______ _______ _____ _____    ______ ____
ROOT
ATOM      1  C   UNL     1       3.843   4.725  17.662  0.00  0.00    +0.000 C 
ATOM      2  C   UNL     1       5.141   4.176  18.298  0.00  0.00    +0.000 C 
ATOM      3  C   UNL     1       6.166   5.265  18.380  0.00  0.00    +0.000 A 
ATOM      4  C   UNL     1       7.102   5.315  19.418  0.00  0.00    +0.000 A 
ATOM      5  C   UNL     1       8.092   6.297  19.414  0.00  0.00    +0.000 A 
ATOM      6  C   UNL     1       8.157   7.224  18.374  0.00  0.00    +0.000 A 
ATOM      7  C   UNL     1       7.229   7.176  17.332  0.00  0.00    +0.000 A 
ATOM      8  C   UNL     1       6.227   6.199  17.340  0.00  0.00    +0.000 A 
ATOM      9  C   UNL     1       5.264   6.127  16.210  0.00  0.00    +0.000 C 
ATOM     10  O   UNL     1       5.446   6.753  15.176  0.00  0.00    +0.000 OA
ATOM     11  O   UNL     1       4.191   5.308  16.371  0.00  0.00    +0.000 OA
ENDROOT
BRANCH   1  12
ATOM     12  C   UNL     1       3.105   5.775  18.522  0.00  0.00    +0.000 A 
ATOM     13  C   UNL     1       2.836   7.071  18.042  0.00  0.00    +0.000 A 
ATOM     14  C   UNL     1       2.168   8.013  18.832  0.00  0.00    +0.000 A 
ATOM     15  C   UNL     1       1.772   7.681  20.124  0.00  0.00    +0.000 A 
ATOM     16 CL   UNL     1       0.962   8.847  21.095  0.00  0.00    +0.000 Cl
ATOM     17  C   UNL     1       2.038   6.413  20.631  0.00  0.00    +0.000 A 
ATOM     18  C   UNL     1       2.702   5.471  19.837  0.00  0.00    +0.000 A 
ENDBRANCH   1  12
BRANCH   1  19
ATOM     19  C   UNL     1       2.848   3.564  17.363  0.00  0.00    +0.000 C 
BRANCH  19  20
ATOM     20  C   UNL     1       3.173   2.273  18.131  0.00  0.00    +0.000 C 
BRANCH  20  22
ATOM     21  C   UNL     1       0.876   2.445  18.776  0.00  0.00    +0.000 C 
ATOM     22  N   UNL     1       1.967   1.520  18.478  0.00  0.00    +0.000 NA
ATOM     23  H   UNL     1       1.694   0.921  17.699  0.00  0.00    +0.000 HD
ENDBRANCH  20  22
ENDBRANCH  19  20
ENDBRANCH   1  19
TORSDOF 4
ENDMDL
MODEL 3
REMARK VINA RESULT:      -7.4      3.692      6.267
REMARK  Name = 
REMARK  5 active torsions:
REMARK  status: ('A' for Active; 'I' for Inactive)
REMARK    1  A    between atoms: C_1  and  N_2
REMARK    2  A    between atoms: N_2  and  C_3
REMARK    3  A    between atoms: C_3  and  C_4
REMARK    4  A    between atoms: C_4  and  C_5
REMARK    5  A    between atoms: C_5  and  C_6
REMARK                            x       y       z     vdW  Elec       q    Type
REMARK                         _______ _______ _______ _____ _____    ______ ____
ROOT
ATOM      1  C   UNL     1       6.180   5.229  17.679  0.00  0.00    +0.000 C 
ATOM      2  C   UNL     1       5.560   4.214  18.667  0.00  0.00    +0.000 C 
ATOM      3  C   UNL     1       4.093   4.076  18.398  0.00  0.00    +0.000 A 
ATOM      4  C   UNL     1       3.420   2.867  18.604  0.00  0.00    +0.000 A 
ATOM      5  C   UNL     1       2.039   2.802  18.422  0.00  0.00    +0.000 A 
ATOM      6  C   UNL     1       1.326   3.939  18.044  0.00  0.00    +0.000 A 
ATOM      7  C   UNL     1       1.992   5.149  17.843  0.00  0.00    +0.000 A 
ATOM      8  C   UNL     1       3.379   5.215  18.012  0.00  0.00    +0.000 A 
ATOM      9  C   UNL     1       4.079   6.514  17.834  0.00  0.00    +0.000 C 
ATOM     10  O   UNL     1       3.461   7.566  17.753  0.00  0.00    +0.000 OA
ATOM     11  O   UNL     1       5.437   6.479  17.799  0.00  0.00    +0.000 OA
ENDROOT
BRANCH   1  12
ATOM     12  C   UNL     1       6.181   4.766  16.205  0.00  0.00    +0.000 A 
ATOM     13  C   UNL     1       5.199   3.891  15.701  0.00  0.00    +0.000 A 
ATOM     14  C   UNL     1       5.212   3.478  14.365  0.00  0.00    +0.000 A 
ATOM     15  C   UNL     1       6.218   3.920  13.510  0.00  0.00    +0.000 A 
ATOM     16 CL   UNL     1       6.236   3.399  11.871  0.00  0.00    +0.000 Cl
ATOM     17  C   UNL     1       7.209   4.772  13.983  0.00  0.00    +0.000 A 
ATOM     18  C   UNL     1       7.192   5.188  15.320  0.00  0.00    +0.000 A 
ENDBRANCH   1  12
BRANCH   1  19
ATOM     19  C   UNL     1       7.650   5.554  18.081  0.00  0.00    +0.000 C 
BRANCH  19  20
ATOM     20  C   UNL     1       7.850   7.011  18.529  0.00  0.00    +0.000 C 
BRANCH  20  22
ATOM     21  C   UNL     1       8.178   9.283  17.855  0.00  0.00    +0.000 C 
ATOM     22  N   UNL     1       7.807   7.944  17.402  0.00  0.00    +0.000 NA
ATOM     23  H   UNL     1       8.457   7.645  16.676  0.00  0.00    +0.000 HD
ENDBRANCH  20  22
ENDBRANCH  19  20
ENDBRANCH   1  19
TORSDOF 4
ENDMDL
MODEL 4
REMARK VINA RESULT:      -7.3      2.985      5.373
REMARK  Name = 
REMARK  5 active torsions:
REMARK  status: ('A' for Active; 'I' for Inactive)
REMARK    1  A    between atoms: C_1  and  N_2
REMARK    2  A    between atoms: N_2  and  C_3
REMARK    3  A    between atoms: C_3  and  C_4
REMARK    4  A    between atoms: C_4  and  C_5
REMARK    5  A    between atoms: C_5  and  C_6
REMARK                            x       y       z     vdW  Elec       q    Type
REMARK                         _______ _______ _______ _____ _____    ______ ____
ROOT
ATOM      1  C   UNL     1       6.229   5.280  16.862  0.00  0.00    +0.000 C 
ATOM      2  C   UNL     1       4.802   5.677  16.416  0.00  0.00    +0.000 C 
ATOM      3  C   UNL     1       3.968   6.005  17.616  0.00  0.00    +0.000 A 
ATOM      4  C   UNL     1       2.957   6.970  17.565  0.00  0.00    +0.000 A 
ATOM      5  C   UNL     1       2.148   7.187  18.680  0.00  0.00    +0.000 A 
ATOM      6  C   UNL     1       2.338   6.439  19.842  0.00  0.00    +0.000 A 
ATOM      7  C   UNL     1       3.341   5.471  19.896  0.00  0.00    +0.000 A 
ATOM      8  C   UNL     1       4.163   5.259  18.784  0.00  0.00    +0.000 A 
ATOM      9  C   UNL     1       5.206   4.201  18.832  0.00  0.00    +0.000 C 
ATOM     10  O   UNL     1       5.230   3.370  19.729  0.00  0.00    +0.000 OA
ATOM     11  O   UNL     1       6.108   4.183  17.816  0.00  0.00    +0.000 OA
ENDROOT
BRANCH   1  12
ATOM     12  C   UNL     1       7.043   6.430  17.496  0.00  0.00    +0.000 A 
ATOM     13  C   UNL     1       7.818   6.239  18.655  0.00  0.00    +0.000 A 
ATOM     14  C   UNL     1       8.550   7.289  19.220  0.00  0.00    +0.000 A 
ATOM     15  C   UNL     1       8.506   8.555  18.644  0.00  0.00    +0.000 A 
ATOM     16 CL   UNL     1       9.398   9.846  19.349  0.00  0.00    +0.000 Cl
ATOM     17  C   UNL     1       7.737   8.778  17.507  0.00  0.00    +0.000 A 
ATOM     18  C   UNL     1       7.009   7.724  16.941  0.00  0.00    +0.000 A 
ENDBRANCH   1  12
BRANCH   1  19
ATOM     19  C   UNL     1       7.043   4.723  15.656  0.00  0.00    +0.000 C 
BRANCH  19  20
ATOM     20  C   UNL     1       6.243   4.698  14.344  0.00  0.00    +0.000 C 
BRANCH  20  22
ATOM     21  C   UNL     1       6.402   3.498  12.279  0.00  0.00    +0.000 C 
ATOM     22  N   UNL     1       6.241   3.370  13.726  0.00  0.00    +0.000 NA
ATOM     23  H   UNL     1       7.007   2.811  14.099  0.00  0.00    +0.000 HD
ENDBRANCH  20  22
ENDBRANCH  19  20
ENDBRANCH   1  19
TORSDOF 4
ENDMDL
MODEL 5
REMARK VINA RESULT:      -7.3      3.680      6.308
REMARK  Name = 
REMARK  5 active torsions:
REMARK  status: ('A' for Active; 'I' for Inactive)
REMARK    1  A    between atoms: C_1  and  N_2
REMARK    2  A    between atoms: N_2  and  C_3
REMARK    3  A    between atoms: C_3  and  C_4
REMARK    4  A    between atoms: C_4  and  C_5
REMARK    5  A    between atoms: C_5  and  C_6
REMARK                            x       y       z     vdW  Elec       q    Type
REMARK                         _______ _______ _______ _____ _____    ______ ____
ROOT
ATOM      1  C   UNL     1       6.187   5.211  17.698  0.00  0.00    +0.000 C 
ATOM      2  C   UNL     1       5.561   4.183  18.669  0.00  0.00    +0.000 C 
ATOM      3  C   UNL     1       4.099   4.036  18.378  0.00  0.00    +0.000 A 
ATOM      4  C   UNL     1       3.433   2.820  18.564  0.00  0.00    +0.000 A 
ATOM      5  C   UNL     1       2.055   2.746  18.362  0.00  0.00    +0.000 A 
ATOM      6  C   UNL     1       1.338   3.880  17.983  0.00  0.00    +0.000 A 
ATOM      7  C   UNL     1       1.997   5.098  17.802  0.00  0.00    +0.000 A 
ATOM      8  C   UNL     1       3.381   5.173  17.991  0.00  0.00    +0.000 A 
ATOM      9  C   UNL     1       4.074   6.479  17.834  0.00  0.00    +0.000 C 
ATOM     10  O   UNL     1       3.448   7.527  17.753  0.00  0.00    +0.000 OA
ATOM     11  O   UNL     1       5.432   6.454  17.818  0.00  0.00    +0.000 OA
ENDROOT
BRANCH   1  12
ATOM     12  C   UNL     1       6.212   4.761  16.221  0.00  0.00    +0.000 A 
ATOM     13  C   UNL     1       7.227   5.176  15.336  0.00  0.00    +0.000 A 
ATOM     14  C   UNL     1       7.238   4.763  14.000  0.00  0.00    +0.000 A 
ATOM     15  C   UNL     1       6.226   3.939  13.518  0.00  0.00    +0.000 A 
ATOM     16 CL   UNL     1       6.238   3.444  11.871  0.00  0.00    +0.000 Cl
ATOM     17  C   UNL     1       5.202   3.526  14.364  0.00  0.00    +0.000 A 
ATOM     18  C   UNL     1       5.195   3.937  15.702  0.00  0.00    +0.000 A 
ENDBRANCH   1  12
BRANCH   1  19
ATOM     19  C   UNL     1       7.648   5.544  18.124  0.00  0.00    +0.000 C 
BRANCH  19  20
ATOM     20  C   UNL     1       7.838   7.008  18.552  0.00  0.00    +0.000 C 
BRANCH  20  22
ATOM     21  C   UNL     1       8.161   9.271  17.845  0.00  0.00    +0.000 C 
ATOM     22  N   UNL     1       7.790   7.926  17.413  0.00  0.00    +0.000 NA
ATOM     23  H   UNL     1       8.438   7.617  16.689  0.00  0.00    +0.000 HD
ENDBRANCH  20  22
ENDBRANCH  19  20
ENDBRANCH   1  19
TORSDOF 4
ENDMDL
MODEL 6
REMARK VINA RESULT:      -7.2      1.455      1.826
REMARK  Name = 
REMARK  5 active torsions:
REMARK  status: ('A' for Active; 'I' for Inactive)
REMARK    1  A    between atoms: C_1  and  N_2
REMARK    2  A    between atoms: N_2  and  C_3
REMARK    3  A    between atoms: C_3  and  C_4
REMARK    4  A    between atoms: C_4  and  C_5
REMARK    5  A    between atoms: C_5  and  C_6
REMARK                            x       y       z     vdW  Elec       q    Type
REMARK                         _______ _______ _______ _____ _____    ______ ____
ROOT
ATOM      1  C   UNL     1       3.674   4.333  18.798  0.00  0.00    +0.000 C 
ATOM      2  C   UNL     1       5.085   4.238  19.425  0.00  0.00    +0.000 C 
ATOM      3  C   UNL     1       6.017   5.174  18.719  0.00  0.00    +0.000 A 
ATOM      4  C   UNL     1       7.072   5.802  19.390  0.00  0.00    +0.000 A 
ATOM      5  C   UNL     1       7.967   6.602  18.680  0.00  0.00    +0.000 A 
ATOM      6  C   UNL     1       7.820   6.770  17.303  0.00  0.00    +0.000 A 
ATOM      7  C   UNL     1       6.773   6.141  16.628  0.00  0.00    +0.000 A 
ATOM      8  C   UNL     1       5.865   5.349  17.339  0.00  0.00    +0.000 A 
ATOM      9  C   UNL     1       4.773   4.649  16.612  0.00  0.00    +0.000 C 
ATOM     10  O   UNL     1       4.768   4.573  15.391  0.00  0.00    +0.000 OA
ATOM     11  O   UNL     1       3.803   4.074  17.368  0.00  0.00    +0.000 OA
ENDROOT
BRANCH   1  12
ATOM     12  C   UNL     1       2.969   5.690  19.018  0.00  0.00    +0.000 A 
ATOM     13  C   UNL     1       2.850   6.640  17.985  0.00  0.00    +0.000 A 
ATOM     14  C   UNL     1       2.210   7.865  18.197  0.00  0.00    +0.000 A 
ATOM     15  C   UNL     1       1.691   8.171  19.451  0.00  0.00    +0.000 A 
ATOM     16 CL   UNL     1       0.916   9.684  19.710  0.00  0.00    +0.000 Cl
ATOM     17  C   UNL     1       1.807   7.259  20.495  0.00  0.00    +0.000 A 
ATOM     18  C   UNL     1       2.444   6.031  20.279  0.00  0.00    +0.000 A 
ENDBRANCH   1  12
BRANCH   1  19
ATOM     19  C   UNL     1       2.749   3.214  19.364  0.00  0.00    +0.000 C 
BRANCH  19  20
ATOM     20  C   UNL     1       3.397   2.408  20.501  0.00  0.00    +0.000 C 
BRANCH  20  22
ATOM     21  C   UNL     1       1.289   2.798  21.563  0.00  0.00    +0.000 C 
ATOM     22  N   UNL     1       2.723   2.624  21.782  0.00  0.00    +0.000 NA
ATOM     23  H   UNL     1       2.873   1.823  22.395  0.00  0.00    +0.000 HD
ENDBRANCH  20  22
ENDBRANCH  19  20
ENDBRANCH   1  19
TORSDOF 4
ENDMDL
MODEL 7
REMARK VINA RESULT:      -7.1      3.494      6.201
REMARK  Name = 
REMARK  5 active torsions:
REMARK  status: ('A' for Active; 'I' for Inactive)
REMARK    1  A    between atoms: C_1  and  N_2
REMARK    2  A    between atoms: N_2  and  C_3
REMARK    3  A    between atoms: C_3  and  C_4
REMARK    4  A    between atoms: C_4  and  C_5
REMARK    5  A    between atoms: C_5  and  C_6
REMARK                            x       y       z     vdW  Elec       q    Type
REMARK                         _______ _______ _______ _____ _____    ______ ____
ROOT
ATOM      1  C   UNL     1       5.608   5.495  18.145  0.00  0.00    +0.000 C 
ATOM      2  C   UNL     1       5.213   4.365  19.124  0.00  0.00    +0.000 C 
ATOM      3  C   UNL     1       3.819   3.904  18.830  0.00  0.00    +0.000 A 
ATOM      4  C   UNL     1       3.429   2.575  19.027  0.00  0.00    +0.000 A 
ATOM      5  C   UNL     1       2.101   2.204  18.821  0.00  0.00    +0.000 A 
ATOM      6  C   UNL     1       1.159   3.154  18.428  0.00  0.00    +0.000 A 
ATOM      7  C   UNL     1       1.541   4.483  18.236  0.00  0.00    +0.000 A 
ATOM      8  C   UNL     1       2.875   4.856  18.429  0.00  0.00    +0.000 A 
ATOM      9  C   UNL     1       3.271   6.279  18.261  0.00  0.00    +0.000 C 
ATOM     10  O   UNL     1       2.435   7.167  18.166  0.00  0.00    +0.000 OA
ATOM     11  O   UNL     1       4.603   6.548  18.249  0.00  0.00    +0.000 OA
ENDROOT
BRANCH   1  12
ATOM     12  C   UNL     1       5.738   5.047  16.672  0.00  0.00    +0.000 A 
ATOM     13  C   UNL     1       5.297   5.857  15.608  0.00  0.00    +0.000 A 
ATOM     14  C   UNL     1       5.419   5.439  14.279  0.00  0.00    +0.000 A 
ATOM     15  C   UNL     1       5.971   4.195  13.989  0.00  0.00    +0.000 A 
ATOM     16 CL   UNL     1       6.107   3.681  12.353  0.00  0.00    +0.000 Cl
ATOM     17  C   UNL     1       6.402   3.367  15.019  0.00  0.00    +0.000 A 
ATOM     18  C   UNL     1       6.282   3.789  16.349  0.00  0.00    +0.000 A 
ENDBRANCH   1  12
BRANCH   1  19
ATOM     19  C   UNL     1       6.962   6.139  18.572  0.00  0.00    +0.000 C 
BRANCH  19  20
ATOM     20  C   UNL     1       7.640   6.932  17.444  0.00  0.00    +0.000 C 
BRANCH  20  22
ATOM     21  C   UNL     1       8.231   9.181  18.008  0.00  0.00    +0.000 C 
ATOM     22  N   UNL     1       7.203   8.329  17.413  0.00  0.00    +0.000 NA
ATOM     23  H   UNL     1       7.042   8.623  16.450  0.00  0.00    +0.000 HD
ENDBRANCH  20  22
ENDBRANCH  19  20
ENDBRANCH   1  19
TORSDOF 4
ENDMDL
MODEL 8
REMARK VINA RESULT:      -7.1      3.051      5.386
REMARK  Name = 
REMARK  5 active torsions:
REMARK  status: ('A' for Active; 'I' for Inactive)
REMARK    1  A    between atoms: C_1  and  N_2
REMARK    2  A    between atoms: N_2  and  C_3
REMARK    3  A    between atoms: C_3  and  C_4
REMARK    4  A    between atoms: C_4  and  C_5
REMARK    5  A    between atoms: C_5  and  C_6
REMARK                            x       y       z     vdW  Elec       q    Type
REMARK                         _______ _______ _______ _____ _____    ______ ____
ROOT
ATOM      1  C   UNL     1       5.689   4.535  17.015  0.00  0.00    +0.000 C 
ATOM      2  C   UNL     1       4.223   4.894  16.680  0.00  0.00    +0.000 C 
ATOM      3  C   UNL     1       3.499   5.287  17.931  0.00  0.00    +0.000 A 
ATOM      4  C   UNL     1       2.475   6.240  17.917  0.00  0.00    +0.000 A 
ATOM      5  C   UNL     1       1.769   6.517  19.087  0.00  0.00    +0.000 A 
ATOM      6  C   UNL     1       2.075   5.842  20.268  0.00  0.00    +0.000 A 
ATOM      7  C   UNL     1       3.092   4.886  20.287  0.00  0.00    +0.000 A 
ATOM      8  C   UNL     1       3.810   4.614  19.117  0.00  0.00    +0.000 A 
ATOM      9  C   UNL     1       4.867   3.569  19.131  0.00  0.00    +0.000 C 
ATOM     10  O   UNL     1       4.984   2.793  20.070  0.00  0.00    +0.000 OA
ATOM     11  O   UNL     1       5.672   3.496  18.039  0.00  0.00    +0.000 OA
ENDROOT
BRANCH   1  12
ATOM     12  C   UNL     1       6.543   5.727  17.501  0.00  0.00    +0.000 A 
ATOM     13  C   UNL     1       6.468   6.992  16.886  0.00  0.00    +0.000 A 
ATOM     14  C   UNL     1       7.248   8.064  17.335  0.00  0.00    +0.000 A 
ATOM     15  C   UNL     1       8.130   7.886  18.396  0.00  0.00    +0.000 A 
ATOM     16 CL   UNL     1       9.095   9.203  18.935  0.00  0.00    +0.000 Cl
ATOM     17  C   UNL     1       8.236   6.644  19.013  0.00  0.00    +0.000 A 
ATOM     18  C   UNL     1       7.452   5.574  18.565  0.00  0.00    +0.000 A 
ENDBRANCH   1  12
BRANCH   1  19
ATOM     19  C   UNL     1       6.396   3.913  15.773  0.00  0.00    +0.000 C 
BRANCH  19  20
ATOM     20  C   UNL     1       5.715   4.272  14.443  0.00  0.00    +0.000 C 
BRANCH  20  22
ATOM     21  C   UNL     1       5.377   3.285  12.290  0.00  0.00    +0.000 C 
ATOM     22  N   UNL     1       6.373   3.640  13.299  0.00  0.00    +0.000 NA
ATOM     23  H   UNL     1       7.051   4.281  12.888  0.00  0.00    +0.000 HD
ENDBRANCH  20  22
ENDBRANCH  19  20
ENDBRANCH   1  19
TORSDOF 4
ENDMDL
MODEL 9
REMARK VINA RESULT:      -7.0      3.504      6.144
REMARK  Name = 
REMARK  5 active torsions:
REMARK  status: ('A' for Active; 'I' for Inactive)
REMARK    1  A    between atoms: C_1  and  N_2
REMARK    2  A    between atoms: N_2  and  C_3
REMARK    3  A    between atoms: C_3  and  C_4
REMARK    4  A    between atoms: C_4  and  C_5
REMARK    5  A    between atoms: C_5  and  C_6
REMARK                            x       y       z     vdW  Elec       q    Type
REMARK                         _______ _______ _______ _____ _____    ______ ____
ROOT
ATOM      1  C   UNL     1       5.615   5.516  18.137  0.00  0.00    +0.000 C 
ATOM      2  C   UNL     1       5.204   4.401  19.126  0.00  0.00    +0.000 C 
ATOM      3  C   UNL     1       3.811   3.941  18.823  0.00  0.00    +0.000 A 
ATOM      4  C   UNL     1       3.414   2.616  19.033  0.00  0.00    +0.000 A 
ATOM      5  C   UNL     1       2.087   2.248  18.817  0.00  0.00    +0.000 A 
ATOM      6  C   UNL     1       1.153   3.196  18.400  0.00  0.00    +0.000 A 
ATOM      7  C   UNL     1       1.543   4.521  18.195  0.00  0.00    +0.000 A 
ATOM      8  C   UNL     1       2.876   4.891  18.398  0.00  0.00    +0.000 A 
ATOM      9  C   UNL     1       3.280   6.311  18.215  0.00  0.00    +0.000 C 
ATOM     10  O   UNL     1       2.449   7.200  18.099  0.00  0.00    +0.000 OA
ATOM     11  O   UNL     1       4.613   6.573  18.215  0.00  0.00    +0.000 OA
ENDROOT
BRANCH   1  12
ATOM     12  C   UNL     1       5.760   5.048  16.672  0.00  0.00    +0.000 A 
ATOM     13  C   UNL     1       6.375   3.824  16.342  0.00  0.00    +0.000 A 
ATOM     14  C   UNL     1       6.502   3.412  15.011  0.00  0.00    +0.000 A 
ATOM     15  C   UNL     1       6.031   4.223  13.984  0.00  0.00    +0.000 A 
ATOM     16 CL   UNL     1       6.201   3.717  12.349  0.00  0.00    +0.000 Cl
ATOM     17  C   UNL     1       5.433   5.444  14.278  0.00  0.00    +0.000 A 
ATOM     18  C   UNL     1       5.304   5.853  15.611  0.00  0.00    +0.000 A 
ENDBRANCH   1  12
BRANCH   1  19
ATOM     19  C   UNL     1       6.966   6.160  18.571  0.00  0.00    +0.000 C 
BRANCH  19  20
ATOM     20  C   UNL     1       7.658   6.939  17.441  0.00  0.00    +0.000 C 
BRANCH  20  22
ATOM     21  C   UNL     1       8.270   9.170  18.052  0.00  0.00    +0.000 C 
ATOM     22  N   UNL     1       7.249   8.344  17.410  0.00  0.00    +0.000 NA
ATOM     23  H   UNL     1       7.129   8.652  16.446  0.00  0.00    +0.000 HD
ENDBRANCH  20  22
ENDBRANCH  19  20
ENDBRANCH   1  19
TORSDOF 4
ENDMDL
