MODEL 1
REMARK VINA RESULT:      -8.6      0.000      0.000
REMARK  Name = 
REMARK  4 active torsions:
REMARK  status: ('A' for Active; 'I' for Inactive)
REMARK    1  A    between atoms: C_2  and  C_13
REMARK    2  A    between atoms: N_3  and  C_4
REMARK    3  A    between atoms: C_9  and  C_10
REMARK    4  A    between atoms: C_10  and  O_12
REMARK                            x       y       z     vdW  Elec       q    Type
REMARK                         _______ _______ _______ _____ _____    ______ ____
ROOT
ATOM      1  O   UNL     1       5.560   4.883  19.057  0.00  0.00    +0.000 OA
ATOM      2  C   UNL     1       4.977   4.489  18.051  0.00  0.00    +0.000 C 
ATOM      3  N   UNL     1       3.786   3.785  18.036  0.00  0.00    +0.000 N 
ATOM      4  H   UNL     1       3.607   3.194  17.222  0.00  0.00    +0.000 HD
ENDROOT
BRANCH   2   5
ATOM      5  C   UNL     1       5.596   4.797  16.731  0.00  0.00    +0.000 A 
ATOM      6  C   UNL     1       6.764   5.555  16.626  0.00  0.00    +0.000 A 
ATOM      7  C   UNL     1       7.444   5.615  15.404  0.00  0.00    +0.000 A 
ATOM      8  C   UNL     1       6.968   4.924  14.275  0.00  0.00    +0.000 A 
ATOM      9  C   UNL     1       7.699   4.885  13.078  0.00  0.00    +0.000 A 
ATOM     10  C   UNL     1       7.218   4.191  11.968  0.00  0.00    +0.000 A 
ATOM     11  C   UNL     1       5.978   3.559  12.027  0.00  0.00    +0.000 A 
ATOM     12  C   UNL     1       5.245   3.576  13.215  0.00  0.00    +0.000 A 
ATOM     13  C   UNL     1       5.745   4.225  14.355  0.00  0.00    +0.000 A 
ATOM     14  C   UNL     1       5.076   4.161  15.591  0.00  0.00    +0.000 A 
ENDBRANCH   2   5
BRANCH   3  15
ATOM     15  C   UNL     1       2.942   3.566  19.163  0.00  0.00    +0.000 A 
ATOM     16  C   UNL     1       1.786   4.333  19.356  0.00  0.00    +0.000 A 
ATOM     17  C   UNL     1       0.979   4.164  20.484  0.00  0.00    +0.000 A 
ATOM     18  C   UNL     1       1.319   3.225  21.449  0.00  0.00    +0.000 A 
ATOM     19  C   UNL     1       2.440   2.421  21.262  0.00  0.00    +0.000 A 
ATOM     20  C   UNL     1       3.229   2.551  20.102  0.00  0.00    +0.000 A 
BRANCH  20  21
ATOM     21  C   UNL     1       4.376   1.631  19.889  0.00  0.00    +0.000 C 
ATOM     22  O   UNL     1       5.331   1.572  20.649  0.00  0.00    +0.000 OA
BRANCH  21  23
ATOM     23  O   UNL     1       4.323   0.932  18.734  0.00  0.00    +0.000 OA
ATOM     24  H   UNL     1       4.962   1.200  18.047  0.00  0.00    +0.000 HD
ENDBRANCH  21  23
ENDBRANCH  20  21
ENDBRANCH   3  15
TORSDOF 4
ENDMDL
MODEL 2
REMARK VINA RESULT:      -8.2      3.816      7.687
REMARK  Name = 
REMARK  4 active torsions:
REMARK  status: ('A' for Active; 'I' for Inactive)
REMARK    1  A    between atoms: C_2  and  C_13
REMARK    2  A    between atoms: N_3  and  C_4
REMARK    3  A    between atoms: C_9  and  C_10
REMARK    4  A    between atoms: C_10  and  O_12
REMARK                            x       y       z     vdW  Elec       q    Type
REMARK                         _______ _______ _______ _____ _____    ______ ____
ROOT
ATOM      1  O   UNL     1       2.316   5.649  17.858  0.00  0.00    +0.000 OA
ATOM      2  C   UNL     1       2.979   6.671  18.012  0.00  0.00    +0.000 C 
ATOM      3  N   UNL     1       4.297   6.840  17.627  0.00  0.00    +0.000 N 
ATOM      4  H   UNL     1       4.842   7.541  18.132  0.00  0.00    +0.000 HD
ENDROOT
BRANCH   2   5
ATOM      5  C   UNL     1       2.312   7.833  18.664  0.00  0.00    +0.000 A 
ATOM      6  C   UNL     1       1.824   8.911  17.921  0.00  0.00    +0.000 A 
ATOM      7  C   UNL     1       0.996   9.857  18.536  0.00  0.00    +0.000 A 
ATOM      8  C   UNL     1       0.646   9.742  19.893  0.00  0.00    +0.000 A 
ATOM      9  C   UNL     1      -0.272  10.619  20.491  0.00  0.00    +0.000 A 
ATOM     10  C   UNL     1      -0.613  10.489  21.837  0.00  0.00    +0.000 A 
ATOM     11  C   UNL     1      -0.010   9.505  22.616  0.00  0.00    +0.000 A 
ATOM     12  C   UNL     1       0.894   8.615  22.033  0.00  0.00    +0.000 A 
ATOM     13  C   UNL     1       1.204   8.701  20.666  0.00  0.00    +0.000 A 
ATOM     14  C   UNL     1       2.026   7.749  20.037  0.00  0.00    +0.000 A 
ENDBRANCH   2   5
BRANCH   3  15
ATOM     15  C   UNL     1       5.045   5.933  16.821  0.00  0.00    +0.000 A 
ATOM     16  C   UNL     1       5.137   6.112  15.434  0.00  0.00    +0.000 A 
ATOM     17  C   UNL     1       5.823   5.201  14.627  0.00  0.00    +0.000 A 
ATOM     18  C   UNL     1       6.425   4.085  15.192  0.00  0.00    +0.000 A 
ATOM     19  C   UNL     1       6.384   3.905  16.572  0.00  0.00    +0.000 A 
ATOM     20  C   UNL     1       5.739   4.847  17.398  0.00  0.00    +0.000 A 
BRANCH  20  21
ATOM     21  C   UNL     1       5.773   4.673  18.873  0.00  0.00    +0.000 C 
ATOM     22  O   UNL     1       6.210   5.525  19.632  0.00  0.00    +0.000 OA
BRANCH  21  23
ATOM     23  O   UNL     1       5.370   3.457  19.301  0.00  0.00    +0.000 OA
ATOM     24  H   UNL     1       4.551   3.116  18.894  0.00  0.00    +0.000 HD
ENDBRANCH  21  23
ENDBRANCH  20  21
ENDBRANCH   3  15
TORSDOF 4
ENDMDL
MODEL 3
REMARK VINA RESULT:      -8.0      1.250      2.417
REMARK  Name = 
REMARK  4 active torsions:
REMARK  status: ('A' for Active; 'I' for Inactive)
REMARK    1  A    between atoms: C_2  and  C_13
REMARK    2  A    between atoms: N_3  and  C_4
REMARK    3  A    between atoms: C_9  and  C_10
REMARK    4  A    between atoms: C_10  and  O_12
REMARK                            x       y       z     vdW  Elec       q    Type
REMARK                         _______ _______ _______ _____ _____    ______ ____
ROOT
ATOM      1  O   UNL     1       5.983   4.418  19.096  0.00  0.00    +0.000 OA
ATOM      2  C   UNL     1       5.237   4.312  18.127  0.00  0.00    +0.000 C 
ATOM      3  N   UNL     1       3.922   3.886  18.167  0.00  0.00    +0.000 N 
ATOM      4  H   UNL     1       3.540   3.475  17.314  0.00  0.00    +0.000 HD
ENDROOT
BRANCH   2   5
ATOM      5  C   UNL     1       5.788   4.674  16.790  0.00  0.00    +0.000 A 
ATOM      6  C   UNL     1       6.908   5.499  16.657  0.00  0.00    +0.000 A 
ATOM      7  C   UNL     1       7.537   5.616  15.412  0.00  0.00    +0.000 A 
ATOM      8  C   UNL     1       7.059   4.917  14.289  0.00  0.00    +0.000 A 
ATOM      9  C   UNL     1       7.746   4.938  13.066  0.00  0.00    +0.000 A 
ATOM     10  C   UNL     1       7.263   4.236  11.962  0.00  0.00    +0.000 A 
ATOM     11  C   UNL     1       6.063   3.534  12.054  0.00  0.00    +0.000 A 
ATOM     12  C   UNL     1       5.376   3.491  13.268  0.00  0.00    +0.000 A 
ATOM     13  C   UNL     1       5.881   4.149  14.401  0.00  0.00    +0.000 A 
ATOM     14  C   UNL     1       5.262   4.028  15.659  0.00  0.00    +0.000 A 
ENDBRANCH   2   5
BRANCH   3  15
ATOM     15  C   UNL     1       3.155   3.686  19.352  0.00  0.00    +0.000 A 
ATOM     16  C   UNL     1       3.189   2.461  20.032  0.00  0.00    +0.000 A 
ATOM     17  C   UNL     1       2.402   2.235  21.164  0.00  0.00    +0.000 A 
ATOM     18  C   UNL     1       1.555   3.229  21.634  0.00  0.00    +0.000 A 
ATOM     19  C   UNL     1       1.532   4.470  21.001  0.00  0.00    +0.000 A 
ATOM     20  C   UNL     1       2.362   4.722  19.891  0.00  0.00    +0.000 A 
BRANCH  20  21
ATOM     21  C   UNL     1       2.376   6.077  19.280  0.00  0.00    +0.000 C 
ATOM     22  O   UNL     1       2.339   6.261  18.073  0.00  0.00    +0.000 OA
BRANCH  21  23
ATOM     23  O   UNL     1       2.529   7.086  20.165  0.00  0.00    +0.000 OA
ATOM     24  H   UNL     1       1.965   7.869  20.016  0.00  0.00    +0.000 HD
ENDBRANCH  21  23
ENDBRANCH  20  21
ENDBRANCH   3  15
TORSDOF 4
ENDMDL
MODEL 4
REMARK VINA RESULT:      -7.8      1.437      2.296
REMARK  Name = 
REMARK  4 active torsions:
REMARK  status: ('A' for Active; 'I' for Inactive)
REMARK    1  A    between atoms: C_2  and  C_13
REMARK    2  A    between atoms: N_3  and  C_4
REMARK    3  A    between atoms: C_9  and  C_10
REMARK    4  A    between atoms: C_10  and  O_12
REMARK                            x       y       z     vdW  Elec       q    Type
REMARK                         _______ _______ _______ _____ _____    ______ ____
ROOT
ATOM      1  O   UNL     1       5.558   5.182  18.950  0.00  0.00    +0.000 OA
ATOM      2  C   UNL     1       5.136   4.506  18.016  0.00  0.00    +0.000 C 
ATOM      3  N   UNL     1       4.146   3.543  18.104  0.00  0.00    +0.000 N 
ATOM      4  H   UNL     1       4.153   2.805  17.398  0.00  0.00    +0.000 HD
ENDROOT
BRANCH   2   5
ATOM      5  C   UNL     1       5.732   4.739  16.671  0.00  0.00    +0.000 A 
ATOM      6  C   UNL     1       6.970   5.369  16.515  0.00  0.00    +0.000 A 
ATOM      7  C   UNL     1       7.604   5.350  15.268  0.00  0.00    +0.000 A 
ATOM      8  C   UNL     1       7.015   4.708  14.164  0.00  0.00    +0.000 A 
ATOM      9  C   UNL     1       7.692   4.586  12.941  0.00  0.00    +0.000 A 
ATOM     10  C   UNL     1       7.097   3.941  11.856  0.00  0.00    +0.000 A 
ATOM     11  C   UNL     1       5.800   3.445  11.967  0.00  0.00    +0.000 A 
ATOM     12  C   UNL     1       5.120   3.545  13.181  0.00  0.00    +0.000 A 
ATOM     13  C   UNL     1       5.729   4.143  14.297  0.00  0.00    +0.000 A 
ATOM     14  C   UNL     1       5.104   4.156  15.557  0.00  0.00    +0.000 A 
ENDBRANCH   2   5
BRANCH   3  15
ATOM     15  C   UNL     1       3.320   3.309  19.242  0.00  0.00    +0.000 A 
ATOM     16  C   UNL     1       3.806   2.605  20.351  0.00  0.00    +0.000 A 
ATOM     17  C   UNL     1       2.990   2.324  21.450  0.00  0.00    +0.000 A 
ATOM     18  C   UNL     1       1.665   2.736  21.457  0.00  0.00    +0.000 A 
ATOM     19  C   UNL     1       1.167   3.474  20.385  0.00  0.00    +0.000 A 
ATOM     20  C   UNL     1       1.999   3.805  19.297  0.00  0.00    +0.000 A 
BRANCH  20  21
ATOM     21  C   UNL     1       1.468   4.657  18.202  0.00  0.00    +0.000 C 
ATOM     22  O   UNL     1       0.844   4.207  17.253  0.00  0.00    +0.000 OA
BRANCH  21  23
ATOM     23  O   UNL     1       1.813   5.960  18.292  0.00  0.00    +0.000 OA
ATOM     24  H   UNL     1       1.092   6.601  18.143  0.00  0.00    +0.000 HD
ENDBRANCH  21  23
ENDBRANCH  20  21
ENDBRANCH   3  15
TORSDOF 4
ENDMDL
MODEL 5
REMARK VINA RESULT:      -7.8      3.801      7.475
REMARK  Name = 
REMARK  4 active torsions:
REMARK  status: ('A' for Active; 'I' for Inactive)
REMARK    1  A    between atoms: C_2  and  C_13
REMARK    2  A    between atoms: N_3  and  C_4
REMARK    3  A    between atoms: C_9  and  C_10
REMARK    4  A    between atoms: C_10  and  O_12
REMARK                            x       y       z     vdW  Elec       q    Type
REMARK                         _______ _______ _______ _____ _____    ______ ____
ROOT
ATOM      1  O   UNL     1       3.145   4.876  18.439  0.00  0.00    +0.000 OA
ATOM      2  C   UNL     1       3.412   6.074  18.393  0.00  0.00    +0.000 C 
ATOM      3  N   UNL     1       4.524   6.627  17.785  0.00  0.00    +0.000 N 
ATOM      4  H   UNL     1       4.839   7.535  18.130  0.00  0.00    +0.000 HD
ENDROOT
BRANCH   2   5
ATOM      5  C   UNL     1       2.459   7.018  19.042  0.00  0.00    +0.000 A 
ATOM      6  C   UNL     1       1.997   6.816  20.345  0.00  0.00    +0.000 A 
ATOM      7  C   UNL     1       1.305   7.839  21.001  0.00  0.00    +0.000 A 
ATOM      8  C   UNL     1       1.063   9.072  20.369  0.00  0.00    +0.000 A 
ATOM      9  C   UNL     1       0.470  10.143  21.055  0.00  0.00    +0.000 A 
ATOM     10  C   UNL     1       0.241  11.362  20.416  0.00  0.00    +0.000 A 
ATOM     11  C   UNL     1       0.565  11.514  19.070  0.00  0.00    +0.000 A 
ATOM     12  C   UNL     1       1.169  10.463  18.378  0.00  0.00    +0.000 A 
ATOM     13  C   UNL     1       1.454   9.250  19.025  0.00  0.00    +0.000 A 
ATOM     14  C   UNL     1       2.160   8.219  18.378  0.00  0.00    +0.000 A 
ENDBRANCH   2   5
BRANCH   3  15
ATOM     15  C   UNL     1       5.442   5.927  16.948  0.00  0.00    +0.000 A 
ATOM     16  C   UNL     1       5.177   5.744  15.585  0.00  0.00    +0.000 A 
ATOM     17  C   UNL     1       6.043   5.015  14.766  0.00  0.00    +0.000 A 
ATOM     18  C   UNL     1       7.191   4.445  15.300  0.00  0.00    +0.000 A 
ATOM     19  C   UNL     1       7.500   4.645  16.643  0.00  0.00    +0.000 A 
ATOM     20  C   UNL     1       6.657   5.423  17.462  0.00  0.00    +0.000 A 
BRANCH  20  21
ATOM     21  C   UNL     1       7.046   5.686  18.872  0.00  0.00    +0.000 C 
ATOM     22  O   UNL     1       6.429   5.237  19.826  0.00  0.00    +0.000 OA
BRANCH  21  23
ATOM     23  O   UNL     1       8.081   6.542  19.014  0.00  0.00    +0.000 OA
ATOM     24  H   UNL     1       8.729   6.548  18.284  0.00  0.00    +0.000 HD
ENDBRANCH  21  23
ENDBRANCH  20  21
ENDBRANCH   3  15
TORSDOF 4
ENDMDL
MODEL 6
REMARK VINA RESULT:      -7.7      4.184      5.794
REMARK  Name = 
REMARK  4 active torsions:
REMARK  status: ('A' for Active; 'I' for Inactive)
REMARK    1  A    between atoms: C_2  and  C_13
REMARK    2  A    between atoms: N_3  and  C_4
REMARK    3  A    between atoms: C_9  and  C_10
REMARK    4  A    between atoms: C_10  and  O_12
REMARK                            x       y       z     vdW  Elec       q    Type
REMARK                         _______ _______ _______ _____ _____    ______ ____
ROOT
ATOM      1  O   UNL     1       1.578   5.679  20.544  0.00  0.00    +0.000 OA
ATOM      2  C   UNL     1       2.259   6.331  19.758  0.00  0.00    +0.000 C 
ATOM      3  N   UNL     1       2.151   7.693  19.539  0.00  0.00    +0.000 N 
ATOM      4  H   UNL     1       2.466   8.043  18.632  0.00  0.00    +0.000 HD
ENDROOT
BRANCH   2   5
ATOM      5  C   UNL     1       3.295   5.602  18.975  0.00  0.00    +0.000 A 
ATOM      6  C   UNL     1       3.606   4.264  19.233  0.00  0.00    +0.000 A 
ATOM      7  C   UNL     1       4.398   3.550  18.328  0.00  0.00    +0.000 A 
ATOM      8  C   UNL     1       4.891   4.157  17.159  0.00  0.00    +0.000 A 
ATOM      9  C   UNL     1       5.590   3.421  16.190  0.00  0.00    +0.000 A 
ATOM     10  C   UNL     1       6.068   4.036  15.033  0.00  0.00    +0.000 A 
ATOM     11  C   UNL     1       5.888   5.404  14.847  0.00  0.00    +0.000 A 
ATOM     12  C   UNL     1       5.182   6.147  15.793  0.00  0.00    +0.000 A 
ATOM     13  C   UNL     1       4.648   5.529  16.936  0.00  0.00    +0.000 A 
ATOM     14  C   UNL     1       3.841   6.236  17.845  0.00  0.00    +0.000 A 
ENDBRANCH   2   5
BRANCH   3  15
ATOM     15  C   UNL     1       1.371   8.596  20.318  0.00  0.00    +0.000 A 
ATOM     16  C   UNL     1       1.341   8.499  21.716  0.00  0.00    +0.000 A 
ATOM     17  C   UNL     1       0.539   9.344  22.487  0.00  0.00    +0.000 A 
ATOM     18  C   UNL     1      -0.257  10.301  21.873  0.00  0.00    +0.000 A 
ATOM     19  C   UNL     1      -0.215  10.446  20.488  0.00  0.00    +0.000 A 
ATOM     20  C   UNL     1       0.630   9.632  19.709  0.00  0.00    +0.000 A 
BRANCH  20  21
ATOM     21  C   UNL     1       0.714   9.856  18.242  0.00  0.00    +0.000 C 
ATOM     22  O   UNL     1       1.752   9.735  17.610  0.00  0.00    +0.000 OA
BRANCH  21  23
ATOM     23  O   UNL     1      -0.432  10.297  17.679  0.00  0.00    +0.000 OA
ATOM     24  H   UNL     1      -1.217  10.295  18.260  0.00  0.00    +0.000 HD
ENDBRANCH  21  23
ENDBRANCH  20  21
ENDBRANCH   3  15
TORSDOF 4
ENDMDL
MODEL 7
REMARK VINA RESULT:      -7.7      0.946      1.103
REMARK  Name = 
REMARK  4 active torsions:
REMARK  status: ('A' for Active; 'I' for Inactive)
REMARK    1  A    between atoms: C_2  and  C_13
REMARK    2  A    between atoms: N_3  and  C_4
REMARK    3  A    between atoms: C_9  and  C_10
REMARK    4  A    between atoms: C_10  and  O_12
REMARK                            x       y       z     vdW  Elec       q    Type
REMARK                         _______ _______ _______ _____ _____    ______ ____
ROOT
ATOM      1  O   UNL     1       6.024   4.241  18.753  0.00  0.00    +0.000 OA
ATOM      2  C   UNL     1       5.242   4.378  17.816  0.00  0.00    +0.000 C 
ATOM      3  N   UNL     1       3.869   4.227  17.887  0.00  0.00    +0.000 N 
ATOM      4  H   UNL     1       3.384   3.982  17.022  0.00  0.00    +0.000 HD
ENDROOT
BRANCH   2   5
ATOM      5  C   UNL     1       5.813   4.743  16.489  0.00  0.00    +0.000 A 
ATOM      6  C   UNL     1       6.907   5.605  16.371  0.00  0.00    +0.000 A 
ATOM      7  C   UNL     1       7.562   5.729  15.142  0.00  0.00    +0.000 A 
ATOM      8  C   UNL     1       7.136   5.000  14.016  0.00  0.00    +0.000 A 
ATOM      9  C   UNL     1       7.852   5.030  12.810  0.00  0.00    +0.000 A 
ATOM     10  C   UNL     1       7.421   4.297  11.704  0.00  0.00    +0.000 A 
ATOM     11  C   UNL     1       6.245   3.555  11.777  0.00  0.00    +0.000 A 
ATOM     12  C   UNL     1       5.529   3.503  12.974  0.00  0.00    +0.000 A 
ATOM     13  C   UNL     1       5.983   4.193  14.110  0.00  0.00    +0.000 A 
ATOM     14  C   UNL     1       5.338   4.065  15.354  0.00  0.00    +0.000 A 
ENDBRANCH   2   5
BRANCH   3  15
ATOM     15  C   UNL     1       3.116   4.078  19.088  0.00  0.00    +0.000 A 
ATOM     16  C   UNL     1       2.811   5.186  19.888  0.00  0.00    +0.000 A 
ATOM     17  C   UNL     1       2.118   5.045  21.094  0.00  0.00    +0.000 A 
ATOM     18  C   UNL     1       1.723   3.787  21.527  0.00  0.00    +0.000 A 
ATOM     19  C   UNL     1       1.977   2.673  20.731  0.00  0.00    +0.000 A 
ATOM     20  C   UNL     1       2.629   2.815  19.490  0.00  0.00    +0.000 A 
BRANCH  20  21
ATOM     21  C   UNL     1       2.821   1.622  18.623  0.00  0.00    +0.000 C 
ATOM     22  O   UNL     1       3.716   0.810  18.800  0.00  0.00    +0.000 OA
BRANCH  21  23
ATOM     23  O   UNL     1       1.983   1.561  17.566  0.00  0.00    +0.000 OA
ATOM     24  H   UNL     1       1.701   0.665  17.300  0.00  0.00    +0.000 HD
ENDBRANCH  21  23
ENDBRANCH  20  21
ENDBRANCH   3  15
TORSDOF 4
ENDMDL
MODEL 8
REMARK VINA RESULT:      -7.7      4.607      8.004
REMARK  Name = 
REMARK  4 active torsions:
REMARK  status: ('A' for Active; 'I' for Inactive)
REMARK    1  A    between atoms: C_2  and  C_13
REMARK    2  A    between atoms: N_3  and  C_4
REMARK    3  A    between atoms: C_9  and  C_10
REMARK    4  A    between atoms: C_10  and  O_12
REMARK                            x       y       z     vdW  Elec       q    Type
REMARK                         _______ _______ _______ _____ _____    ______ ____
ROOT
ATOM      1  O   UNL     1       2.223   6.869  18.026  0.00  0.00    +0.000 OA
ATOM      2  C   UNL     1       2.171   7.023  19.243  0.00  0.00    +0.000 C 
ATOM      3  N   UNL     1       2.594   6.105  20.187  0.00  0.00    +0.000 N 
ATOM      4  H   UNL     1       2.163   6.159  21.112  0.00  0.00    +0.000 HD
ENDROOT
BRANCH   2   5
ATOM      5  C   UNL     1       1.610   8.306  19.752  0.00  0.00    +0.000 A 
ATOM      6  C   UNL     1       1.422   9.409  18.916  0.00  0.00    +0.000 A 
ATOM      7  C   UNL     1       0.674  10.502  19.368  0.00  0.00    +0.000 A 
ATOM      8  C   UNL     1       0.108  10.510  20.656  0.00  0.00    +0.000 A 
ATOM      9  C   UNL     1      -0.736  11.548  21.079  0.00  0.00    +0.000 A 
ATOM     10  C   UNL     1      -1.294  11.540  22.357  0.00  0.00    +0.000 A 
ATOM     11  C   UNL     1      -0.983  10.513  23.246  0.00  0.00    +0.000 A 
ATOM     12  C   UNL     1      -0.157   9.466  22.835  0.00  0.00    +0.000 A 
ATOM     13  C   UNL     1       0.366   9.435  21.533  0.00  0.00    +0.000 A 
ATOM     14  C   UNL     1       1.109   8.335  21.064  0.00  0.00    +0.000 A 
ENDBRANCH   2   5
BRANCH   3  15
ATOM     15  C   UNL     1       3.333   4.918  19.913  0.00  0.00    +0.000 A 
ATOM     16  C   UNL     1       4.592   4.979  19.300  0.00  0.00    +0.000 A 
ATOM     17  C   UNL     1       5.302   3.820  18.978  0.00  0.00    +0.000 A 
ATOM     18  C   UNL     1       4.761   2.572  19.256  0.00  0.00    +0.000 A 
ATOM     19  C   UNL     1       3.530   2.483  19.902  0.00  0.00    +0.000 A 
ATOM     20  C   UNL     1       2.833   3.648  20.276  0.00  0.00    +0.000 A 
BRANCH  20  21
ATOM     21  C   UNL     1       1.558   3.529  21.031  0.00  0.00    +0.000 C 
ATOM     22  O   UNL     1       1.482   2.987  22.123  0.00  0.00    +0.000 OA
BRANCH  21  23
ATOM     23  O   UNL     1       0.473   3.984  20.368  0.00  0.00    +0.000 OA
ATOM     24  H   UNL     1       0.482   4.933  20.142  0.00  0.00    +0.000 HD
ENDBRANCH  21  23
ENDBRANCH  20  21
ENDBRANCH   3  15
TORSDOF 4
ENDMDL
MODEL 9
REMARK VINA RESULT:      -7.6      4.746      8.253
REMARK  Name = 
REMARK  4 active torsions:
REMARK  status: ('A' for Active; 'I' for Inactive)
REMARK    1  A    between atoms: C_2  and  C_13
REMARK    2  A    between atoms: N_3  and  C_4
REMARK    3  A    between atoms: C_9  and  C_10
REMARK    4  A    between atoms: C_10  and  O_12
REMARK                            x       y       z     vdW  Elec       q    Type
REMARK                         _______ _______ _______ _____ _____    ______ ____
ROOT
ATOM      1  O   UNL     1       2.403   8.518  16.948  0.00  0.00    +0.000 OA
ATOM      2  C   UNL     1       2.251   8.170  18.115  0.00  0.00    +0.000 C 
ATOM      3  N   UNL     1       2.618   6.945  18.642  0.00  0.00    +0.000 N 
ATOM      4  H   UNL     1       2.113   6.627  19.472  0.00  0.00    +0.000 HD
ENDROOT
BRANCH   2   5
ATOM      5  C   UNL     1       1.622   9.146  19.049  0.00  0.00    +0.000 A 
ATOM      6  C   UNL     1       1.128  10.375  18.605  0.00  0.00    +0.000 A 
ATOM      7  C   UNL     1       0.333  11.151  19.455  0.00  0.00    +0.000 A 
ATOM      8  C   UNL     1       0.023  10.714  20.756  0.00  0.00    +0.000 A 
ATOM      9  C   UNL     1      -0.863  11.428  21.577  0.00  0.00    +0.000 A 
ATOM     10  C   UNL     1      -1.166  10.980  22.863  0.00  0.00    +0.000 A 
ATOM     11  C   UNL     1      -0.554   9.832  23.361  0.00  0.00    +0.000 A 
ATOM     12  C   UNL     1       0.318   9.102  22.552  0.00  0.00    +0.000 A 
ATOM     13  C   UNL     1       0.588   9.514  21.237  0.00  0.00    +0.000 A 
ATOM     14  C   UNL     1       1.376   8.735  20.370  0.00  0.00    +0.000 A 
ENDBRANCH   2   5
BRANCH   3  15
ATOM     15  C   UNL     1       3.403   5.960  17.975  0.00  0.00    +0.000 A 
ATOM     16  C   UNL     1       4.637   6.292  17.401  0.00  0.00    +0.000 A 
ATOM     17  C   UNL     1       5.391   5.348  16.699  0.00  0.00    +0.000 A 
ATOM     18  C   UNL     1       4.919   4.051  16.551  0.00  0.00    +0.000 A 
ATOM     19  C   UNL     1       3.715   3.683  17.147  0.00  0.00    +0.000 A 
ATOM     20  C   UNL     1       2.976   4.616  17.900  0.00  0.00    +0.000 A 
BRANCH  20  21
ATOM     21  C   UNL     1       1.733   4.181  18.589  0.00  0.00    +0.000 C 
ATOM     22  O   UNL     1       1.434   4.550  19.714  0.00  0.00    +0.000 OA
BRANCH  21  23
ATOM     23  O   UNL     1       1.008   3.268  17.907  0.00  0.00    +0.000 OA
ATOM     24  H   UNL     1       1.425   2.391  17.799  0.00  0.00    +0.000 HD
ENDBRANCH  21  23
ENDBRANCH  20  21
ENDBRANCH   3  15
TORSDOF 4
ENDMDL
