MODEL 1
REMARK VINA RESULT:      -8.4      0.000      0.000
REMARK  Name = 
REMARK  7 active torsions:
REMARK  status: ('A' for Active; 'I' for Inactive)
REMARK    1  A    between atoms: C_2  and  C_3
REMARK    2  A    between atoms: C_3  and  C_4
REMARK    3  A    between atoms: N_10  and  C_11
REMARK    4  A    between atoms: C_11  and  C_12
REMARK    5  A    between atoms: C_14  and  N_15
REMARK    6  A    between atoms: C_21  and  O_22
REMARK    7  A    between atoms: C_23  and  O_24
REMARK                            x       y       z     vdW  Elec       q    Type
REMARK                         _______ _______ _______ _____ _____    ______ ____
ROOT
ATOM      1  C   UNL     1       3.282   6.396  18.038  0.00  0.00    +0.000 A 
ATOM      2  C   UNL     1       4.544   6.687  17.502  0.00  0.00    +0.000 A 
ATOM      3  C   UNL     1       5.510   5.690  17.419  0.00  0.00    +0.000 A 
ATOM      4  C   UNL     1       5.192   4.380  17.775  0.00  0.00    +0.000 A 
ATOM      5  C   UNL     1       3.947   4.101  18.315  0.00  0.00    +0.000 A 
ATOM      6  N   UNL     1       3.559   2.824  18.437  0.00  0.00    +0.000 NA
ATOM      7  C   UNL     1       2.369   2.651  19.032  0.00  0.00    +0.000 A 
ATOM      8  C   UNL     1       1.686   3.666  19.673  0.00  0.00    +0.000 A 
ATOM      9  N   UNL     1       1.955   4.941  19.389  0.00  0.00    +0.000 NA
ATOM     10  C   UNL     1       3.049   5.156  18.630  0.00  0.00    +0.000 A 
ENDROOT
BRANCH   3  11
ATOM     11  N   UNL     1       6.836   5.999  16.865  0.00  0.00    +0.000 N 
ATOM     12  O   UNL     1       7.543   5.040  16.509  0.00  0.00    +0.000 OA
ATOM     13  O   UNL     1       7.149   7.185  16.763  0.00  0.00    +0.000 OA
ENDBRANCH   3  11
BRANCH   7  14
ATOM     14  O   UNL     1       1.560   1.680  18.456  0.00  0.00    +0.000 OA
ATOM     15  H   UNL     1       1.887   0.857  18.880  0.00  0.00    +0.000 HD
ENDBRANCH   7  14
BRANCH   8  16
ATOM     16  O   UNL     1       0.581   3.406  20.432  0.00  0.00    +0.000 OA
ATOM     17  H   UNL     1       0.916   3.243  21.335  0.00  0.00    +0.000 HD
ENDBRANCH   8  16
BRANCH   1  18
ATOM     18  C   UNL     1       2.114   7.338  17.845  0.00  0.00    +0.000 C 
BRANCH  18  21
ATOM     19  O   UNL     1       2.382  10.953  17.985  0.00  0.00    +0.000 OA
ATOM     20  C   UNL     1       1.821   9.868  18.126  0.00  0.00    +0.000 C 
ATOM     21  N   UNL     1       2.550   8.728  17.907  0.00  0.00    +0.000 N 
ATOM     22  H   UNL     1       3.506   8.933  17.643  0.00  0.00    +0.000 HD
BRANCH  20  23
ATOM     23  C   UNL     1       0.354   9.773  18.531  0.00  0.00    +0.000 C 
BRANCH  23  24
ATOM     24  C   UNL     1       0.151   9.886  20.022  0.00  0.00    +0.000 A 
ATOM     25  C   UNL     1      -0.603  10.941  20.559  0.00  0.00    +0.000 A 
ATOM     26  C   UNL     1      -0.786  11.051  21.937  0.00  0.00    +0.000 A 
ATOM     27  C   UNL     1      -0.224  10.106  22.794  0.00  0.00    +0.000 A 
ATOM     28  C   UNL     1       0.515   9.047  22.269  0.00  0.00    +0.000 A 
ATOM     29  C   UNL     1       0.701   8.935  20.891  0.00  0.00    +0.000 A 
ENDBRANCH  23  24
ENDBRANCH  20  23
ENDBRANCH  18  21
ENDBRANCH   1  18
TORSDOF 7
ENDMDL
MODEL 2
REMARK VINA RESULT:      -8.4      1.505      2.260
REMARK  Name = 
REMARK  7 active torsions:
REMARK  status: ('A' for Active; 'I' for Inactive)
REMARK    1  A    between atoms: C_2  and  C_3
REMARK    2  A    between atoms: C_3  and  C_4
REMARK    3  A    between atoms: N_10  and  C_11
REMARK    4  A    between atoms: C_11  and  C_12
REMARK    5  A    between atoms: C_14  and  N_15
REMARK    6  A    between atoms: C_21  and  O_22
REMARK    7  A    between atoms: C_23  and  O_24
REMARK                            x       y       z     vdW  Elec       q    Type
REMARK                         _______ _______ _______ _____ _____    ______ ____
ROOT
ATOM      1  C   UNL     1       3.659   6.281  18.054  0.00  0.00    +0.000 A 
ATOM      2  C   UNL     1       4.959   6.425  17.551  0.00  0.00    +0.000 A 
ATOM      3  C   UNL     1       5.805   5.324  17.490  0.00  0.00    +0.000 A 
ATOM      4  C   UNL     1       5.331   4.059  17.833  0.00  0.00    +0.000 A 
ATOM      5  C   UNL     1       4.048   3.924  18.340  0.00  0.00    +0.000 A 
ATOM      6  N   UNL     1       3.512   2.700  18.448  0.00  0.00    +0.000 NA
ATOM      7  C   UNL     1       2.295   2.665  19.012  0.00  0.00    +0.000 A 
ATOM      8  C   UNL     1       1.717   3.752  19.638  0.00  0.00    +0.000 A 
ATOM      9  N   UNL     1       2.139   4.987  19.366  0.00  0.00    +0.000 NA
ATOM     10  C   UNL     1       3.269   5.075  18.636  0.00  0.00    +0.000 A 
ENDROOT
BRANCH   3  11
ATOM     11  N   UNL     1       7.172   5.478  16.970  0.00  0.00    +0.000 N 
ATOM     12  O   UNL     1       7.514   6.611  16.590  0.00  0.00    +0.000 OA
ATOM     13  O   UNL     1       7.897   4.483  16.973  0.00  0.00    +0.000 OA
ENDBRANCH   3  11
BRANCH   7  14
ATOM     14  O   UNL     1       1.396   1.794  18.412  0.00  0.00    +0.000 OA
ATOM     15  H   UNL     1       0.548   2.040  18.841  0.00  0.00    +0.000 HD
ENDBRANCH   7  14
BRANCH   8  16
ATOM     16  O   UNL     1       0.571   3.620  20.369  0.00  0.00    +0.000 OA
ATOM     17  H   UNL     1      -0.063   3.165  19.781  0.00  0.00    +0.000 HD
ENDBRANCH   8  16
BRANCH   1  18
ATOM     18  C   UNL     1       2.612   7.351  17.834  0.00  0.00    +0.000 C 
BRANCH  18  21
ATOM     19  O   UNL     1       1.200   9.203  20.616  0.00  0.00    +0.000 OA
ATOM     20  C   UNL     1       1.468   8.994  19.434  0.00  0.00    +0.000 C 
ATOM     21  N   UNL     1       2.050   7.797  19.104  0.00  0.00    +0.000 N 
ATOM     22  H   UNL     1       2.193   7.208  19.915  0.00  0.00    +0.000 HD
BRANCH  20  23
ATOM     23  C   UNL     1       1.172  10.026  18.352  0.00  0.00    +0.000 C 
BRANCH  23  24
ATOM     24  C   UNL     1      -0.274  10.458  18.337  0.00  0.00    +0.000 A 
ATOM     25  C   UNL     1      -1.220   9.752  17.578  0.00  0.00    +0.000 A 
ATOM     26  C   UNL     1      -2.555  10.155  17.558  0.00  0.00    +0.000 A 
ATOM     27  C   UNL     1      -2.962  11.262  18.300  0.00  0.00    +0.000 A 
ATOM     28  C   UNL     1      -2.033  11.962  19.069  0.00  0.00    +0.000 A 
ATOM     29  C   UNL     1      -0.697  11.562  19.090  0.00  0.00    +0.000 A 
ENDBRANCH  23  24
ENDBRANCH  20  23
ENDBRANCH  18  21
ENDBRANCH   1  18
TORSDOF 7
ENDMDL
MODEL 3
REMARK VINA RESULT:      -8.4      3.124      7.453
REMARK  Name = 
REMARK  7 active torsions:
REMARK  status: ('A' for Active; 'I' for Inactive)
REMARK    1  A    between atoms: C_2  and  C_3
REMARK    2  A    between atoms: C_3  and  C_4
REMARK    3  A    between atoms: N_10  and  C_11
REMARK    4  A    between atoms: C_11  and  C_12
REMARK    5  A    between atoms: C_14  and  N_15
REMARK    6  A    between atoms: C_21  and  O_22
REMARK    7  A    between atoms: C_23  and  O_24
REMARK                            x       y       z     vdW  Elec       q    Type
REMARK                         _______ _______ _______ _____ _____    ______ ____
ROOT
ATOM      1  C   UNL     1       3.597   5.456  18.041  0.00  0.00    +0.000 A 
ATOM      2  C   UNL     1       2.959   6.618  18.495  0.00  0.00    +0.000 A 
ATOM      3  C   UNL     1       2.301   6.615  19.720  0.00  0.00    +0.000 A 
ATOM      4  C   UNL     1       2.360   5.491  20.542  0.00  0.00    +0.000 A 
ATOM      5  C   UNL     1       2.983   4.340  20.083  0.00  0.00    +0.000 A 
ATOM      6  N   UNL     1       3.245   3.349  20.946  0.00  0.00    +0.000 NA
ATOM      7  C   UNL     1       3.786   2.251  20.397  0.00  0.00    +0.000 A 
ATOM      8  C   UNL     1       3.870   2.047  19.033  0.00  0.00    +0.000 A 
ATOM      9  N   UNL     1       3.802   3.080  18.194  0.00  0.00    +0.000 NA
ATOM     10  C   UNL     1       3.438   4.259  18.739  0.00  0.00    +0.000 A 
ENDROOT
BRANCH   3  11
ATOM     11  N   UNL     1       1.624   7.832  20.191  0.00  0.00    +0.000 N 
ATOM     12  O   UNL     1       1.550   8.787  19.399  0.00  0.00    +0.000 OA
ATOM     13  O   UNL     1       1.151   7.817  21.327  0.00  0.00    +0.000 OA
ENDBRANCH   3  11
BRANCH   7  14
ATOM     14  O   UNL     1       4.807   1.668  21.136  0.00  0.00    +0.000 OA
ATOM     15  H   UNL     1       4.577   0.714  21.094  0.00  0.00    +0.000 HD
ENDBRANCH   7  14
BRANCH   8  16
ATOM     16  O   UNL     1       4.243   0.837  18.521  0.00  0.00    +0.000 OA
ATOM     17  H   UNL     1       3.589   0.635  17.825  0.00  0.00    +0.000 HD
ENDBRANCH   8  16
BRANCH   1  18
ATOM     18  C   UNL     1       4.588   5.502  16.899  0.00  0.00    +0.000 C 
BRANCH  18  21
ATOM     19  O   UNL     1       7.967   4.197  17.086  0.00  0.00    +0.000 OA
ATOM     20  C   UNL     1       7.060   4.887  16.625  0.00  0.00    +0.000 C 
ATOM     21  N   UNL     1       5.862   4.913  17.292  0.00  0.00    +0.000 N 
ATOM     22  H   UNL     1       5.876   4.330  18.120  0.00  0.00    +0.000 HD
BRANCH  20  23
ATOM     23  C   UNL     1       7.243   5.698  15.347  0.00  0.00    +0.000 C 
BRANCH  23  24
ATOM     24  C   UNL     1       6.923   4.907  14.103  0.00  0.00    +0.000 A 
ATOM     25  C   UNL     1       5.820   4.040  14.075  0.00  0.00    +0.000 A 
ATOM     26  C   UNL     1       5.527   3.302  12.928  0.00  0.00    +0.000 A 
ATOM     27  C   UNL     1       6.328   3.427  11.794  0.00  0.00    +0.000 A 
ATOM     28  C   UNL     1       7.418   4.296  11.807  0.00  0.00    +0.000 A 
ATOM     29  C   UNL     1       7.714   5.033  12.953  0.00  0.00    +0.000 A 
ENDBRANCH  23  24
ENDBRANCH  20  23
ENDBRANCH  18  21
ENDBRANCH   1  18
TORSDOF 7
ENDMDL
MODEL 4
REMARK VINA RESULT:      -8.3      1.895      4.557
REMARK  Name = 
REMARK  7 active torsions:
REMARK  status: ('A' for Active; 'I' for Inactive)
REMARK    1  A    between atoms: C_2  and  C_3
REMARK    2  A    between atoms: C_3  and  C_4
REMARK    3  A    between atoms: N_10  and  C_11
REMARK    4  A    between atoms: C_11  and  C_12
REMARK    5  A    between atoms: C_14  and  N_15
REMARK    6  A    between atoms: C_21  and  O_22
REMARK    7  A    between atoms: C_23  and  O_24
REMARK                            x       y       z     vdW  Elec       q    Type
REMARK                         _______ _______ _______ _____ _____    ______ ____
ROOT
ATOM      1  C   UNL     1       3.446   6.243  17.811  0.00  0.00    +0.000 A 
ATOM      2  C   UNL     1       2.595   5.144  17.986  0.00  0.00    +0.000 A 
ATOM      3  C   UNL     1       3.130   3.886  18.240  0.00  0.00    +0.000 A 
ATOM      4  C   UNL     1       4.504   3.735  18.419  0.00  0.00    +0.000 A 
ATOM      5  C   UNL     1       5.342   4.824  18.233  0.00  0.00    +0.000 A 
ATOM      6  N   UNL     1       6.620   4.741  18.629  0.00  0.00    +0.000 NA
ATOM      7  C   UNL     1       7.368   5.818  18.345  0.00  0.00    +0.000 A 
ATOM      8  C   UNL     1       6.943   6.842  17.521  0.00  0.00    +0.000 A 
ATOM      9  N   UNL     1       5.643   7.028  17.296  0.00  0.00    +0.000 NA
ATOM     10  C   UNL     1       4.824   6.049  17.733  0.00  0.00    +0.000 A 
ENDROOT
BRANCH   3  11
ATOM     11  N   UNL     1       2.237   2.731  18.415  0.00  0.00    +0.000 N 
ATOM     12  O   UNL     1       1.036   2.891  18.139  0.00  0.00    +0.000 OA
ATOM     13  O   UNL     1       2.741   1.674  18.795  0.00  0.00    +0.000 OA
ENDBRANCH   3  11
BRANCH   7  14
ATOM     14  O   UNL     1       8.243   6.206  19.352  0.00  0.00    +0.000 OA
ATOM     15  H   UNL     1       8.999   6.571  18.843  0.00  0.00    +0.000 HD
ENDBRANCH   7  14
BRANCH   8  16
ATOM     16  O   UNL     1       7.805   7.816  17.102  0.00  0.00    +0.000 OA
ATOM     17  H   UNL     1       7.244   8.500  16.687  0.00  0.00    +0.000 HD
ENDBRANCH   8  16
BRANCH   1  18
ATOM     18  C   UNL     1       2.916   7.659  17.865  0.00  0.00    +0.000 C 
BRANCH  18  21
ATOM     19  O   UNL     1       0.913   8.977  20.588  0.00  0.00    +0.000 OA
ATOM     20  C   UNL     1       1.369   8.953  19.446  0.00  0.00    +0.000 C 
ATOM     21  N   UNL     1       2.131   7.875  19.074  0.00  0.00    +0.000 N 
ATOM     22  H   UNL     1       2.228   7.202  19.824  0.00  0.00    +0.000 HD
BRANCH  20  23
ATOM     23  C   UNL     1       1.107  10.082  18.456  0.00  0.00    +0.000 C 
BRANCH  23  24
ATOM     24  C   UNL     1      -0.353  10.456  18.369  0.00  0.00    +0.000 A 
ATOM     25  C   UNL     1      -0.855  11.541  19.104  0.00  0.00    +0.000 A 
ATOM     26  C   UNL     1      -2.205  11.882  19.031  0.00  0.00    +0.000 A 
ATOM     27  C   UNL     1      -3.067  11.151  18.217  0.00  0.00    +0.000 A 
ATOM     28  C   UNL     1      -2.576  10.080  17.471  0.00  0.00    +0.000 A 
ATOM     29  C   UNL     1      -1.226   9.735  17.545  0.00  0.00    +0.000 A 
ENDBRANCH  23  24
ENDBRANCH  20  23
ENDBRANCH  18  21
ENDBRANCH   1  18
TORSDOF 7
ENDMDL
MODEL 5
REMARK VINA RESULT:      -8.3      1.862      4.603
REMARK  Name = 
REMARK  7 active torsions:
REMARK  status: ('A' for Active; 'I' for Inactive)
REMARK    1  A    between atoms: C_2  and  C_3
REMARK    2  A    between atoms: C_3  and  C_4
REMARK    3  A    between atoms: N_10  and  C_11
REMARK    4  A    between atoms: C_11  and  C_12
REMARK    5  A    between atoms: C_14  and  N_15
REMARK    6  A    between atoms: C_21  and  O_22
REMARK    7  A    between atoms: C_23  and  O_24
REMARK                            x       y       z     vdW  Elec       q    Type
REMARK                         _______ _______ _______ _____ _____    ______ ____
ROOT
ATOM      1  C   UNL     1       3.343   6.307  17.943  0.00  0.00    +0.000 A 
ATOM      2  C   UNL     1       2.456   5.250  18.184  0.00  0.00    +0.000 A 
ATOM      3  C   UNL     1       2.949   3.981  18.470  0.00  0.00    +0.000 A 
ATOM      4  C   UNL     1       4.321   3.782  18.616  0.00  0.00    +0.000 A 
ATOM      5  C   UNL     1       5.194   4.828  18.365  0.00  0.00    +0.000 A 
ATOM      6  N   UNL     1       6.479   4.709  18.727  0.00  0.00    +0.000 NA
ATOM      7  C   UNL     1       7.260   5.744  18.382  0.00  0.00    +0.000 A 
ATOM      8  C   UNL     1       6.852   6.753  17.532  0.00  0.00    +0.000 A 
ATOM      9  N   UNL     1       5.553   6.982  17.337  0.00  0.00    +0.000 NA
ATOM     10  C   UNL     1       4.710   6.054  17.833  0.00  0.00    +0.000 A 
ENDROOT
BRANCH   3  11
ATOM     11  N   UNL     1       2.017   2.871  18.715  0.00  0.00    +0.000 N 
ATOM     12  O   UNL     1       2.353   2.018  19.555  0.00  0.00    +0.000 OA
ATOM     13  O   UNL     1       0.953   2.873  18.095  0.00  0.00    +0.000 OA
ENDBRANCH   3  11
BRANCH   7  14
ATOM     14  O   UNL     1       8.179   6.133  19.347  0.00  0.00    +0.000 OA
ATOM     15  H   UNL     1       9.011   5.724  19.022  0.00  0.00    +0.000 HD
ENDBRANCH   7  14
BRANCH   8  16
ATOM     16  O   UNL     1       7.738   7.675  17.051  0.00  0.00    +0.000 OA
ATOM     17  H   UNL     1       8.458   7.157  16.643  0.00  0.00    +0.000 HD
ENDBRANCH   8  16
BRANCH   1  18
ATOM     18  C   UNL     1       2.871   7.744  17.958  0.00  0.00    +0.000 C 
BRANCH  18  21
ATOM     19  O   UNL     1       0.825   9.184  20.585  0.00  0.00    +0.000 OA
ATOM     20  C   UNL     1       1.283   9.095  19.447  0.00  0.00    +0.000 C 
ATOM     21  N   UNL     1       2.079   8.019  19.151  0.00  0.00    +0.000 N 
ATOM     22  H   UNL     1       2.196   7.403  19.946  0.00  0.00    +0.000 HD
BRANCH  20  23
ATOM     23  C   UNL     1       0.986  10.144  18.382  0.00  0.00    +0.000 C 
BRANCH  23  24
ATOM     24  C   UNL     1      -0.480  10.492  18.297  0.00  0.00    +0.000 A 
ATOM     25  C   UNL     1      -1.340   9.753  17.469  0.00  0.00    +0.000 A 
ATOM     26  C   UNL     1      -2.693  10.078  17.383  0.00  0.00    +0.000 A 
ATOM     27  C   UNL     1      -3.205  11.139  18.128  0.00  0.00    +0.000 A 
ATOM     28  C   UNL     1      -2.362  11.870  18.963  0.00  0.00    +0.000 A 
ATOM     29  C   UNL     1      -1.008  11.549  19.050  0.00  0.00    +0.000 A 
ENDBRANCH  23  24
ENDBRANCH  20  23
ENDBRANCH  18  21
ENDBRANCH   1  18
TORSDOF 7
ENDMDL
MODEL 6
REMARK VINA RESULT:      -8.2      1.326      4.096
REMARK  Name = 
REMARK  7 active torsions:
REMARK  status: ('A' for Active; 'I' for Inactive)
REMARK    1  A    between atoms: C_2  and  C_3
REMARK    2  A    between atoms: C_3  and  C_4
REMARK    3  A    between atoms: N_10  and  C_11
REMARK    4  A    between atoms: C_11  and  C_12
REMARK    5  A    between atoms: C_14  and  N_15
REMARK    6  A    between atoms: C_21  and  O_22
REMARK    7  A    between atoms: C_23  and  O_24
REMARK                            x       y       z     vdW  Elec       q    Type
REMARK                         _______ _______ _______ _____ _____    ______ ____
ROOT
ATOM      1  C   UNL     1       3.201   6.615  18.038  0.00  0.00    +0.000 A 
ATOM      2  C   UNL     1       2.121   5.794  18.389  0.00  0.00    +0.000 A 
ATOM      3  C   UNL     1       2.341   4.460  18.714  0.00  0.00    +0.000 A 
ATOM      4  C   UNL     1       3.642   3.964  18.789  0.00  0.00    +0.000 A 
ATOM      5  C   UNL     1       4.704   4.778  18.429  0.00  0.00    +0.000 A 
ATOM      6  N   UNL     1       5.954   4.389  18.719  0.00  0.00    +0.000 NA
ATOM      7  C   UNL     1       6.918   5.207  18.272  0.00  0.00    +0.000 A 
ATOM      8  C   UNL     1       6.683   6.248  17.394  0.00  0.00    +0.000 A 
ATOM      9  N   UNL     1       5.457   6.754  17.264  0.00  0.00    +0.000 NA
ATOM     10  C   UNL     1       4.467   6.059  17.861  0.00  0.00    +0.000 A 
ENDROOT
BRANCH   3  11
ATOM     11  N   UNL     1       1.206   3.597  19.074  0.00  0.00    +0.000 N 
ATOM     12  O   UNL     1       0.673   3.787  20.181  0.00  0.00    +0.000 OA
ATOM     13  O   UNL     1       0.840   2.763  18.247  0.00  0.00    +0.000 OA
ENDBRANCH   3  11
BRANCH   7  14
ATOM     14  O   UNL     1       7.966   5.420  19.158  0.00  0.00    +0.000 OA
ATOM     15  H   UNL     1       8.562   4.664  18.962  0.00  0.00    +0.000 HD
ENDBRANCH   7  14
BRANCH   8  16
ATOM     16  O   UNL     1       7.714   6.928  16.811  0.00  0.00    +0.000 OA
ATOM     17  H   UNL     1       7.940   6.423  16.007  0.00  0.00    +0.000 HD
ENDBRANCH   8  16
BRANCH   1  18
ATOM     18  C   UNL     1       3.060   8.121  18.003  0.00  0.00    +0.000 C 
BRANCH  18  21
ATOM     19  O   UNL     1      -0.267   9.532  17.689  0.00  0.00    +0.000 OA
ATOM     20  C   UNL     1       0.893   9.485  18.095  0.00  0.00    +0.000 C 
ATOM     21  N   UNL     1       1.715   8.508  17.595  0.00  0.00    +0.000 N 
ATOM     22  H   UNL     1       1.239   7.920  16.922  0.00  0.00    +0.000 HD
BRANCH  20  23
ATOM     23  C   UNL     1       1.420  10.474  19.128  0.00  0.00    +0.000 C 
BRANCH  23  24
ATOM     24  C   UNL     1       0.744  10.334  20.470  0.00  0.00    +0.000 A 
ATOM     25  C   UNL     1      -0.155  11.314  20.920  0.00  0.00    +0.000 A 
ATOM     26  C   UNL     1      -0.775  11.190  22.163  0.00  0.00    +0.000 A 
ATOM     27  C   UNL     1      -0.511  10.084  22.967  0.00  0.00    +0.000 A 
ATOM     28  C   UNL     1       0.370   9.098  22.524  0.00  0.00    +0.000 A 
ATOM     29  C   UNL     1       0.992   9.220  21.282  0.00  0.00    +0.000 A 
ENDBRANCH  23  24
ENDBRANCH  20  23
ENDBRANCH  18  21
ENDBRANCH   1  18
TORSDOF 7
ENDMDL
MODEL 7
REMARK VINA RESULT:      -8.2      1.262      2.146
REMARK  Name = 
REMARK  7 active torsions:
REMARK  status: ('A' for Active; 'I' for Inactive)
REMARK    1  A    between atoms: C_2  and  C_3
REMARK    2  A    between atoms: C_3  and  C_4
REMARK    3  A    between atoms: N_10  and  C_11
REMARK    4  A    between atoms: C_11  and  C_12
REMARK    5  A    between atoms: C_14  and  N_15
REMARK    6  A    between atoms: C_21  and  O_22
REMARK    7  A    between atoms: C_23  and  O_24
REMARK                            x       y       z     vdW  Elec       q    Type
REMARK                         _______ _______ _______ _____ _____    ______ ____
ROOT
ATOM      1  C   UNL     1       3.241   6.172  18.289  0.00  0.00    +0.000 A 
ATOM      2  C   UNL     1       4.457   6.507  17.679  0.00  0.00    +0.000 A 
ATOM      3  C   UNL     1       5.426   5.530  17.480  0.00  0.00    +0.000 A 
ATOM      4  C   UNL     1       5.151   4.200  17.795  0.00  0.00    +0.000 A 
ATOM      5  C   UNL     1       3.951   3.876  18.409  0.00  0.00    +0.000 A 
ATOM      6  N   UNL     1       3.588   2.589  18.498  0.00  0.00    +0.000 NA
ATOM      7  C   UNL     1       2.446   2.371  19.168  0.00  0.00    +0.000 A 
ATOM      8  C   UNL     1       1.800   3.345  19.904  0.00  0.00    +0.000 A 
ATOM      9  N   UNL     1       2.033   4.635  19.662  0.00  0.00    +0.000 NA
ATOM     10  C   UNL     1       3.066   4.902  18.838  0.00  0.00    +0.000 A 
ENDROOT
BRANCH   3  11
ATOM     11  N   UNL     1       6.704   5.884  16.847  0.00  0.00    +0.000 N 
ATOM     12  O   UNL     1       7.435   4.949  16.475  0.00  0.00    +0.000 OA
ATOM     13  O   UNL     1       6.956   7.080  16.701  0.00  0.00    +0.000 OA
ENDBRANCH   3  11
BRANCH   7  14
ATOM     14  O   UNL     1       1.610   1.415  18.606  0.00  0.00    +0.000 OA
ATOM     15  H   UNL     1       1.177   1.025  19.397  0.00  0.00    +0.000 HD
ENDBRANCH   7  14
BRANCH   8  16
ATOM     16  O   UNL     1       0.756   3.032  20.727  0.00  0.00    +0.000 OA
ATOM     17  H   UNL     1       0.169   3.813  20.714  0.00  0.00    +0.000 HD
ENDBRANCH   8  16
BRANCH   1  18
ATOM     18  C   UNL     1       2.050   7.104  18.226  0.00  0.00    +0.000 C 
BRANCH  18  21
ATOM     19  O   UNL     1       2.339  10.656  17.553  0.00  0.00    +0.000 OA
ATOM     20  C   UNL     1       1.916   9.661  18.138  0.00  0.00    +0.000 C 
ATOM     21  N   UNL     1       2.459   8.442  17.819  0.00  0.00    +0.000 N 
ATOM     22  H   UNL     1       3.174   8.520  17.107  0.00  0.00    +0.000 HD
BRANCH  20  23
ATOM     23  C   UNL     1       0.816   9.757  19.189  0.00  0.00    +0.000 C 
BRANCH  23  24
ATOM     24  C   UNL     1      -0.474  10.310  18.636  0.00  0.00    +0.000 A 
ATOM     25  C   UNL     1      -1.076   9.723  17.512  0.00  0.00    +0.000 A 
ATOM     26  C   UNL     1      -2.265  10.237  16.994  0.00  0.00    +0.000 A 
ATOM     27  C   UNL     1      -2.870  11.338  17.598  0.00  0.00    +0.000 A 
ATOM     28  C   UNL     1      -2.289  11.919  18.723  0.00  0.00    +0.000 A 
ATOM     29  C   UNL     1      -1.099  11.408  19.241  0.00  0.00    +0.000 A 
ENDBRANCH  23  24
ENDBRANCH  20  23
ENDBRANCH  18  21
ENDBRANCH   1  18
TORSDOF 7
ENDMDL
MODEL 8
REMARK VINA RESULT:      -8.2      1.224      2.131
REMARK  Name = 
REMARK  7 active torsions:
REMARK  status: ('A' for Active; 'I' for Inactive)
REMARK    1  A    between atoms: C_2  and  C_3
REMARK    2  A    between atoms: C_3  and  C_4
REMARK    3  A    between atoms: N_10  and  C_11
REMARK    4  A    between atoms: C_11  and  C_12
REMARK    5  A    between atoms: C_14  and  N_15
REMARK    6  A    between atoms: C_21  and  O_22
REMARK    7  A    between atoms: C_23  and  O_24
REMARK                            x       y       z     vdW  Elec       q    Type
REMARK                         _______ _______ _______ _____ _____    ______ ____
ROOT
ATOM      1  C   UNL     1       3.238   6.307  18.085  0.00  0.00    +0.000 A 
ATOM      2  C   UNL     1       4.475   6.619  17.505  0.00  0.00    +0.000 A 
ATOM      3  C   UNL     1       5.448   5.635  17.373  0.00  0.00    +0.000 A 
ATOM      4  C   UNL     1       5.161   4.317  17.726  0.00  0.00    +0.000 A 
ATOM      5  C   UNL     1       3.940   4.017  18.310  0.00  0.00    +0.000 A 
ATOM      6  N   UNL     1       3.572   2.734  18.433  0.00  0.00    +0.000 NA
ATOM      7  C   UNL     1       2.408   2.540  19.071  0.00  0.00    +0.000 A 
ATOM      8  C   UNL     1       1.739   3.539  19.749  0.00  0.00    +0.000 A 
ATOM      9  N   UNL     1       1.982   4.820  19.470  0.00  0.00    +0.000 NA
ATOM     10  C   UNL     1       3.043   5.057  18.672  0.00  0.00    +0.000 A 
ENDROOT
BRANCH   3  11
ATOM     11  N   UNL     1       6.748   5.966  16.772  0.00  0.00    +0.000 N 
ATOM     12  O   UNL     1       7.069   7.167  16.730  0.00  0.00    +0.000 OA
ATOM     13  O   UNL     1       7.446   5.033  16.376  0.00  0.00    +0.000 OA
ENDBRANCH   3  11
BRANCH   7  14
ATOM     14  O   UNL     1       1.590   1.565  18.515  0.00  0.00    +0.000 OA
ATOM     15  H   UNL     1       2.038   1.375  17.663  0.00  0.00    +0.000 HD
ENDBRANCH   7  14
BRANCH   8  16
ATOM     16  O   UNL     1       0.667   3.257  20.548  0.00  0.00    +0.000 OA
ATOM     17  H   UNL     1       0.786   2.329  20.828  0.00  0.00    +0.000 HD
ENDBRANCH   8  16
BRANCH   1  18
ATOM     18  C   UNL     1       2.052   7.237  17.949  0.00  0.00    +0.000 C 
BRANCH  18  21
ATOM     19  O   UNL     1       2.388  10.848  17.875  0.00  0.00    +0.000 OA
ATOM     20  C   UNL     1       1.921   9.777  18.259  0.00  0.00    +0.000 C 
ATOM     21  N   UNL     1       2.490   8.618  17.794  0.00  0.00    +0.000 N 
ATOM     22  H   UNL     1       3.260   8.801  17.162  0.00  0.00    +0.000 HD
BRANCH  20  23
ATOM     23  C   UNL     1       0.741   9.717  19.222  0.00  0.00    +0.000 C 
BRANCH  23  24
ATOM     24  C   UNL     1      -0.520  10.305  18.637  0.00  0.00    +0.000 A 
ATOM     25  C   UNL     1      -1.120  11.430  19.226  0.00  0.00    +0.000 A 
ATOM     26  C   UNL     1      -2.290  11.970  18.692  0.00  0.00    +0.000 A 
ATOM     27  C   UNL     1      -2.869  11.399  17.561  0.00  0.00    +0.000 A 
ATOM     28  C   UNL     1      -2.274  10.291  16.960  0.00  0.00    +0.000 A 
ATOM     29  C   UNL     1      -1.105   9.748  17.493  0.00  0.00    +0.000 A 
ENDBRANCH  23  24
ENDBRANCH  20  23
ENDBRANCH  18  21
ENDBRANCH   1  18
TORSDOF 7
ENDMDL
MODEL 9
REMARK VINA RESULT:      -8.2      2.866      7.178
REMARK  Name = 
REMARK  7 active torsions:
REMARK  status: ('A' for Active; 'I' for Inactive)
REMARK    1  A    between atoms: C_2  and  C_3
REMARK    2  A    between atoms: C_3  and  C_4
REMARK    3  A    between atoms: N_10  and  C_11
REMARK    4  A    between atoms: C_11  and  C_12
REMARK    5  A    between atoms: C_14  and  N_15
REMARK    6  A    between atoms: C_21  and  O_22
REMARK    7  A    between atoms: C_23  and  O_24
REMARK                            x       y       z     vdW  Elec       q    Type
REMARK                         _______ _______ _______ _____ _____    ______ ____
ROOT
ATOM      1  C   UNL     1       3.466   6.037  17.682  0.00  0.00    +0.000 A 
ATOM      2  C   UNL     1       2.848   7.125  18.311  0.00  0.00    +0.000 A 
ATOM      3  C   UNL     1       2.298   6.974  19.579  0.00  0.00    +0.000 A 
ATOM      4  C   UNL     1       2.450   5.770  20.266  0.00  0.00    +0.000 A 
ATOM      5  C   UNL     1       3.052   4.693  19.635  0.00  0.00    +0.000 A 
ATOM      6  N   UNL     1       3.405   3.623  20.360  0.00  0.00    +0.000 NA
ATOM      7  C   UNL     1       3.918   2.606  19.652  0.00  0.00    +0.000 A 
ATOM      8  C   UNL     1       3.887   2.551  18.272  0.00  0.00    +0.000 A 
ATOM      9  N   UNL     1       3.728   3.665  17.558  0.00  0.00    +0.000 NA
ATOM     10  C   UNL     1       3.391   4.768  18.257  0.00  0.00    +0.000 A 
ENDROOT
BRANCH   3  11
ATOM     11  N   UNL     1       1.643   8.114  20.235  0.00  0.00    +0.000 N 
ATOM     12  O   UNL     1       1.403   8.014  21.451  0.00  0.00    +0.000 OA
ATOM     13  O   UNL     1       1.399   9.105  19.546  0.00  0.00    +0.000 OA
ENDBRANCH   3  11
BRANCH   7  14
ATOM     14  O   UNL     1       5.009   1.976  20.235  0.00  0.00    +0.000 OA
ATOM     15  H   UNL     1       5.453   2.715  20.703  0.00  0.00    +0.000 HD
ENDBRANCH   7  14
BRANCH   8  16
ATOM     16  O   UNL     1       4.238   1.413  17.602  0.00  0.00    +0.000 OA
ATOM     17  H   UNL     1       3.405   1.056  17.238  0.00  0.00    +0.000 HD
ENDBRANCH   8  16
BRANCH   1  18
ATOM     18  C   UNL     1       4.354   6.232  16.473  0.00  0.00    +0.000 C 
BRANCH  18  21
ATOM     19  O   UNL     1       7.829   6.563  17.458  0.00  0.00    +0.000 OA
ATOM     20  C   UNL     1       6.860   6.000  16.951  0.00  0.00    +0.000 C 
ATOM     21  N   UNL     1       5.679   6.692  16.869  0.00  0.00    +0.000 N 
ATOM     22  H   UNL     1       5.757   7.624  17.256  0.00  0.00    +0.000 HD
BRANCH  20  23
ATOM     23  C   UNL     1       6.949   4.573  16.425  0.00  0.00    +0.000 C 
BRANCH  23  24
ATOM     24  C   UNL     1       6.944   4.504  14.918  0.00  0.00    +0.000 A 
ATOM     25  C   UNL     1       6.042   3.663  14.247  0.00  0.00    +0.000 A 
ATOM     26  C   UNL     1       6.040   3.592  12.854  0.00  0.00    +0.000 A 
ATOM     27  C   UNL     1       6.933   4.366  12.115  0.00  0.00    +0.000 A 
ATOM     28  C   UNL     1       7.823   5.215  12.771  0.00  0.00    +0.000 A 
ATOM     29  C   UNL     1       7.828   5.286  14.164  0.00  0.00    +0.000 A 
ENDBRANCH  23  24
ENDBRANCH  20  23
ENDBRANCH  18  21
ENDBRANCH   1  18
TORSDOF 7
ENDMDL
