MODEL 1
REMARK VINA RESULT:      -7.4      0.000      0.000
REMARK  Name = 
REMARK  9 active torsions:
REMARK  status: ('A' for Active; 'I' for Inactive)
REMARK    1  A    between atoms: C_1  and  O_2
REMARK    2  A    between atoms: O_2  and  C_3
REMARK    3  A    between atoms: C_5  and  C_6
REMARK    4  A    between atoms: N_8  and  N_9
REMARK    5  A    between atoms: C_10  and  C_11
REMARK    6  A    between atoms: C_19  and  O_20
REMARK    7  A    between atoms: O_20  and  C_21
REMARK    8  A    between atoms: C_22  and  O_23
REMARK    9  A    between atoms: O_23  and  C_24
REMARK                            x       y       z     vdW  Elec       q    Type
REMARK                         _______ _______ _______ _____ _____    ______ ____
ROOT
ATOM      1  C   UNL     1       7.599   6.359  18.639  0.00  0.00    +0.000 C 
ATOM      2  O   UNL     1       8.341   5.887  19.494  0.00  0.00    +0.000 OA
ATOM      3  N   UNL     1       7.728   7.620  18.070  0.00  0.00    +0.000 N 
ATOM      4  H   UNL     1       7.018   7.993  17.452  0.00  0.00    +0.000 HD
ENDROOT
BRANCH   1   7
ATOM      5  C   UNL     1       4.048   5.085  18.556  0.00  0.00    +0.000 A 
ATOM      6  C   UNL     1       5.245   5.687  18.973  0.00  0.00    +0.000 A 
ATOM      7  C   UNL     1       6.407   5.575  18.211  0.00  0.00    +0.000 A 
ATOM      8  C   UNL     1       6.400   4.767  17.078  0.00  0.00    +0.000 A 
ATOM      9  C   UNL     1       5.233   4.089  16.685  0.00  0.00    +0.000 A 
ATOM     10  C   UNL     1       4.034   4.242  17.422  0.00  0.00    +0.000 A 
BRANCH   5  12
ATOM     11  C   UNL     1       2.763   4.538  20.474  0.00  0.00    +0.000 C 
ATOM     12  O   UNL     1       2.893   5.295  19.268  0.00  0.00    +0.000 OA
ENDBRANCH   5  12
BRANCH   9  13
ATOM     13  O   UNL     1       5.455   3.347  15.550  0.00  0.00    +0.000 OA
ATOM     14  C   UNL     1       6.195   3.908  14.477  0.00  0.00    +0.000 C 
ENDBRANCH   9  13
BRANCH  10  15
ATOM     15  O   UNL     1       2.955   3.536  16.962  0.00  0.00    +0.000 OA
ATOM     16  C   UNL     1       2.569   2.309  17.558  0.00  0.00    +0.000 C 
ENDBRANCH  10  15
ENDBRANCH   1   7
BRANCH   3  17
ATOM     17  N   UNL     1       8.727   8.440  18.504  0.00  0.00    +0.000 NA
ATOM     18  C   UNL     1       8.554   9.709  18.313  0.00  0.00    +0.000 C 
BRANCH  18  19
ATOM     19  C   UNL     1       9.565  10.688  18.753  0.00  0.00    +0.000 A 
ATOM     20  C   UNL     1      10.384  11.350  17.830  0.00  0.00    +0.000 A 
ATOM     21  C   UNL     1      11.326  12.275  18.274  0.00  0.00    +0.000 A 
ATOM     22  C   UNL     1      11.456  12.549  19.639  0.00  0.00    +0.000 A 
ATOM     23  C   UNL     1      10.642  11.888  20.561  0.00  0.00    +0.000 A 
ATOM     24  C   UNL     1       9.703  10.960  20.113  0.00  0.00    +0.000 A 
ATOM     25  F   UNL     1       8.931  10.337  21.015  0.00  0.00    +0.000 F 
ENDBRANCH  18  19
ENDBRANCH   3  17
TORSDOF 6
ENDMDL
MODEL 2
REMARK VINA RESULT:      -7.3      0.438      2.632
REMARK  Name = 
REMARK  9 active torsions:
REMARK  status: ('A' for Active; 'I' for Inactive)
REMARK    1  A    between atoms: C_1  and  O_2
REMARK    2  A    between atoms: O_2  and  C_3
REMARK    3  A    between atoms: C_5  and  C_6
REMARK    4  A    between atoms: N_8  and  N_9
REMARK    5  A    between atoms: C_10  and  C_11
REMARK    6  A    between atoms: C_19  and  O_20
REMARK    7  A    between atoms: O_20  and  C_21
REMARK    8  A    between atoms: C_22  and  O_23
REMARK    9  A    between atoms: O_23  and  C_24
REMARK                            x       y       z     vdW  Elec       q    Type
REMARK                         _______ _______ _______ _____ _____    ______ ____
ROOT
ATOM      1  C   UNL     1       7.622   6.461  18.584  0.00  0.00    +0.000 C 
ATOM      2  O   UNL     1       8.390   5.957  19.398  0.00  0.00    +0.000 OA
ATOM      3  N   UNL     1       7.737   7.741  18.055  0.00  0.00    +0.000 N 
ATOM      4  H   UNL     1       7.008   8.138  17.474  0.00  0.00    +0.000 HD
ENDROOT
BRANCH   1   7
ATOM      5  C   UNL     1       5.426   4.124  16.596  0.00  0.00    +0.000 A 
ATOM      6  C   UNL     1       6.475   4.972  16.980  0.00  0.00    +0.000 A 
ATOM      7  C   UNL     1       6.413   5.697  18.170  0.00  0.00    +0.000 A 
ATOM      8  C   UNL     1       5.247   5.655  18.928  0.00  0.00    +0.000 A 
ATOM      9  C   UNL     1       4.150   4.875  18.520  0.00  0.00    +0.000 A 
ATOM     10  C   UNL     1       4.227   4.093  17.343  0.00  0.00    +0.000 A 
BRANCH   5  12
ATOM     11  C   UNL     1       5.917   4.033  14.276  0.00  0.00    +0.000 C 
ATOM     12  O   UNL     1       5.555   3.343  15.474  0.00  0.00    +0.000 OA
ENDBRANCH   5  12
BRANCH   9  13
ATOM     13  O   UNL     1       3.109   4.990  19.410  0.00  0.00    +0.000 OA
ATOM     14  C   UNL     1       2.487   6.250  19.606  0.00  0.00    +0.000 C 
ENDBRANCH   9  13
BRANCH  10  15
ATOM     15  O   UNL     1       3.106   3.373  17.029  0.00  0.00    +0.000 OA
ATOM     16  C   UNL     1       2.791   2.167  17.706  0.00  0.00    +0.000 C 
ENDBRANCH  10  15
ENDBRANCH   1   7
BRANCH   3  17
ATOM     17  N   UNL     1       8.754   8.542  18.483  0.00  0.00    +0.000 NA
ATOM     18  C   UNL     1       8.588   9.817  18.324  0.00  0.00    +0.000 C 
BRANCH  18  19
ATOM     19  C   UNL     1       9.619  10.776  18.760  0.00  0.00    +0.000 A 
ATOM     20  C   UNL     1      10.432  11.441  17.834  0.00  0.00    +0.000 A 
ATOM     21  C   UNL     1      11.392  12.347  18.275  0.00  0.00    +0.000 A 
ATOM     22  C   UNL     1      11.547  12.602  19.641  0.00  0.00    +0.000 A 
ATOM     23  C   UNL     1      10.739  11.937  20.567  0.00  0.00    +0.000 A 
ATOM     24  C   UNL     1       9.782  11.028  20.122  0.00  0.00    +0.000 A 
ATOM     25  F   UNL     1       9.016  10.402  21.027  0.00  0.00    +0.000 F 
ENDBRANCH  18  19
ENDBRANCH   3  17
TORSDOF 6
ENDMDL
MODEL 3
REMARK VINA RESULT:      -7.3      1.238      1.444
REMARK  Name = 
REMARK  9 active torsions:
REMARK  status: ('A' for Active; 'I' for Inactive)
REMARK    1  A    between atoms: C_1  and  O_2
REMARK    2  A    between atoms: O_2  and  C_3
REMARK    3  A    between atoms: C_5  and  C_6
REMARK    4  A    between atoms: N_8  and  N_9
REMARK    5  A    between atoms: C_10  and  C_11
REMARK    6  A    between atoms: C_19  and  O_20
REMARK    7  A    between atoms: O_20  and  C_21
REMARK    8  A    between atoms: C_22  and  O_23
REMARK    9  A    between atoms: O_23  and  C_24
REMARK                            x       y       z     vdW  Elec       q    Type
REMARK                         _______ _______ _______ _____ _____    ______ ____
ROOT
ATOM      1  C   UNL     1       7.570   6.536  18.434  0.00  0.00    +0.000 C 
ATOM      2  O   UNL     1       8.341   6.192  19.326  0.00  0.00    +0.000 OA
ATOM      3  N   UNL     1       7.605   7.755  17.768  0.00  0.00    +0.000 N 
ATOM      4  H   UNL     1       6.873   8.022  17.120  0.00  0.00    +0.000 HD
ENDROOT
BRANCH   1   7
ATOM      5  C   UNL     1       4.174   4.896  18.533  0.00  0.00    +0.000 A 
ATOM      6  C   UNL     1       5.321   5.621  18.889  0.00  0.00    +0.000 A 
ATOM      7  C   UNL     1       6.447   5.630  18.067  0.00  0.00    +0.000 A 
ATOM      8  C   UNL     1       6.466   4.822  16.934  0.00  0.00    +0.000 A 
ATOM      9  C   UNL     1       5.358   4.023  16.601  0.00  0.00    +0.000 A 
ATOM     10  C   UNL     1       4.189   4.052  17.400  0.00  0.00    +0.000 A 
BRANCH   5  12
ATOM     11  C   UNL     1       2.589   6.311  19.589  0.00  0.00    +0.000 C 
ATOM     12  O   UNL     1       3.042   4.985  19.305  0.00  0.00    +0.000 OA
ENDBRANCH   5  12
BRANCH   9  13
ATOM     13  O   UNL     1       5.598   3.305  15.454  0.00  0.00    +0.000 OA
ATOM     14  C   UNL     1       6.146   3.957  14.318  0.00  0.00    +0.000 C 
ENDBRANCH   9  13
BRANCH  10  15
ATOM     15  O   UNL     1       3.168   3.235  16.995  0.00  0.00    +0.000 OA
ATOM     16  C   UNL     1       2.835   2.060  17.716  0.00  0.00    +0.000 C 
ENDBRANCH  10  15
ENDBRANCH   1   7
BRANCH   3  17
ATOM     17  N   UNL     1       8.533   8.683  18.137  0.00  0.00    +0.000 NA
ATOM     18  C   UNL     1       8.183   9.924  18.024  0.00  0.00    +0.000 C 
BRANCH  18  19
ATOM     19  C   UNL     1       9.104  11.010  18.406  0.00  0.00    +0.000 A 
ATOM     20  C   UNL     1      10.127  10.800  19.339  0.00  0.00    +0.000 A 
ATOM     21  C   UNL     1      10.987  11.843  19.675  0.00  0.00    +0.000 A 
ATOM     22  C   UNL     1      10.837  13.100  19.082  0.00  0.00    +0.000 A 
ATOM     23  C   UNL     1       9.815  13.312  18.153  0.00  0.00    +0.000 A 
ATOM     24  C   UNL     1       8.955  12.267  17.822  0.00  0.00    +0.000 A 
ATOM     25  F   UNL     1       7.981  12.492  16.928  0.00  0.00    +0.000 F 
ENDBRANCH  18  19
ENDBRANCH   3  17
TORSDOF 6
ENDMDL
MODEL 4
REMARK VINA RESULT:      -7.3      1.316      2.999
REMARK  Name = 
REMARK  9 active torsions:
REMARK  status: ('A' for Active; 'I' for Inactive)
REMARK    1  A    between atoms: C_1  and  O_2
REMARK    2  A    between atoms: O_2  and  C_3
REMARK    3  A    between atoms: C_5  and  C_6
REMARK    4  A    between atoms: N_8  and  N_9
REMARK    5  A    between atoms: C_10  and  C_11
REMARK    6  A    between atoms: C_19  and  O_20
REMARK    7  A    between atoms: O_20  and  C_21
REMARK    8  A    between atoms: C_22  and  O_23
REMARK    9  A    between atoms: O_23  and  C_24
REMARK                            x       y       z     vdW  Elec       q    Type
REMARK                         _______ _______ _______ _____ _____    ______ ____
ROOT
ATOM      1  C   UNL     1       7.464   6.852  18.028  0.00  0.00    +0.000 C 
ATOM      2  O   UNL     1       8.259   6.630  18.936  0.00  0.00    +0.000 OA
ATOM      3  N   UNL     1       7.495   7.954  17.184  0.00  0.00    +0.000 N 
ATOM      4  H   UNL     1       6.745   8.136  16.527  0.00  0.00    +0.000 HD
ENDROOT
BRANCH   1   7
ATOM      5  C   UNL     1       5.110   4.437  16.334  0.00  0.00    +0.000 A 
ATOM      6  C   UNL     1       6.089   5.417  16.560  0.00  0.00    +0.000 A 
ATOM      7  C   UNL     1       6.314   5.925  17.839  0.00  0.00    +0.000 A 
ATOM      8  C   UNL     1       5.482   5.528  18.882  0.00  0.00    +0.000 A 
ATOM      9  C   UNL     1       4.441   4.609  18.661  0.00  0.00    +0.000 A 
ATOM     10  C   UNL     1       4.242   4.046  17.378  0.00  0.00    +0.000 A 
BRANCH   5  12
ATOM     11  C   UNL     1       6.136   3.944  14.252  0.00  0.00    +0.000 C 
ATOM     12  O   UNL     1       4.978   3.879  15.087  0.00  0.00    +0.000 OA
ENDBRANCH   5  12
BRANCH   9  13
ATOM     13  O   UNL     1       3.745   4.369  19.822  0.00  0.00    +0.000 OA
ATOM     14  C   UNL     1       2.593   5.142  20.124  0.00  0.00    +0.000 C 
ENDBRANCH   9  13
BRANCH  10  15
ATOM     15  O   UNL     1       3.201   3.165  17.266  0.00  0.00    +0.000 OA
ATOM     16  C   UNL     1       3.256   1.880  17.862  0.00  0.00    +0.000 C 
ENDBRANCH  10  15
ENDBRANCH   1   7
BRANCH   3  17
ATOM     17  N   UNL     1       8.451   8.908  17.378  0.00  0.00    +0.000 NA
ATOM     18  C   UNL     1       8.121   9.909  18.130  0.00  0.00    +0.000 C 
BRANCH  18  19
ATOM     19  C   UNL     1       9.080  10.991  18.417  0.00  0.00    +0.000 A 
ATOM     20  C   UNL     1      10.148  10.800  19.303  0.00  0.00    +0.000 A 
ATOM     21  C   UNL     1      11.042  11.838  19.549  0.00  0.00    +0.000 A 
ATOM     22  C   UNL     1      10.883  13.072  18.911  0.00  0.00    +0.000 A 
ATOM     23  C   UNL     1       9.818  13.266  18.030  0.00  0.00    +0.000 A 
ATOM     24  C   UNL     1       8.923  12.225  17.789  0.00  0.00    +0.000 A 
ATOM     25  F   UNL     1       7.907  12.432  16.938  0.00  0.00    +0.000 F 
ENDBRANCH  18  19
ENDBRANCH   3  17
TORSDOF 6
ENDMDL
MODEL 5
REMARK VINA RESULT:      -7.2      0.852      2.547
REMARK  Name = 
REMARK  9 active torsions:
REMARK  status: ('A' for Active; 'I' for Inactive)
REMARK    1  A    between atoms: C_1  and  O_2
REMARK    2  A    between atoms: O_2  and  C_3
REMARK    3  A    between atoms: C_5  and  C_6
REMARK    4  A    between atoms: N_8  and  N_9
REMARK    5  A    between atoms: C_10  and  C_11
REMARK    6  A    between atoms: C_19  and  O_20
REMARK    7  A    between atoms: O_20  and  C_21
REMARK    8  A    between atoms: C_22  and  O_23
REMARK    9  A    between atoms: O_23  and  C_24
REMARK                            x       y       z     vdW  Elec       q    Type
REMARK                         _______ _______ _______ _____ _____    ______ ____
ROOT
ATOM      1  C   UNL     1       7.674   6.412  18.638  0.00  0.00    +0.000 C 
ATOM      2  O   UNL     1       8.431   5.963  19.493  0.00  0.00    +0.000 OA
ATOM      3  N   UNL     1       7.797   7.654  18.028  0.00  0.00    +0.000 N 
ATOM      4  H   UNL     1       7.076   8.011  17.412  0.00  0.00    +0.000 HD
ENDROOT
BRANCH   1   7
ATOM      5  C   UNL     1       5.147   4.642  16.465  0.00  0.00    +0.000 A 
ATOM      6  C   UNL     1       6.183   5.482  16.901  0.00  0.00    +0.000 A 
ATOM      7  C   UNL     1       6.471   5.621  18.258  0.00  0.00    +0.000 A 
ATOM      8  C   UNL     1       5.648   4.999  19.192  0.00  0.00    +0.000 A 
ATOM      9  C   UNL     1       4.553   4.219  18.781  0.00  0.00    +0.000 A 
ATOM     10  C   UNL     1       4.289   4.027  17.403  0.00  0.00    +0.000 A 
BRANCH   5  12
ATOM     11  C   UNL     1       6.081   3.953  14.395  0.00  0.00    +0.000 C 
ATOM     12  O   UNL     1       4.950   4.441  15.121  0.00  0.00    +0.000 OA
ENDBRANCH   5  12
BRANCH   9  13
ATOM     13  O   UNL     1       3.878   3.711  19.864  0.00  0.00    +0.000 OA
ATOM     14  C   UNL     1       4.115   2.374  20.278  0.00  0.00    +0.000 C 
ENDBRANCH   9  13
BRANCH  10  15
ATOM     15  O   UNL     1       3.198   3.255  17.105  0.00  0.00    +0.000 OA
ATOM     16  C   UNL     1       1.887   3.667  17.455  0.00  0.00    +0.000 C 
ENDBRANCH  10  15
ENDBRANCH   1   7
BRANCH   3  17
ATOM     17  N   UNL     1       8.808   8.483  18.416  0.00  0.00    +0.000 NA
ATOM     18  C   UNL     1       8.548   9.751  18.407  0.00  0.00    +0.000 C 
BRANCH  18  19
ATOM     19  C   UNL     1       9.564  10.736  18.819  0.00  0.00    +0.000 A 
ATOM     20  C   UNL     1      10.373  11.383  17.875  0.00  0.00    +0.000 A 
ATOM     21  C   UNL     1      11.320  12.315  18.293  0.00  0.00    +0.000 A 
ATOM     22  C   UNL     1      11.465  12.613  19.651  0.00  0.00    +0.000 A 
ATOM     23  C   UNL     1      10.661  11.967  20.594  0.00  0.00    +0.000 A 
ATOM     24  C   UNL     1       9.718  11.033  20.172  0.00  0.00    +0.000 A 
ATOM     25  F   UNL     1       8.956  10.425  21.093  0.00  0.00    +0.000 F 
ENDBRANCH  18  19
ENDBRANCH   3  17
TORSDOF 6
ENDMDL
MODEL 6
REMARK VINA RESULT:      -7.1      1.496      2.289
REMARK  Name = 
REMARK  9 active torsions:
REMARK  status: ('A' for Active; 'I' for Inactive)
REMARK    1  A    between atoms: C_1  and  O_2
REMARK    2  A    between atoms: O_2  and  C_3
REMARK    3  A    between atoms: C_5  and  C_6
REMARK    4  A    between atoms: N_8  and  N_9
REMARK    5  A    between atoms: C_10  and  C_11
REMARK    6  A    between atoms: C_19  and  O_20
REMARK    7  A    between atoms: O_20  and  C_21
REMARK    8  A    between atoms: C_22  and  O_23
REMARK    9  A    between atoms: O_23  and  C_24
REMARK                            x       y       z     vdW  Elec       q    Type
REMARK                         _______ _______ _______ _____ _____    ______ ____
ROOT
ATOM      1  C   UNL     1       7.204   6.843  18.084  0.00  0.00    +0.000 C 
ATOM      2  O   UNL     1       8.102   6.275  18.698  0.00  0.00    +0.000 OA
ATOM      3  N   UNL     1       7.294   8.111  17.522  0.00  0.00    +0.000 N 
ATOM      4  H   UNL     1       6.482   8.569  17.125  0.00  0.00    +0.000 HD
ENDROOT
BRANCH   1   7
ATOM      5  C   UNL     1       4.584   4.132  18.215  0.00  0.00    +0.000 A 
ATOM      6  C   UNL     1       5.815   4.802  18.164  0.00  0.00    +0.000 A 
ATOM      7  C   UNL     1       5.874   6.183  17.981  0.00  0.00    +0.000 A 
ATOM      8  C   UNL     1       4.697   6.885  17.740  0.00  0.00    +0.000 A 
ATOM      9  C   UNL     1       3.458   6.221  17.705  0.00  0.00    +0.000 A 
ATOM     10  C   UNL     1       3.384   4.828  17.946  0.00  0.00    +0.000 A 
BRANCH   5  12
ATOM     11  C   UNL     1       4.456   2.452  19.886  0.00  0.00    +0.000 C 
ATOM     12  O   UNL     1       4.547   2.790  18.500  0.00  0.00    +0.000 OA
ENDBRANCH   5  12
BRANCH   9  13
ATOM     13  O   UNL     1       2.436   7.104  17.444  0.00  0.00    +0.000 OA
ATOM     14  C   UNL     1       2.419   8.369  18.087  0.00  0.00    +0.000 C 
ENDBRANCH   9  13
BRANCH  10  15
ATOM     15  O   UNL     1       2.133   4.276  17.885  0.00  0.00    +0.000 OA
ATOM     16  C   UNL     1       1.354   4.087  19.054  0.00  0.00    +0.000 C 
ENDBRANCH  10  15
ENDBRANCH   1   7
BRANCH   3  17
ATOM     17  N   UNL     1       8.444   8.825  17.682  0.00  0.00    +0.000 NA
ATOM     18  C   UNL     1       8.387   9.837  18.488  0.00  0.00    +0.000 C 
BRANCH  18  19
ATOM     19  C   UNL     1       9.575  10.671  18.744  0.00  0.00    +0.000 A 
ATOM     20  C   UNL     1      10.379  11.132  17.694  0.00  0.00    +0.000 A 
ATOM     21  C   UNL     1      11.491  11.925  17.966  0.00  0.00    +0.000 A 
ATOM     22  C   UNL     1      11.808  12.267  19.284  0.00  0.00    +0.000 A 
ATOM     23  C   UNL     1      11.009  11.806  20.333  0.00  0.00    +0.000 A 
ATOM     24  C   UNL     1       9.899  11.010  20.057  0.00  0.00    +0.000 A 
ATOM     25  F   UNL     1       9.144  10.579  21.078  0.00  0.00    +0.000 F 
ENDBRANCH  18  19
ENDBRANCH   3  17
TORSDOF 6
ENDMDL
MODEL 7
REMARK VINA RESULT:      -7.1      5.468      7.717
REMARK  Name = 
REMARK  9 active torsions:
REMARK  status: ('A' for Active; 'I' for Inactive)
REMARK    1  A    between atoms: C_1  and  O_2
REMARK    2  A    between atoms: O_2  and  C_3
REMARK    3  A    between atoms: C_5  and  C_6
REMARK    4  A    between atoms: N_8  and  N_9
REMARK    5  A    between atoms: C_10  and  C_11
REMARK    6  A    between atoms: C_19  and  O_20
REMARK    7  A    between atoms: O_20  and  C_21
REMARK    8  A    between atoms: C_22  and  O_23
REMARK    9  A    between atoms: O_23  and  C_24
REMARK                            x       y       z     vdW  Elec       q    Type
REMARK                         _______ _______ _______ _____ _____    ______ ____
ROOT
ATOM      1  C   UNL     1       2.567   7.181  18.946  0.00  0.00    +0.000 C 
ATOM      2  O   UNL     1       2.146   6.757  20.018  0.00  0.00    +0.000 OA
ATOM      3  N   UNL     1       2.176   8.370  18.343  0.00  0.00    +0.000 N 
ATOM      4  H   UNL     1       2.477   8.609  17.405  0.00  0.00    +0.000 HD
ENDROOT
BRANCH   1   7
ATOM      5  C   UNL     1       5.627   6.219  16.958  0.00  0.00    +0.000 A 
ATOM      6  C   UNL     1       4.623   6.966  17.592  0.00  0.00    +0.000 A 
ATOM      7  C   UNL     1       3.515   6.341  18.163  0.00  0.00    +0.000 A 
ATOM      8  C   UNL     1       3.356   4.967  18.005  0.00  0.00    +0.000 A 
ATOM      9  C   UNL     1       4.308   4.209  17.302  0.00  0.00    +0.000 A 
ATOM     10  C   UNL     1       5.464   4.828  16.768  0.00  0.00    +0.000 A 
BRANCH   5  12
ATOM     11  C   UNL     1       7.555   7.496  17.487  0.00  0.00    +0.000 C 
ATOM     12  O   UNL     1       6.757   6.845  16.495  0.00  0.00    +0.000 OA
ENDBRANCH   5  12
BRANCH   9  13
ATOM     13  O   UNL     1       3.947   2.883  17.262  0.00  0.00    +0.000 OA
ATOM     14  C   UNL     1       2.662   2.490  17.721  0.00  0.00    +0.000 C 
ENDBRANCH   9  13
BRANCH  10  15
ATOM     15  O   UNL     1       6.327   4.005  16.097  0.00  0.00    +0.000 OA
ATOM     16  C   UNL     1       6.253   3.849  14.689  0.00  0.00    +0.000 C 
ENDBRANCH  10  15
ENDBRANCH   1   7
BRANCH   3  17
ATOM     17  N   UNL     1       1.220   9.133  18.945  0.00  0.00    +0.000 NA
ATOM     18  C   UNL     1       0.506   9.882  18.167  0.00  0.00    +0.000 C 
BRANCH  18  19
ATOM     19  C   UNL     1      -0.564  10.738  18.710  0.00  0.00    +0.000 A 
ATOM     20  C   UNL     1      -0.321  11.621  19.770  0.00  0.00    +0.000 A 
ATOM     21  C   UNL     1      -1.349  12.422  20.258  0.00  0.00    +0.000 A 
ATOM     22  C   UNL     1      -2.626  12.354  19.692  0.00  0.00    +0.000 A 
ATOM     23  C   UNL     1      -2.872  11.473  18.637  0.00  0.00    +0.000 A 
ATOM     24  C   UNL     1      -1.841  10.669  18.154  0.00  0.00    +0.000 A 
ATOM     25  F   UNL     1      -2.098   9.831  17.140  0.00  0.00    +0.000 F 
ENDBRANCH  18  19
ENDBRANCH   3  17
TORSDOF 6
ENDMDL
MODEL 8
REMARK VINA RESULT:      -7.0      5.452      7.712
REMARK  Name = 
REMARK  9 active torsions:
REMARK  status: ('A' for Active; 'I' for Inactive)
REMARK    1  A    between atoms: C_1  and  O_2
REMARK    2  A    between atoms: O_2  and  C_3
REMARK    3  A    between atoms: C_5  and  C_6
REMARK    4  A    between atoms: N_8  and  N_9
REMARK    5  A    between atoms: C_10  and  C_11
REMARK    6  A    between atoms: C_19  and  O_20
REMARK    7  A    between atoms: O_20  and  C_21
REMARK    8  A    between atoms: C_22  and  O_23
REMARK    9  A    between atoms: O_23  and  C_24
REMARK                            x       y       z     vdW  Elec       q    Type
REMARK                         _______ _______ _______ _____ _____    ______ ____
ROOT
ATOM      1  C   UNL     1       2.582   7.223  18.937  0.00  0.00    +0.000 C 
ATOM      2  O   UNL     1       2.016   6.758  19.922  0.00  0.00    +0.000 OA
ATOM      3  N   UNL     1       2.295   8.449  18.350  0.00  0.00    +0.000 N 
ATOM      4  H   UNL     1       2.721   8.725  17.473  0.00  0.00    +0.000 HD
ENDROOT
BRANCH   1   7
ATOM      5  C   UNL     1       4.259   4.199  17.427  0.00  0.00    +0.000 A 
ATOM      6  C   UNL     1       3.405   5.020  18.178  0.00  0.00    +0.000 A 
ATOM      7  C   UNL     1       3.610   6.398  18.243  0.00  0.00    +0.000 A 
ATOM      8  C   UNL     1       4.739   6.945  17.641  0.00  0.00    +0.000 A 
ATOM      9  C   UNL     1       5.653   6.129  16.952  0.00  0.00    +0.000 A 
ATOM     10  C   UNL     1       5.422   4.737  16.833  0.00  0.00    +0.000 A 
BRANCH   5  12
ATOM     11  C   UNL     1       2.644   2.472  17.631  0.00  0.00    +0.000 C 
ATOM     12  O   UNL     1       3.978   2.862  17.293  0.00  0.00    +0.000 OA
ENDBRANCH   5  12
BRANCH   9  13
ATOM     13  O   UNL     1       6.691   6.875  16.447  0.00  0.00    +0.000 OA
ATOM     14  C   UNL     1       7.592   7.519  17.335  0.00  0.00    +0.000 C 
ENDBRANCH   9  13
BRANCH  10  15
ATOM     15  O   UNL     1       6.373   4.030  16.147  0.00  0.00    +0.000 OA
ATOM     16  C   UNL     1       6.315   3.895  14.737  0.00  0.00    +0.000 C 
ENDBRANCH  10  15
ENDBRANCH   1   7
BRANCH   3  17
ATOM     17  N   UNL     1       1.282   9.204  18.861  0.00  0.00    +0.000 NA
ATOM     18  C   UNL     1       0.440   9.692  18.007  0.00  0.00    +0.000 C 
BRANCH  18  19
ATOM     19  C   UNL     1      -0.701  10.513  18.450  0.00  0.00    +0.000 A 
ATOM     20  C   UNL     1      -0.607  11.339  19.578  0.00  0.00    +0.000 A 
ATOM     21  C   UNL     1      -1.700  12.109  19.968  0.00  0.00    +0.000 A 
ATOM     22  C   UNL     1      -2.890  12.067  19.237  0.00  0.00    +0.000 A 
ATOM     23  C   UNL     1      -2.987  11.243  18.114  0.00  0.00    +0.000 A 
ATOM     24  C   UNL     1      -1.893  10.470  17.728  0.00  0.00    +0.000 A 
ATOM     25  F   UNL     1      -2.007   9.687  16.646  0.00  0.00    +0.000 F 
ENDBRANCH  18  19
ENDBRANCH   3  17
TORSDOF 6
ENDMDL
MODEL 9
REMARK VINA RESULT:      -7.0      1.497      1.678
REMARK  Name = 
REMARK  9 active torsions:
REMARK  status: ('A' for Active; 'I' for Inactive)
REMARK    1  A    between atoms: C_1  and  O_2
REMARK    2  A    between atoms: O_2  and  C_3
REMARK    3  A    between atoms: C_5  and  C_6
REMARK    4  A    between atoms: N_8  and  N_9
REMARK    5  A    between atoms: C_10  and  C_11
REMARK    6  A    between atoms: C_19  and  O_20
REMARK    7  A    between atoms: O_20  and  C_21
REMARK    8  A    between atoms: C_22  and  O_23
REMARK    9  A    between atoms: O_23  and  C_24
REMARK                            x       y       z     vdW  Elec       q    Type
REMARK                         _______ _______ _______ _____ _____    ______ ____
ROOT
ATOM      1  C   UNL     1       7.632   6.715  18.142  0.00  0.00    +0.000 C 
ATOM      2  O   UNL     1       8.327   6.559  19.142  0.00  0.00    +0.000 OA
ATOM      3  N   UNL     1       7.706   7.796  17.273  0.00  0.00    +0.000 N 
ATOM      4  H   UNL     1       7.029   7.921  16.530  0.00  0.00    +0.000 HD
ENDROOT
BRANCH   1   7
ATOM      5  C   UNL     1       4.782   4.313  18.735  0.00  0.00    +0.000 A 
ATOM      6  C   UNL     1       5.891   5.150  18.933  0.00  0.00    +0.000 A 
ATOM      7  C   UNL     1       6.558   5.724  17.852  0.00  0.00    +0.000 A 
ATOM      8  C   UNL     1       6.181   5.374  16.559  0.00  0.00    +0.000 A 
ATOM      9  C   UNL     1       5.125   4.473  16.337  0.00  0.00    +0.000 A 
ATOM     10  C   UNL     1       4.406   3.929  17.429  0.00  0.00    +0.000 A 
BRANCH   5  12
ATOM     11  C   UNL     1       4.360   2.495  20.200  0.00  0.00    +0.000 C 
ATOM     12  O   UNL     1       4.079   3.843  19.816  0.00  0.00    +0.000 OA
ENDBRANCH   5  12
BRANCH   9  13
ATOM     13  O   UNL     1       4.932   4.267  14.992  0.00  0.00    +0.000 OA
ATOM     14  C   UNL     1       6.050   4.041  14.147  0.00  0.00    +0.000 C 
ENDBRANCH   9  13
BRANCH  10  15
ATOM     15  O   UNL     1       3.400   3.059  17.108  0.00  0.00    +0.000 OA
ATOM     16  C   UNL     1       2.041   3.383  17.349  0.00  0.00    +0.000 C 
ENDBRANCH  10  15
ENDBRANCH   1   7
BRANCH   3  17
ATOM     17  N   UNL     1       8.585   8.802  17.545  0.00  0.00    +0.000 NA
ATOM     18  C   UNL     1       8.093   9.860  18.106  0.00  0.00    +0.000 C 
BRANCH  18  19
ATOM     19  C   UNL     1       8.954  11.005  18.455  0.00  0.00    +0.000 A 
ATOM     20  C   UNL     1       9.953  10.891  19.430  0.00  0.00    +0.000 A 
ATOM     21  C   UNL     1      10.756  11.987  19.734  0.00  0.00    +0.000 A 
ATOM     22  C   UNL     1      10.574  13.202  19.067  0.00  0.00    +0.000 A 
ATOM     23  C   UNL     1       9.576  13.319  18.097  0.00  0.00    +0.000 A 
ATOM     24  C   UNL     1       8.772  12.220  17.798  0.00  0.00    +0.000 A 
ATOM     25  F   UNL     1       7.820  12.353  16.862  0.00  0.00    +0.000 F 
ENDBRANCH  18  19
ENDBRANCH   3  17
TORSDOF 6
ENDMDL
