MODEL 1
REMARK VINA RESULT:      -7.9      0.000      0.000
REMARK  Name = 
REMARK  10 active torsions:
REMARK  status: ('A' for Active; 'I' for Inactive)
REMARK    1  A    between atoms: C_1  and  C_2
REMARK    2  A    between atoms: C_4  and  C_5
REMARK    3  A    between atoms: C_7  and  C_8
REMARK    4  A    between atoms: C_9  and  C_10
REMARK    5  A    between atoms: N_12  and  C_13
REMARK    6  A    between atoms: C_13  and  C_14
REMARK    7  A    between atoms: C_14  and  O_16
REMARK    8  A    between atoms: C_17  and  C_18
REMARK    9  A    between atoms: C_22  and  C_23
REMARK   10  A    between atoms: C_26  and  C_27
REMARK                            x       y       z     vdW  Elec       q    Type
REMARK                         _______ _______ _______ _____ _____    ______ ____
ROOT
ATOM      1  C   UNL     1       5.547   4.539  14.726  0.00  0.00    +0.000 A 
ATOM      2  C   UNL     1       4.485   4.413  15.629  0.00  0.00    +0.000 A 
ATOM      3  C   UNL     1       4.569   5.019  16.873  0.00  0.00    +0.000 A 
ATOM      4  N   UNL     1       5.588   5.842  17.204  0.00  0.00    +0.000 NA
ATOM      5  C   UNL     1       6.579   6.030  16.311  0.00  0.00    +0.000 A 
ATOM      6  N   UNL     1       7.626   6.836  16.755  0.00  0.00    +0.000 N 
ATOM      7  C   UNL     1       6.618   5.371  15.080  0.00  0.00    +0.000 A 
ATOM      8  H   UNL     1       7.363   7.270  17.635  0.00  0.00    +0.000 HD
ATOM      9  H   UNL     1       7.974   7.503  16.073  0.00  0.00    +0.000 HD
ENDROOT
BRANCH   1  13
ATOM     10  C   UNL     1       6.247   1.389  10.744  0.00  0.00    +0.000 C 
ATOM     11  C   UNL     1       5.726   2.382  11.711  0.00  0.00    +0.000 A 
ATOM     12  C   UNL     1       6.334   2.790  12.929  0.00  0.00    +0.000 A 
ATOM     13  C   UNL     1       5.520   3.750  13.494  0.00  0.00    +0.000 A 
ATOM     14  O   UNL     1       4.434   3.949  12.684  0.00  0.00    +0.000 OA
ATOM     15  C   UNL     1       4.562   3.118  11.613  0.00  0.00    +0.000 A 
ATOM     16  C   UNL     1       3.501   3.173  10.585  0.00  0.00    +0.000 C 
ENDBRANCH   1  13
BRANCH   3  17
ATOM     17  C   UNL     1       3.620   4.675  17.930  0.00  0.00    +0.000 A 
ATOM     18  C   UNL     1       2.773   5.532  18.696  0.00  0.00    +0.000 A 
ATOM     19  C   UNL     1       2.585   7.006  18.611  0.00  0.00    +0.000 C 
ATOM     20  N   UNL     1       2.053   4.843  19.590  0.00  0.00    +0.000 NA
ATOM     21  N   UNL     1       2.330   3.550  19.323  0.00  0.00    +0.000 N 
ATOM     22  C   UNL     1       3.281   3.389  18.343  0.00  0.00    +0.000 A 
ATOM     23  C   UNL     1       3.776   2.057  17.896  0.00  0.00    +0.000 C 
BRANCH  21  24
ATOM     24  C   UNL     1       1.558   2.545  20.034  0.00  0.00    +0.000 C 
BRANCH  24  25
ATOM     25  C   UNL     1       1.854   2.485  21.502  0.00  0.00    +0.000 C 
ATOM     26  O   UNL     1       0.981   2.487  22.362  0.00  0.00    +0.000 OA
BRANCH  25  27
ATOM     27  O   UNL     1       3.168   2.516  21.830  0.00  0.00    +0.000 OA
ATOM     28  H   UNL     1       3.687   1.757  21.487  0.00  0.00    +0.000 HD
ENDBRANCH  25  27
ENDBRANCH  24  25
ENDBRANCH  21  24
ENDBRANCH   3  17
BRANCH   7  29
ATOM     29  C   UNL     1       7.754   5.560  14.230  0.00  0.00    +0.000 C 
ATOM     30  N   UNL     1       8.653   5.757  13.530  0.00  0.00    +0.000 NA
ENDBRANCH   7  29
TORSDOF 6
ENDMDL
MODEL 2
REMARK VINA RESULT:      -7.7      2.663      8.207
REMARK  Name = 
REMARK  10 active torsions:
REMARK  status: ('A' for Active; 'I' for Inactive)
REMARK    1  A    between atoms: C_1  and  C_2
REMARK    2  A    between atoms: C_4  and  C_5
REMARK    3  A    between atoms: C_7  and  C_8
REMARK    4  A    between atoms: C_9  and  C_10
REMARK    5  A    between atoms: N_12  and  C_13
REMARK    6  A    between atoms: C_13  and  C_14
REMARK    7  A    between atoms: C_14  and  O_16
REMARK    8  A    between atoms: C_17  and  C_18
REMARK    9  A    between atoms: C_22  and  C_23
REMARK   10  A    between atoms: C_26  and  C_27
REMARK                            x       y       z     vdW  Elec       q    Type
REMARK                         _______ _______ _______ _____ _____    ______ ____
ROOT
ATOM      1  C   UNL     1       2.783   5.419  18.472  0.00  0.00    +0.000 A 
ATOM      2  C   UNL     1       3.732   5.666  17.472  0.00  0.00    +0.000 A 
ATOM      3  C   UNL     1       4.372   4.601  16.858  0.00  0.00    +0.000 A 
ATOM      4  N   UNL     1       4.020   3.319  17.094  0.00  0.00    +0.000 NA
ATOM      5  C   UNL     1       3.053   3.073  17.999  0.00  0.00    +0.000 A 
ATOM      6  N   UNL     1       2.798   1.722  18.236  0.00  0.00    +0.000 N 
ATOM      7  C   UNL     1       2.437   4.087  18.736  0.00  0.00    +0.000 A 
ATOM      8  H   UNL     1       3.294   1.164  17.547  0.00  0.00    +0.000 HD
ATOM      9  H   UNL     1       1.816   1.477  18.313  0.00  0.00    +0.000 HD
ENDROOT
BRANCH   1  13
ATOM     10  C   UNL     1       1.015   8.812  21.881  0.00  0.00    +0.000 C 
ATOM     11  C   UNL     1       1.484   8.121  20.658  0.00  0.00    +0.000 A 
ATOM     12  C   UNL     1       1.942   6.780  20.556  0.00  0.00    +0.000 A 
ATOM     13  C   UNL     1       2.250   6.550  19.231  0.00  0.00    +0.000 A 
ATOM     14  O   UNL     1       2.010   7.690  18.511  0.00  0.00    +0.000 OA
ATOM     15  C   UNL     1       1.552   8.635  19.378  0.00  0.00    +0.000 A 
ATOM     16  C   UNL     1       1.208   9.958  18.815  0.00  0.00    +0.000 C 
ENDBRANCH   1  13
BRANCH   3  17
ATOM     17  C   UNL     1       5.555   4.826  16.029  0.00  0.00    +0.000 A 
ATOM     18  C   UNL     1       6.844   5.308  16.408  0.00  0.00    +0.000 A 
ATOM     19  C   UNL     1       7.361   5.680  17.754  0.00  0.00    +0.000 C 
ATOM     20  N   UNL     1       7.667   5.395  15.356  0.00  0.00    +0.000 NA
ATOM     21  N   UNL     1       6.969   4.857  14.335  0.00  0.00    +0.000 N 
ATOM     22  C   UNL     1       5.683   4.512  14.679  0.00  0.00    +0.000 A 
ATOM     23  C   UNL     1       4.708   3.930  13.714  0.00  0.00    +0.000 C 
BRANCH  21  24
ATOM     24  C   UNL     1       7.674   4.660  13.080  0.00  0.00    +0.000 C 
BRANCH  24  25
ATOM     25  C   UNL     1       8.383   5.886  12.589  0.00  0.00    +0.000 C 
ATOM     26  O   UNL     1       8.037   6.504  11.588  0.00  0.00    +0.000 OA
BRANCH  25  27
ATOM     27  O   UNL     1       9.498   6.226  13.278  0.00  0.00    +0.000 OA
ATOM     28  H   UNL     1       9.575   5.798  14.158  0.00  0.00    +0.000 HD
ENDBRANCH  25  27
ENDBRANCH  24  25
ENDBRANCH  21  24
ENDBRANCH   3  17
BRANCH   7  29
ATOM     29  C   UNL     1       1.484   3.728  19.743  0.00  0.00    +0.000 C 
ATOM     30  N   UNL     1       0.734   3.393  20.556  0.00  0.00    +0.000 NA
ENDBRANCH   7  29
TORSDOF 6
ENDMDL
MODEL 3
REMARK VINA RESULT:      -7.5      4.182      6.967
REMARK  Name = 
REMARK  10 active torsions:
REMARK  status: ('A' for Active; 'I' for Inactive)
REMARK    1  A    between atoms: C_1  and  C_2
REMARK    2  A    between atoms: C_4  and  C_5
REMARK    3  A    between atoms: C_7  and  C_8
REMARK    4  A    between atoms: C_9  and  C_10
REMARK    5  A    between atoms: N_12  and  C_13
REMARK    6  A    between atoms: C_13  and  C_14
REMARK    7  A    between atoms: C_14  and  O_16
REMARK    8  A    between atoms: C_17  and  C_18
REMARK    9  A    between atoms: C_22  and  C_23
REMARK   10  A    between atoms: C_26  and  C_27
REMARK                            x       y       z     vdW  Elec       q    Type
REMARK                         _______ _______ _______ _____ _____    ______ ____
ROOT
ATOM      1  C   UNL     1       3.424   5.505  18.905  0.00  0.00    +0.000 A 
ATOM      2  C   UNL     1       3.097   6.830  19.217  0.00  0.00    +0.000 A 
ATOM      3  C   UNL     1       1.974   7.096  19.984  0.00  0.00    +0.000 A 
ATOM      4  N   UNL     1       1.247   6.112  20.558  0.00  0.00    +0.000 NA
ATOM      5  C   UNL     1       1.600   4.833  20.326  0.00  0.00    +0.000 A 
ATOM      6  N   UNL     1       0.759   3.878  20.896  0.00  0.00    +0.000 N 
ATOM      7  C   UNL     1       2.653   4.485  19.479  0.00  0.00    +0.000 A 
ATOM      8  H   UNL     1       0.110   4.339  21.528  0.00  0.00    +0.000 HD
ATOM      9  H   UNL     1       1.232   3.087  21.322  0.00  0.00    +0.000 HD
ENDROOT
BRANCH   1  13
ATOM     10  C   UNL     1       6.553   4.807  14.907  0.00  0.00    +0.000 C 
ATOM     11  C   UNL     1       5.966   4.952  16.258  0.00  0.00    +0.000 A 
ATOM     12  C   UNL     1       4.611   5.237  16.575  0.00  0.00    +0.000 A 
ATOM     13  C   UNL     1       4.504   5.253  17.951  0.00  0.00    +0.000 A 
ATOM     14  O   UNL     1       5.733   4.998  18.498  0.00  0.00    +0.000 OA
ATOM     15  C   UNL     1       6.611   4.820  17.472  0.00  0.00    +0.000 A 
ATOM     16  C   UNL     1       8.012   4.513  17.828  0.00  0.00    +0.000 C 
ENDBRANCH   1  13
BRANCH   3  17
ATOM     17  C   UNL     1       1.450   8.456  20.086  0.00  0.00    +0.000 A 
ATOM     18  C   UNL     1       1.165   9.229  21.252  0.00  0.00    +0.000 A 
ATOM     19  C   UNL     1       1.355   8.887  22.689  0.00  0.00    +0.000 C 
ATOM     20  N   UNL     1       0.677  10.435  20.938  0.00  0.00    +0.000 NA
ATOM     21  N   UNL     1       0.766  10.496  19.594  0.00  0.00    +0.000 N 
ATOM     22  C   UNL     1       1.209   9.325  19.025  0.00  0.00    +0.000 A 
ATOM     23  C   UNL     1       1.358   9.137  17.555  0.00  0.00    +0.000 C 
BRANCH  21  24
ATOM     24  C   UNL     1       0.458  11.769  18.965  0.00  0.00    +0.000 C 
BRANCH  24  25
ATOM     25  C   UNL     1      -0.952  11.870  18.465  0.00  0.00    +0.000 C 
ATOM     26  O   UNL     1      -1.864  11.168  18.887  0.00  0.00    +0.000 OA
BRANCH  25  27
ATOM     27  O   UNL     1      -1.143  12.736  17.441  0.00  0.00    +0.000 OA
ATOM     28  H   UNL     1      -0.744  12.450  16.591  0.00  0.00    +0.000 HD
ENDBRANCH  25  27
ENDBRANCH  24  25
ENDBRANCH  21  24
ENDBRANCH   3  17
BRANCH   7  29
ATOM     29  C   UNL     1       2.902   3.099  19.217  0.00  0.00    +0.000 C 
ATOM     30  N   UNL     1       3.053   1.973  19.000  0.00  0.00    +0.000 NA
ENDBRANCH   7  29
TORSDOF 6
ENDMDL
MODEL 4
REMARK VINA RESULT:      -7.4      4.124      6.978
REMARK  Name = 
REMARK  10 active torsions:
REMARK  status: ('A' for Active; 'I' for Inactive)
REMARK    1  A    between atoms: C_1  and  C_2
REMARK    2  A    between atoms: C_4  and  C_5
REMARK    3  A    between atoms: C_7  and  C_8
REMARK    4  A    between atoms: C_9  and  C_10
REMARK    5  A    between atoms: N_12  and  C_13
REMARK    6  A    between atoms: C_13  and  C_14
REMARK    7  A    between atoms: C_14  and  O_16
REMARK    8  A    between atoms: C_17  and  C_18
REMARK    9  A    between atoms: C_22  and  C_23
REMARK   10  A    between atoms: C_26  and  C_27
REMARK                            x       y       z     vdW  Elec       q    Type
REMARK                         _______ _______ _______ _____ _____    ______ ____
ROOT
ATOM      1  C   UNL     1       3.484   5.426  18.901  0.00  0.00    +0.000 A 
ATOM      2  C   UNL     1       3.172   6.758  19.199  0.00  0.00    +0.000 A 
ATOM      3  C   UNL     1       2.044   7.046  19.952  0.00  0.00    +0.000 A 
ATOM      4  N   UNL     1       1.298   6.078  20.527  0.00  0.00    +0.000 NA
ATOM      5  C   UNL     1       1.636   4.791  20.310  0.00  0.00    +0.000 A 
ATOM      6  N   UNL     1       0.776   3.853  20.880  0.00  0.00    +0.000 N 
ATOM      7  C   UNL     1       2.694   4.421  19.477  0.00  0.00    +0.000 A 
ATOM      8  H   UNL     1       0.128   4.329  21.501  0.00  0.00    +0.000 HD
ATOM      9  H   UNL     1       1.235   3.060  21.318  0.00  0.00    +0.000 HD
ENDROOT
BRANCH   1  13
ATOM     10  C   UNL     1       6.633   4.602  14.943  0.00  0.00    +0.000 C 
ATOM     11  C   UNL     1       6.041   4.799  16.286  0.00  0.00    +0.000 A 
ATOM     12  C   UNL     1       4.680   5.072  16.588  0.00  0.00    +0.000 A 
ATOM     13  C   UNL     1       4.571   5.151  17.961  0.00  0.00    +0.000 A 
ATOM     14  O   UNL     1       5.803   4.945  18.521  0.00  0.00    +0.000 OA
ATOM     15  C   UNL     1       6.686   4.737  17.505  0.00  0.00    +0.000 A 
ATOM     16  C   UNL     1       8.093   4.474  17.876  0.00  0.00    +0.000 C 
ENDBRANCH   1  13
BRANCH   3  17
ATOM     17  C   UNL     1       1.538   8.414  20.035  0.00  0.00    +0.000 A 
ATOM     18  C   UNL     1       1.202   9.183  21.191  0.00  0.00    +0.000 A 
ATOM     19  C   UNL     1       1.307   8.828  22.632  0.00  0.00    +0.000 C 
ATOM     20  N   UNL     1       0.752  10.399  20.860  0.00  0.00    +0.000 NA
ATOM     21  N   UNL     1       0.915  10.468  19.523  0.00  0.00    +0.000 N 
ATOM     22  C   UNL     1       1.370   9.294  18.970  0.00  0.00    +0.000 A 
ATOM     23  C   UNL     1       1.597   9.114  17.508  0.00  0.00    +0.000 C 
BRANCH  21  24
ATOM     24  C   UNL     1       0.664  11.751  18.888  0.00  0.00    +0.000 C 
BRANCH  24  25
ATOM     25  C   UNL     1       1.900  12.573  18.679  0.00  0.00    +0.000 C 
ATOM     26  O   UNL     1       2.469  13.170  19.586  0.00  0.00    +0.000 OA
BRANCH  25  27
ATOM     27  O   UNL     1       2.309  12.688  17.393  0.00  0.00    +0.000 OA
ATOM     28  H   UNL     1       3.046  12.087  17.148  0.00  0.00    +0.000 HD
ENDBRANCH  25  27
ENDBRANCH  24  25
ENDBRANCH  21  24
ENDBRANCH   3  17
BRANCH   7  29
ATOM     29  C   UNL     1       2.926   3.030  19.230  0.00  0.00    +0.000 C 
ATOM     30  N   UNL     1       3.157   1.911  19.053  0.00  0.00    +0.000 NA
ENDBRANCH   7  29
TORSDOF 6
ENDMDL
MODEL 5
REMARK VINA RESULT:      -7.4      0.804      1.837
REMARK  Name = 
REMARK  10 active torsions:
REMARK  status: ('A' for Active; 'I' for Inactive)
REMARK    1  A    between atoms: C_1  and  C_2
REMARK    2  A    between atoms: C_4  and  C_5
REMARK    3  A    between atoms: C_7  and  C_8
REMARK    4  A    between atoms: C_9  and  C_10
REMARK    5  A    between atoms: N_12  and  C_13
REMARK    6  A    between atoms: C_13  and  C_14
REMARK    7  A    between atoms: C_14  and  O_16
REMARK    8  A    between atoms: C_17  and  C_18
REMARK    9  A    between atoms: C_22  and  C_23
REMARK   10  A    between atoms: C_26  and  C_27
REMARK                            x       y       z     vdW  Elec       q    Type
REMARK                         _______ _______ _______ _____ _____    ______ ____
ROOT
ATOM      1  C   UNL     1       5.694   4.256  14.640  0.00  0.00    +0.000 A 
ATOM      2  C   UNL     1       4.753   3.970  15.637  0.00  0.00    +0.000 A 
ATOM      3  C   UNL     1       4.915   4.508  16.904  0.00  0.00    +0.000 A 
ATOM      4  N   UNL     1       5.880   5.409  17.185  0.00  0.00    +0.000 NA
ATOM      5  C   UNL     1       6.745   5.750  16.209  0.00  0.00    +0.000 A 
ATOM      6  N   UNL     1       7.753   6.632  16.598  0.00  0.00    +0.000 N 
ATOM      7  C   UNL     1       6.712   5.172  14.939  0.00  0.00    +0.000 A 
ATOM      8  H   UNL     1       7.547   6.984  17.528  0.00  0.00    +0.000 HD
ATOM      9  H   UNL     1       7.960   7.370  15.932  0.00  0.00    +0.000 HD
ENDROOT
BRANCH   1  13
ATOM     10  C   UNL     1       6.193   1.339  10.456  0.00  0.00    +0.000 C 
ATOM     11  C   UNL     1       5.724   2.279  11.500  0.00  0.00    +0.000 A 
ATOM     12  C   UNL     1       6.385   2.607  12.714  0.00  0.00    +0.000 A 
ATOM     13  C   UNL     1       5.607   3.542  13.366  0.00  0.00    +0.000 A 
ATOM     14  O   UNL     1       4.493   3.801  12.613  0.00  0.00    +0.000 OA
ATOM     15  C   UNL     1       4.568   3.033  11.491  0.00  0.00    +0.000 A 
ATOM     16  C   UNL     1       3.468   3.160  10.512  0.00  0.00    +0.000 C 
ENDBRANCH   1  13
BRANCH   3  17
ATOM     17  C   UNL     1       4.124   4.007  18.028  0.00  0.00    +0.000 A 
ATOM     18  C   UNL     1       3.846   2.659  18.406  0.00  0.00    +0.000 A 
ATOM     19  C   UNL     1       4.311   1.385  17.792  0.00  0.00    +0.000 C 
ATOM     20  N   UNL     1       3.065   2.603  19.491  0.00  0.00    +0.000 NA
ATOM     21  N   UNL     1       2.945   3.886  19.889  0.00  0.00    +0.000 N 
ATOM     22  C   UNL     1       3.549   4.778  19.034  0.00  0.00    +0.000 A 
ATOM     23  C   UNL     1       3.524   6.253  19.243  0.00  0.00    +0.000 C 
BRANCH  21  24
ATOM     24  C   UNL     1       2.278   4.128  21.157  0.00  0.00    +0.000 C 
BRANCH  24  25
ATOM     25  C   UNL     1       1.231   3.109  21.492  0.00  0.00    +0.000 C 
ATOM     26  O   UNL     1       1.224   2.477  22.542  0.00  0.00    +0.000 OA
BRANCH  25  27
ATOM     27  O   UNL     1       0.328   2.862  20.513  0.00  0.00    +0.000 OA
ATOM     28  H   UNL     1      -0.374   3.543  20.430  0.00  0.00    +0.000 HD
ENDBRANCH  25  27
ENDBRANCH  24  25
ENDBRANCH  21  24
ENDBRANCH   3  17
BRANCH   7  29
ATOM     29  C   UNL     1       7.726   5.525  13.991  0.00  0.00    +0.000 C 
ATOM     30  N   UNL     1       8.541   5.858  13.242  0.00  0.00    +0.000 NA
ENDBRANCH   7  29
TORSDOF 6
ENDMDL
MODEL 6
REMARK VINA RESULT:      -7.0      3.440      8.388
REMARK  Name = 
REMARK  10 active torsions:
REMARK  status: ('A' for Active; 'I' for Inactive)
REMARK    1  A    between atoms: C_1  and  C_2
REMARK    2  A    between atoms: C_4  and  C_5
REMARK    3  A    between atoms: C_7  and  C_8
REMARK    4  A    between atoms: C_9  and  C_10
REMARK    5  A    between atoms: N_12  and  C_13
REMARK    6  A    between atoms: C_13  and  C_14
REMARK    7  A    between atoms: C_14  and  O_16
REMARK    8  A    between atoms: C_17  and  C_18
REMARK    9  A    between atoms: C_22  and  C_23
REMARK   10  A    between atoms: C_26  and  C_27
REMARK                            x       y       z     vdW  Elec       q    Type
REMARK                         _______ _______ _______ _____ _____    ______ ____
ROOT
ATOM      1  C   UNL     1       2.057   8.336  18.847  0.00  0.00    +0.000 A 
ATOM      2  C   UNL     1       2.910   7.816  17.866  0.00  0.00    +0.000 A 
ATOM      3  C   UNL     1       3.582   6.627  18.104  0.00  0.00    +0.000 A 
ATOM      4  N   UNL     1       3.346   5.875  19.201  0.00  0.00    +0.000 NA
ATOM      5  C   UNL     1       2.467   6.330  20.115  0.00  0.00    +0.000 A 
ATOM      6  N   UNL     1       2.332   5.530  21.250  0.00  0.00    +0.000 N 
ATOM      7  C   UNL     1       1.831   7.568  19.998  0.00  0.00    +0.000 A 
ATOM      8  H   UNL     1       2.818   4.651  21.097  0.00  0.00    +0.000 HD
ATOM      9  H   UNL     1       1.379   5.406  21.577  0.00  0.00    +0.000 HD
ENDROOT
BRANCH   1  13
ATOM     10  C   UNL     1      -0.743  12.591  18.288  0.00  0.00    +0.000 C 
ATOM     11  C   UNL     1       0.352  11.605  18.424  0.00  0.00    +0.000 A 
ATOM     12  C   UNL     1       0.222  10.202  18.609  0.00  0.00    +0.000 A 
ATOM     13  C   UNL     1       1.496   9.673  18.655  0.00  0.00    +0.000 A 
ATOM     14  O   UNL     1       2.406  10.686  18.513  0.00  0.00    +0.000 OA
ATOM     15  C   UNL     1       1.711  11.848  18.378  0.00  0.00    +0.000 A 
ATOM     16  C   UNL     1       2.496  13.087  18.192  0.00  0.00    +0.000 C 
ENDBRANCH   1  13
BRANCH   3  17
ATOM     17  C   UNL     1       4.683   6.212  17.236  0.00  0.00    +0.000 A 
ATOM     18  C   UNL     1       5.933   6.857  16.993  0.00  0.00    +0.000 A 
ATOM     19  C   UNL     1       6.487   8.107  17.580  0.00  0.00    +0.000 C 
ATOM     20  N   UNL     1       6.677   6.173  16.115  0.00  0.00    +0.000 NA
ATOM     21  N   UNL     1       5.981   5.040  15.891  0.00  0.00    +0.000 N 
ATOM     22  C   UNL     1       4.763   5.016  16.528  0.00  0.00    +0.000 A 
ATOM     23  C   UNL     1       3.801   3.885  16.406  0.00  0.00    +0.000 C 
BRANCH  21  24
ATOM     24  C   UNL     1       6.627   4.011  15.094  0.00  0.00    +0.000 C 
BRANCH  24  25
ATOM     25  C   UNL     1       6.993   4.461  13.711  0.00  0.00    +0.000 C 
ATOM     26  O   UNL     1       6.586   3.906  12.697  0.00  0.00    +0.000 OA
BRANCH  25  27
ATOM     27  O   UNL     1       7.883   5.480  13.649  0.00  0.00    +0.000 OA
ATOM     28  H   UNL     1       8.389   5.524  12.809  0.00  0.00    +0.000 HD
ENDBRANCH  25  27
ENDBRANCH  24  25
ENDBRANCH  21  24
ENDBRANCH   3  17
BRANCH   7  29
ATOM     29  C   UNL     1       0.982   8.013  21.061  0.00  0.00    +0.000 C 
ATOM     30  N   UNL     1       0.283   8.411  21.891  0.00  0.00    +0.000 NA
ENDBRANCH   7  29
TORSDOF 6
ENDMDL
MODEL 7
REMARK VINA RESULT:      -7.0      4.227      6.975
REMARK  Name = 
REMARK  10 active torsions:
REMARK  status: ('A' for Active; 'I' for Inactive)
REMARK    1  A    between atoms: C_1  and  C_2
REMARK    2  A    between atoms: C_4  and  C_5
REMARK    3  A    between atoms: C_7  and  C_8
REMARK    4  A    between atoms: C_9  and  C_10
REMARK    5  A    between atoms: N_12  and  C_13
REMARK    6  A    between atoms: C_13  and  C_14
REMARK    7  A    between atoms: C_14  and  O_16
REMARK    8  A    between atoms: C_17  and  C_18
REMARK    9  A    between atoms: C_22  and  C_23
REMARK   10  A    between atoms: C_26  and  C_27
REMARK                            x       y       z     vdW  Elec       q    Type
REMARK                         _______ _______ _______ _____ _____    ______ ____
ROOT
ATOM      1  C   UNL     1       3.407   5.548  19.144  0.00  0.00    +0.000 A 
ATOM      2  C   UNL     1       3.078   6.876  19.439  0.00  0.00    +0.000 A 
ATOM      3  C   UNL     1       1.886   7.159  20.087  0.00  0.00    +0.000 A 
ATOM      4  N   UNL     1       1.081   6.186  20.567  0.00  0.00    +0.000 NA
ATOM      5  C   UNL     1       1.428   4.902  20.355  0.00  0.00    +0.000 A 
ATOM      6  N   UNL     1       0.510   3.960  20.820  0.00  0.00    +0.000 N 
ATOM      7  C   UNL     1       2.557   4.539  19.619  0.00  0.00    +0.000 A 
ATOM      8  H   UNL     1      -0.191   4.429  21.386  0.00  0.00    +0.000 HD
ATOM      9  H   UNL     1       0.918   3.153  21.282  0.00  0.00    +0.000 HD
ENDROOT
BRANCH   1  13
ATOM     10  C   UNL     1       7.958   4.507  17.032  0.00  0.00    +0.000 C 
ATOM     11  C   UNL     1       6.530   4.805  17.282  0.00  0.00    +0.000 A 
ATOM     12  C   UNL     1       5.905   4.999  18.544  0.00  0.00    +0.000 A 
ATOM     13  C   UNL     1       4.576   5.281  18.306  0.00  0.00    +0.000 A 
ATOM     14  O   UNL     1       4.349   5.263  16.956  0.00  0.00    +0.000 OA
ATOM     15  C   UNL     1       5.530   4.972  16.344  0.00  0.00    +0.000 A 
ATOM     16  C   UNL     1       5.530   4.915  14.867  0.00  0.00    +0.000 C 
ENDBRANCH   1  13
BRANCH   3  17
ATOM     17  C   UNL     1       1.385   8.530  20.152  0.00  0.00    +0.000 A 
ATOM     18  C   UNL     1       1.094   9.331  21.297  0.00  0.00    +0.000 A 
ATOM     19  C   UNL     1       1.253   9.016  22.743  0.00  0.00    +0.000 C 
ATOM     20  N   UNL     1       0.633  10.539  20.950  0.00  0.00    +0.000 NA
ATOM     21  N   UNL     1       0.745  10.571  19.607  0.00  0.00    +0.000 N 
ATOM     22  C   UNL     1       1.178   9.381  19.069  0.00  0.00    +0.000 A 
ATOM     23  C   UNL     1       1.348   9.160  17.606  0.00  0.00    +0.000 C 
BRANCH  21  24
ATOM     24  C   UNL     1       0.472  11.836  18.947  0.00  0.00    +0.000 C 
BRANCH  24  25
ATOM     25  C   UNL     1      -0.942  11.972  18.466  0.00  0.00    +0.000 C 
ATOM     26  O   UNL     1      -1.872  11.321  18.929  0.00  0.00    +0.000 OA
BRANCH  25  27
ATOM     27  O   UNL     1      -1.119  12.806  17.415  0.00  0.00    +0.000 OA
ATOM     28  H   UNL     1      -1.976  12.694  16.949  0.00  0.00    +0.000 HD
ENDBRANCH  25  27
ENDBRANCH  24  25
ENDBRANCH  21  24
ENDBRANCH   3  17
BRANCH   7  29
ATOM     29  C   UNL     1       2.801   3.150  19.365  0.00  0.00    +0.000 C 
ATOM     30  N   UNL     1       2.994   2.022  19.209  0.00  0.00    +0.000 NA
ENDBRANCH   7  29
TORSDOF 6
ENDMDL
MODEL 8
REMARK VINA RESULT:      -7.0      0.542      1.156
REMARK  Name = 
REMARK  10 active torsions:
REMARK  status: ('A' for Active; 'I' for Inactive)
REMARK    1  A    between atoms: C_1  and  C_2
REMARK    2  A    between atoms: C_4  and  C_5
REMARK    3  A    between atoms: C_7  and  C_8
REMARK    4  A    between atoms: C_9  and  C_10
REMARK    5  A    between atoms: N_12  and  C_13
REMARK    6  A    between atoms: C_13  and  C_14
REMARK    7  A    between atoms: C_14  and  O_16
REMARK    8  A    between atoms: C_17  and  C_18
REMARK    9  A    between atoms: C_22  and  C_23
REMARK   10  A    between atoms: C_26  and  C_27
REMARK                            x       y       z     vdW  Elec       q    Type
REMARK                         _______ _______ _______ _____ _____    ______ ____
ROOT
ATOM      1  C   UNL     1       5.349   4.556  14.697  0.00  0.00    +0.000 A 
ATOM      2  C   UNL     1       4.338   4.446  15.660  0.00  0.00    +0.000 A 
ATOM      3  C   UNL     1       4.554   4.939  16.937  0.00  0.00    +0.000 A 
ATOM      4  N   UNL     1       5.660   5.643  17.258  0.00  0.00    +0.000 NA
ATOM      5  C   UNL     1       6.606   5.821  16.315  0.00  0.00    +0.000 A 
ATOM      6  N   UNL     1       7.747   6.498  16.745  0.00  0.00    +0.000 N 
ATOM      7  C   UNL     1       6.509   5.265  15.038  0.00  0.00    +0.000 A 
ATOM      8  H   UNL     1       7.578   6.879  17.672  0.00  0.00    +0.000 HD
ATOM      9  H   UNL     1       8.109   7.187  16.094  0.00  0.00    +0.000 HD
ENDROOT
BRANCH   1  13
ATOM     10  C   UNL     1       3.916   2.643  10.163  0.00  0.00    +0.000 C 
ATOM     11  C   UNL     1       4.645   3.002  11.401  0.00  0.00    +0.000 A 
ATOM     12  C   UNL     1       4.188   3.845  12.449  0.00  0.00    +0.000 A 
ATOM     13  C   UNL     1       5.174   3.876  13.413  0.00  0.00    +0.000 A 
ATOM     14  O   UNL     1       6.223   3.096  13.005  0.00  0.00    +0.000 OA
ATOM     15  C   UNL     1       5.899   2.574  11.790  0.00  0.00    +0.000 A 
ATOM     16  C   UNL     1       6.887   1.676  11.156  0.00  0.00    +0.000 C 
ENDBRANCH   1  13
BRANCH   3  17
ATOM     17  C   UNL     1       3.647   4.590  18.029  0.00  0.00    +0.000 A 
ATOM     18  C   UNL     1       2.884   5.448  18.877  0.00  0.00    +0.000 A 
ATOM     19  C   UNL     1       2.763   6.931  18.868  0.00  0.00    +0.000 C 
ATOM     20  N   UNL     1       2.180   4.751  19.778  0.00  0.00    +0.000 NA
ATOM     21  N   UNL     1       2.378   3.461  19.439  0.00  0.00    +0.000 N 
ATOM     22  C   UNL     1       3.268   3.303  18.402  0.00  0.00    +0.000 A 
ATOM     23  C   UNL     1       3.673   1.972  17.870  0.00  0.00    +0.000 C 
BRANCH  21  24
ATOM     24  C   UNL     1       1.597   2.461  20.146  0.00  0.00    +0.000 C 
BRANCH  24  25
ATOM     25  C   UNL     1       1.874   2.410  21.619  0.00  0.00    +0.000 C 
ATOM     26  O   UNL     1       0.991   2.436  22.468  0.00  0.00    +0.000 OA
BRANCH  25  27
ATOM     27  O   UNL     1       3.184   2.420  21.962  0.00  0.00    +0.000 OA
ATOM     28  H   UNL     1       3.424   1.771  22.659  0.00  0.00    +0.000 HD
ENDBRANCH  25  27
ENDBRANCH  24  25
ENDBRANCH  21  24
ENDBRANCH   3  17
BRANCH   7  29
ATOM     29  C   UNL     1       7.602   5.427  14.127  0.00  0.00    +0.000 C 
ATOM     30  N   UNL     1       8.512   5.575  13.431  0.00  0.00    +0.000 NA
ENDBRANCH   7  29
TORSDOF 6
ENDMDL
MODEL 9
REMARK VINA RESULT:      -6.9      4.144      6.951
REMARK  Name = 
REMARK  10 active torsions:
REMARK  status: ('A' for Active; 'I' for Inactive)
REMARK    1  A    between atoms: C_1  and  C_2
REMARK    2  A    between atoms: C_4  and  C_5
REMARK    3  A    between atoms: C_7  and  C_8
REMARK    4  A    between atoms: C_9  and  C_10
REMARK    5  A    between atoms: N_12  and  C_13
REMARK    6  A    between atoms: C_13  and  C_14
REMARK    7  A    between atoms: C_14  and  O_16
REMARK    8  A    between atoms: C_17  and  C_18
REMARK    9  A    between atoms: C_22  and  C_23
REMARK   10  A    between atoms: C_26  and  C_27
REMARK                            x       y       z     vdW  Elec       q    Type
REMARK                         _______ _______ _______ _____ _____    ______ ____
ROOT
ATOM      1  C   UNL     1       3.452   5.437  19.142  0.00  0.00    +0.000 A 
ATOM      2  C   UNL     1       3.123   6.768  19.427  0.00  0.00    +0.000 A 
ATOM      3  C   UNL     1       1.931   7.056  20.072  0.00  0.00    +0.000 A 
ATOM      4  N   UNL     1       1.124   6.087  20.557  0.00  0.00    +0.000 NA
ATOM      5  C   UNL     1       1.471   4.801  20.355  0.00  0.00    +0.000 A 
ATOM      6  N   UNL     1       0.552   3.863  20.825  0.00  0.00    +0.000 N 
ATOM      7  C   UNL     1       2.601   4.432  19.622  0.00  0.00    +0.000 A 
ATOM      8  H   UNL     1      -0.150   4.337  21.387  0.00  0.00    +0.000 HD
ATOM      9  H   UNL     1       0.959   3.059  21.293  0.00  0.00    +0.000 HD
ENDROOT
BRANCH   1  13
ATOM     10  C   UNL     1       8.006   4.381  17.043  0.00  0.00    +0.000 C 
ATOM     11  C   UNL     1       6.577   4.680  17.290  0.00  0.00    +0.000 A 
ATOM     12  C   UNL     1       5.951   4.885  18.549  0.00  0.00    +0.000 A 
ATOM     13  C   UNL     1       4.622   5.164  18.307  0.00  0.00    +0.000 A 
ATOM     14  O   UNL     1       4.396   5.134  16.957  0.00  0.00    +0.000 OA
ATOM     15  C   UNL     1       5.578   4.838  16.349  0.00  0.00    +0.000 A 
ATOM     16  C   UNL     1       5.579   4.769  14.872  0.00  0.00    +0.000 C 
ENDBRANCH   1  13
BRANCH   3  17
ATOM     17  C   UNL     1       1.431   8.428  20.127  0.00  0.00    +0.000 A 
ATOM     18  C   UNL     1       1.081   9.216  21.265  0.00  0.00    +0.000 A 
ATOM     19  C   UNL     1       1.162   8.882  22.713  0.00  0.00    +0.000 C 
ATOM     20  N   UNL     1       0.642  10.429  20.908  0.00  0.00    +0.000 NA
ATOM     21  N   UNL     1       0.827  10.477  19.573  0.00  0.00    +0.000 N 
ATOM     22  C   UNL     1       1.284   9.293  19.045  0.00  0.00    +0.000 A 
ATOM     23  C   UNL     1       1.532   9.089  17.591  0.00  0.00    +0.000 C 
BRANCH  21  24
ATOM     24  C   UNL     1       0.592  11.752  18.916  0.00  0.00    +0.000 C 
BRANCH  24  25
ATOM     25  C   UNL     1       1.835  12.566  18.719  0.00  0.00    +0.000 C 
ATOM     26  O   UNL     1       2.356  13.220  19.615  0.00  0.00    +0.000 OA
BRANCH  25  27
ATOM     27  O   UNL     1       2.307  12.606  17.450  0.00  0.00    +0.000 OA
ATOM     28  H   UNL     1       1.628  12.820  16.773  0.00  0.00    +0.000 HD
ENDBRANCH  25  27
ENDBRANCH  24  25
ENDBRANCH  21  24
ENDBRANCH   3  17
BRANCH   7  29
ATOM     29  C   UNL     1       2.844   3.042  19.378  0.00  0.00    +0.000 C 
ATOM     30  N   UNL     1       3.081   1.923  19.210  0.00  0.00    +0.000 NA
ENDBRANCH   7  29
TORSDOF 6
ENDMDL
