MODEL 1
REMARK VINA RESULT:      -6.7      0.000      0.000
REMARK  Name = 
REMARK  8 active torsions:
REMARK  status: ('A' for Active; 'I' for Inactive)
REMARK    1  A    between atoms: N_1  and  C_2
REMARK    2  A    between atoms: C_2  and  C_3
REMARK    3  A    between atoms: C_3  and  O_5
REMARK    4  A    between atoms: C_7  and  C_8
REMARK    5  A    between atoms: C_7  and  C_11
REMARK    6  A    between atoms: C_8  and  O_10
REMARK    7  A    between atoms: C_13  and  C_14
REMARK    8  A    between atoms: C_14  and  O_16
REMARK                            x       y       z     vdW  Elec       q    Type
REMARK                         _______ _______ _______ _____ _____    ______ ____
ROOT
ATOM      1  C   UNL     1       6.663   5.907  17.620  0.00  0.00    +0.000 C 
ATOM      2  C   UNL     1       5.321   6.391  17.032  0.00  0.00    +0.000 C 
ATOM      3  C   UNL     1       4.560   5.466  18.083  0.00  0.00    +0.000 C 
ATOM      4  C   UNL     1       5.897   5.537  18.905  0.00  0.00    +0.000 C 
ENDROOT
BRANCH   1   5
ATOM      5  N   UNL     1       7.467   7.103  17.938  0.00  0.00    +0.000 NA
ATOM      6  H   UNL     1       7.815   7.586  17.105  0.00  0.00    +0.000 HD
ATOM      7  H   UNL     1       8.293   6.934  18.511  0.00  0.00    +0.000 HD
ENDBRANCH   1   5
BRANCH   3   8
ATOM      8  C   UNL     1       4.051   4.132  17.495  0.00  0.00    +0.000 C 
ATOM      9  C   UNL     1       2.643   3.627  17.688  0.00  0.00    +0.000 C 
ATOM     10  C   UNL     1       3.812   2.789  18.150  0.00  0.00    +0.000 C 
BRANCH  10  11
ATOM     11  C   UNL     1       3.927   2.507  19.598  0.00  0.00    +0.000 C 
ATOM     12  O   UNL     1       3.106   2.896  20.417  0.00  0.00    +0.000 OA
BRANCH  11  13
ATOM     13  O   UNL     1       5.044   1.831  19.944  0.00  0.00    +0.000 OA
ATOM     14  H   UNL     1       5.625   2.303  20.573  0.00  0.00    +0.000 HD
ENDBRANCH  11  13
ENDBRANCH  10  11
ENDBRANCH   3   8
BRANCH   1  15
ATOM     15  C   UNL     1       7.460   4.806  16.816  0.00  0.00    +0.000 C 
ATOM     16  O   UNL     1       7.447   4.646  15.599  0.00  0.00    +0.000 OA
BRANCH  15  17
ATOM     17  O   UNL     1       8.223   3.989  17.591  0.00  0.00    +0.000 OA
ATOM     18  H   UNL     1       9.008   3.621  17.140  0.00  0.00    +0.000 HD
ENDBRANCH  15  17
ENDBRANCH   1  15
BRANCH   3  19
ATOM     19  C   UNL     1       3.311   6.246  18.725  0.00  0.00    +0.000 C 
ATOM     20  O   UNL     1       2.556   7.007  18.127  0.00  0.00    +0.000 OA
BRANCH  19  21
ATOM     21  O   UNL     1       3.109   5.993  20.048  0.00  0.00    +0.000 OA
ATOM     22  H   UNL     1       2.432   6.561  20.465  0.00  0.00    +0.000 HD
ENDBRANCH  19  21
ENDBRANCH   3  19
TORSDOF 8
ENDMDL
MODEL 2
REMARK VINA RESULT:      -6.5      0.668      1.036
REMARK  Name = 
REMARK  8 active torsions:
REMARK  status: ('A' for Active; 'I' for Inactive)
REMARK    1  A    between atoms: N_1  and  C_2
REMARK    2  A    between atoms: C_2  and  C_3
REMARK    3  A    between atoms: C_3  and  O_5
REMARK    4  A    between atoms: C_7  and  C_8
REMARK    5  A    between atoms: C_7  and  C_11
REMARK    6  A    between atoms: C_8  and  O_10
REMARK    7  A    between atoms: C_13  and  C_14
REMARK    8  A    between atoms: C_14  and  O_16
REMARK                            x       y       z     vdW  Elec       q    Type
REMARK                         _______ _______ _______ _____ _____    ______ ____
ROOT
ATOM      1  C   UNL     1       6.253   6.210  16.917  0.00  0.00    +0.000 C 
ATOM      2  C   UNL     1       4.798   6.617  16.602  0.00  0.00    +0.000 C 
ATOM      3  C   UNL     1       4.306   5.659  17.777  0.00  0.00    +0.000 C 
ATOM      4  C   UNL     1       5.771   5.807  18.324  0.00  0.00    +0.000 C 
ENDROOT
BRANCH   1   5
ATOM      5  N   UNL     1       7.037   7.449  17.078  0.00  0.00    +0.000 NA
ATOM      6  H   UNL     1       7.857   7.487  16.466  0.00  0.00    +0.000 HD
ATOM      7  H   UNL     1       7.398   7.618  18.016  0.00  0.00    +0.000 HD
ENDBRANCH   1   5
BRANCH   3   8
ATOM      8  C   UNL     1       3.765   4.296  17.293  0.00  0.00    +0.000 C 
ATOM      9  C   UNL     1       2.396   3.774  17.654  0.00  0.00    +0.000 C 
ATOM     10  C   UNL     1       3.626   2.974  18.016  0.00  0.00    +0.000 C 
BRANCH  10  11
ATOM     11  C   UNL     1       3.900   2.746  19.451  0.00  0.00    +0.000 C 
ATOM     12  O   UNL     1       3.124   3.079  20.336  0.00  0.00    +0.000 OA
BRANCH  11  13
ATOM     13  O   UNL     1       5.105   2.191  19.704  0.00  0.00    +0.000 OA
ATOM     14  H   UNL     1       5.669   2.704  20.316  0.00  0.00    +0.000 HD
ENDBRANCH  11  13
ENDBRANCH  10  11
ENDBRANCH   3   8
BRANCH   1  15
ATOM     15  C   UNL     1       6.936   5.148  15.968  0.00  0.00    +0.000 C 
ATOM     16  O   UNL     1       7.889   4.429  16.253  0.00  0.00    +0.000 OA
BRANCH  15  17
ATOM     17  O   UNL     1       6.374   5.057  14.732  0.00  0.00    +0.000 OA
ATOM     18  H   UNL     1       5.398   5.097  14.728  0.00  0.00    +0.000 HD
ENDBRANCH  15  17
ENDBRANCH   1  15
BRANCH   3  19
ATOM     19  C   UNL     1       3.165   6.375  18.653  0.00  0.00    +0.000 C 
ATOM     20  O   UNL     1       2.288   7.118  18.221  0.00  0.00    +0.000 OA
BRANCH  19  21
ATOM     21  O   UNL     1       3.212   6.086  19.984  0.00  0.00    +0.000 OA
ATOM     22  H   UNL     1       4.065   5.715  20.282  0.00  0.00    +0.000 HD
ENDBRANCH  19  21
ENDBRANCH   3  19
TORSDOF 8
ENDMDL
MODEL 3
REMARK VINA RESULT:      -6.3      1.144      1.157
REMARK  Name = 
REMARK  8 active torsions:
REMARK  status: ('A' for Active; 'I' for Inactive)
REMARK    1  A    between atoms: N_1  and  C_2
REMARK    2  A    between atoms: C_2  and  C_3
REMARK    3  A    between atoms: C_3  and  O_5
REMARK    4  A    between atoms: C_7  and  C_8
REMARK    5  A    between atoms: C_7  and  C_11
REMARK    6  A    between atoms: C_8  and  O_10
REMARK    7  A    between atoms: C_13  and  C_14
REMARK    8  A    between atoms: C_14  and  O_16
REMARK                            x       y       z     vdW  Elec       q    Type
REMARK                         _______ _______ _______ _____ _____    ______ ____
ROOT
ATOM      1  C   UNL     1       6.242   5.325  18.085  0.00  0.00    +0.000 C 
ATOM      2  C   UNL     1       5.043   6.274  17.877  0.00  0.00    +0.000 C 
ATOM      3  C   UNL     1       4.091   5.165  18.510  0.00  0.00    +0.000 C 
ATOM      4  C   UNL     1       5.406   4.605  19.161  0.00  0.00    +0.000 C 
ENDROOT
BRANCH   1   5
ATOM      5  N   UNL     1       7.289   6.079  18.799  0.00  0.00    +0.000 NA
ATOM      6  H   UNL     1       7.637   5.594  19.631  0.00  0.00    +0.000 HD
ATOM      7  H   UNL     1       7.014   7.004  19.127  0.00  0.00    +0.000 HD
ENDBRANCH   1   5
BRANCH   3   8
ATOM      8  C   UNL     1       3.301   4.344  17.467  0.00  0.00    +0.000 C 
ATOM      9  C   UNL     1       1.839   4.003  17.618  0.00  0.00    +0.000 C 
ATOM     10  C   UNL     1       2.858   2.897  17.477  0.00  0.00    +0.000 C 
BRANCH  10  11
ATOM     11  C   UNL     1       3.014   1.958  18.609  0.00  0.00    +0.000 C 
ATOM     12  O   UNL     1       2.459   2.119  19.686  0.00  0.00    +0.000 OA
BRANCH  11  13
ATOM     13  O   UNL     1       3.866   0.938  18.369  0.00  0.00    +0.000 OA
ATOM     14  H   UNL     1       3.785   0.541  17.479  0.00  0.00    +0.000 HD
ENDBRANCH  11  13
ENDBRANCH  10  11
ENDBRANCH   3   8
BRANCH   1  15
ATOM     15  C   UNL     1       6.778   4.537  16.825  0.00  0.00    +0.000 C 
ATOM     16  O   UNL     1       6.142   4.280  15.807  0.00  0.00    +0.000 OA
BRANCH  15  17
ATOM     17  O   UNL     1       8.073   4.135  16.926  0.00  0.00    +0.000 OA
ATOM     18  H   UNL     1       8.314   3.760  17.795  0.00  0.00    +0.000 HD
ENDBRANCH  15  17
ENDBRANCH   1  15
BRANCH   3  19
ATOM     19  C   UNL     1       3.043   5.830  19.530  0.00  0.00    +0.000 C 
ATOM     20  O   UNL     1       2.469   6.904  19.370  0.00  0.00    +0.000 OA
BRANCH  19  21
ATOM     21  O   UNL     1       2.796   5.090  20.646  0.00  0.00    +0.000 OA
ATOM     22  H   UNL     1       2.732   4.130  20.483  0.00  0.00    +0.000 HD
ENDBRANCH  19  21
ENDBRANCH   3  19
TORSDOF 8
ENDMDL
MODEL 4
REMARK VINA RESULT:      -6.3      0.554      1.219
REMARK  Name = 
REMARK  8 active torsions:
REMARK  status: ('A' for Active; 'I' for Inactive)
REMARK    1  A    between atoms: N_1  and  C_2
REMARK    2  A    between atoms: C_2  and  C_3
REMARK    3  A    between atoms: C_3  and  O_5
REMARK    4  A    between atoms: C_7  and  C_8
REMARK    5  A    between atoms: C_7  and  C_11
REMARK    6  A    between atoms: C_8  and  O_10
REMARK    7  A    between atoms: C_13  and  C_14
REMARK    8  A    between atoms: C_14  and  O_16
REMARK                            x       y       z     vdW  Elec       q    Type
REMARK                         _______ _______ _______ _____ _____    ______ ____
ROOT
ATOM      1  C   UNL     1       6.522   6.213  17.000  0.00  0.00    +0.000 C 
ATOM      2  C   UNL     1       5.077   6.571  16.592  0.00  0.00    +0.000 C 
ATOM      3  C   UNL     1       4.544   5.620  17.755  0.00  0.00    +0.000 C 
ATOM      4  C   UNL     1       5.970   5.823  18.385  0.00  0.00    +0.000 C 
ENDROOT
BRANCH   1   5
ATOM      5  N   UNL     1       7.259   7.479  17.182  0.00  0.00    +0.000 NA
ATOM      6  H   UNL     1       6.926   8.229  16.570  0.00  0.00    +0.000 HD
ATOM      7  H   UNL     1       8.263   7.427  17.015  0.00  0.00    +0.000 HD
ENDBRANCH   1   5
BRANCH   3   8
ATOM      8  C   UNL     1       4.074   4.232  17.268  0.00  0.00    +0.000 C 
ATOM      9  C   UNL     1       2.675   3.711  17.484  0.00  0.00    +0.000 C 
ATOM     10  C   UNL     1       3.856   2.940  18.024  0.00  0.00    +0.000 C 
BRANCH  10  11
ATOM     11  C   UNL     1       3.957   2.775  19.491  0.00  0.00    +0.000 C 
ATOM     12  O   UNL     1       4.950   2.320  20.040  0.00  0.00    +0.000 OA
BRANCH  11  13
ATOM     13  O   UNL     1       2.838   3.116  20.165  0.00  0.00    +0.000 OA
ATOM     14  H   UNL     1       2.900   3.010  21.136  0.00  0.00    +0.000 HD
ENDBRANCH  11  13
ENDBRANCH  10  11
ENDBRANCH   3   8
BRANCH   1  15
ATOM     15  C   UNL     1       7.292   5.156  16.115  0.00  0.00    +0.000 C 
ATOM     16  O   UNL     1       7.435   5.198  14.897  0.00  0.00    +0.000 OA
BRANCH  15  17
ATOM     17  O   UNL     1       7.834   4.126  16.818  0.00  0.00    +0.000 OA
ATOM     18  H   UNL     1       7.553   4.082  17.753  0.00  0.00    +0.000 HD
ENDBRANCH  15  17
ENDBRANCH   1  15
BRANCH   3  19
ATOM     19  C   UNL     1       3.333   6.317  18.547  0.00  0.00    +0.000 C 
ATOM     20  O   UNL     1       3.048   6.133  19.727  0.00  0.00    +0.000 OA
BRANCH  19  21
ATOM     21  O   UNL     1       2.598   7.188  17.801  0.00  0.00    +0.000 OA
ATOM     22  H   UNL     1       3.130   7.855  17.327  0.00  0.00    +0.000 HD
ENDBRANCH  19  21
ENDBRANCH   3  19
TORSDOF 8
ENDMDL
MODEL 5
REMARK VINA RESULT:      -6.1      1.278      1.514
REMARK  Name = 
REMARK  8 active torsions:
REMARK  status: ('A' for Active; 'I' for Inactive)
REMARK    1  A    between atoms: N_1  and  C_2
REMARK    2  A    between atoms: C_2  and  C_3
REMARK    3  A    between atoms: C_3  and  O_5
REMARK    4  A    between atoms: C_7  and  C_8
REMARK    5  A    between atoms: C_7  and  C_11
REMARK    6  A    between atoms: C_8  and  O_10
REMARK    7  A    between atoms: C_13  and  C_14
REMARK    8  A    between atoms: C_14  and  O_16
REMARK                            x       y       z     vdW  Elec       q    Type
REMARK                         _______ _______ _______ _____ _____    ______ ____
ROOT
ATOM      1  C   UNL     1       5.980   5.622  17.528  0.00  0.00    +0.000 C 
ATOM      2  C   UNL     1       4.731   6.528  17.563  0.00  0.00    +0.000 C 
ATOM      3  C   UNL     1       3.943   5.364  18.314  0.00  0.00    +0.000 C 
ATOM      4  C   UNL     1       5.371   4.840  18.709  0.00  0.00    +0.000 C 
ENDROOT
BRANCH   1   5
ATOM      5  N   UNL     1       7.109   6.399  18.075  0.00  0.00    +0.000 NA
ATOM      6  H   UNL     1       7.697   6.819  17.349  0.00  0.00    +0.000 HD
ATOM      7  H   UNL     1       7.752   5.876  18.668  0.00  0.00    +0.000 HD
ENDBRANCH   1   5
BRANCH   3   8
ATOM      8  C   UNL     1       3.013   4.540  17.397  0.00  0.00    +0.000 C 
ATOM      9  C   UNL     1       1.586   4.206  17.752  0.00  0.00    +0.000 C 
ATOM     10  C   UNL     1       2.571   3.095  17.477  0.00  0.00    +0.000 C 
BRANCH  10  11
ATOM     11  C   UNL     1       2.882   2.162  18.582  0.00  0.00    +0.000 C 
ATOM     12  O   UNL     1       3.672   1.236  18.466  0.00  0.00    +0.000 OA
BRANCH  11  13
ATOM     13  O   UNL     1       2.176   2.385  19.711  0.00  0.00    +0.000 OA
ATOM     14  H   UNL     1       2.475   3.158  20.231  0.00  0.00    +0.000 HD
ENDBRANCH  11  13
ENDBRANCH  10  11
ENDBRANCH   3   8
BRANCH   1  15
ATOM     15  C   UNL     1       6.316   4.892  16.169  0.00  0.00    +0.000 C 
ATOM     16  O   UNL     1       6.711   5.426  15.138  0.00  0.00    +0.000 OA
BRANCH  15  17
ATOM     17  O   UNL     1       6.140   3.543  16.200  0.00  0.00    +0.000 OA
ATOM     18  H   UNL     1       5.875   3.150  15.345  0.00  0.00    +0.000 HD
ENDBRANCH  15  17
ENDBRANCH   1  15
BRANCH   3  19
ATOM     19  C   UNL     1       3.067   5.959  19.522  0.00  0.00    +0.000 C 
ATOM     20  O   UNL     1       2.484   7.039  19.521  0.00  0.00    +0.000 OA
BRANCH  19  21
ATOM     21  O   UNL     1       2.985   5.146  20.612  0.00  0.00    +0.000 OA
ATOM     22  H   UNL     1       3.169   4.206  20.424  0.00  0.00    +0.000 HD
ENDBRANCH  19  21
ENDBRANCH   3  19
TORSDOF 8
ENDMDL
MODEL 6
REMARK VINA RESULT:      -6.1      1.575      1.889
REMARK  Name = 
REMARK  8 active torsions:
REMARK  status: ('A' for Active; 'I' for Inactive)
REMARK    1  A    between atoms: N_1  and  C_2
REMARK    2  A    between atoms: C_2  and  C_3
REMARK    3  A    between atoms: C_3  and  O_5
REMARK    4  A    between atoms: C_7  and  C_8
REMARK    5  A    between atoms: C_7  and  C_11
REMARK    6  A    between atoms: C_8  and  O_10
REMARK    7  A    between atoms: C_13  and  C_14
REMARK    8  A    between atoms: C_14  and  O_16
REMARK                            x       y       z     vdW  Elec       q    Type
REMARK                         _______ _______ _______ _____ _____    ______ ____
ROOT
ATOM      1  C   UNL     1       6.107   4.929  18.707  0.00  0.00    +0.000 C 
ATOM      2  C   UNL     1       5.029   6.033  18.719  0.00  0.00    +0.000 C 
ATOM      3  C   UNL     1       3.924   4.911  18.966  0.00  0.00    +0.000 C 
ATOM      4  C   UNL     1       5.122   4.043  19.495  0.00  0.00    +0.000 C 
ENDROOT
BRANCH   1   5
ATOM      5  N   UNL     1       7.165   5.329  19.654  0.00  0.00    +0.000 NA
ATOM      6  H   UNL     1       6.886   6.104  20.263  0.00  0.00    +0.000 HD
ATOM      7  H   UNL     1       8.041   5.627  19.229  0.00  0.00    +0.000 HD
ENDBRANCH   1   5
BRANCH   3   8
ATOM      8  C   UNL     1       3.142   4.508  17.697  0.00  0.00    +0.000 C 
ATOM      9  C   UNL     1       1.635   4.480  17.629  0.00  0.00    +0.000 C 
ATOM     10  C   UNL     1       2.424   3.224  17.344  0.00  0.00    +0.000 C 
BRANCH  10  11
ATOM     11  C   UNL     1       2.230   2.070  18.249  0.00  0.00    +0.000 C 
ATOM     12  O   UNL     1       1.250   1.950  18.971  0.00  0.00    +0.000 OA
BRANCH  11  13
ATOM     13  O   UNL     1       3.254   1.190  18.252  0.00  0.00    +0.000 OA
ATOM     14  H   UNL     1       3.315   0.640  19.059  0.00  0.00    +0.000 HD
ENDBRANCH  11  13
ENDBRANCH  10  11
ENDBRANCH   3   8
BRANCH   1  15
ATOM     15  C   UNL     1       6.660   4.462  17.303  0.00  0.00    +0.000 C 
ATOM     16  O   UNL     1       5.988   4.195  16.312  0.00  0.00    +0.000 OA
BRANCH  15  17
ATOM     17  O   UNL     1       8.016   4.369  17.238  0.00  0.00    +0.000 OA
ATOM     18  H   UNL     1       8.388   3.580  17.678  0.00  0.00    +0.000 HD
ENDBRANCH  15  17
ENDBRANCH   1  15
BRANCH   3  19
ATOM     19  C   UNL     1       2.870   5.388  20.081  0.00  0.00    +0.000 C 
ATOM     20  O   UNL     1       2.330   4.665  20.913  0.00  0.00    +0.000 OA
BRANCH  19  21
ATOM     21  O   UNL     1       2.599   6.723  20.065  0.00  0.00    +0.000 OA
ATOM     22  H   UNL     1       2.687   7.159  20.934  0.00  0.00    +0.000 HD
ENDBRANCH  19  21
ENDBRANCH   3  19
TORSDOF 8
ENDMDL
MODEL 7
REMARK VINA RESULT:      -6.0      2.155      4.603
REMARK  Name = 
REMARK  8 active torsions:
REMARK  status: ('A' for Active; 'I' for Inactive)
REMARK    1  A    between atoms: N_1  and  C_2
REMARK    2  A    between atoms: C_2  and  C_3
REMARK    3  A    between atoms: C_3  and  O_5
REMARK    4  A    between atoms: C_7  and  C_8
REMARK    5  A    between atoms: C_7  and  C_11
REMARK    6  A    between atoms: C_8  and  O_10
REMARK    7  A    between atoms: C_13  and  C_14
REMARK    8  A    between atoms: C_14  and  O_16
REMARK                            x       y       z     vdW  Elec       q    Type
REMARK                         _______ _______ _______ _____ _____    ______ ____
ROOT
ATOM      1  C   UNL     1       3.393   3.494  18.550  0.00  0.00    +0.000 C 
ATOM      2  C   UNL     1       3.795   4.896  19.057  0.00  0.00    +0.000 C 
ATOM      3  C   UNL     1       4.660   5.095  17.734  0.00  0.00    +0.000 C 
ATOM      4  C   UNL     1       3.737   3.978  17.127  0.00  0.00    +0.000 C 
ENDROOT
BRANCH   1   5
ATOM      5  N   UNL     1       1.923   3.401  18.620  0.00  0.00    +0.000 NA
ATOM      6  H   UNL     1       1.535   2.698  17.983  0.00  0.00    +0.000 HD
ATOM      7  H   UNL     1       1.420   4.260  18.404  0.00  0.00    +0.000 HD
ENDBRANCH   1   5
BRANCH   3   8
ATOM      8  C   UNL     1       6.174   4.863  17.931  0.00  0.00    +0.000 C 
ATOM      9  C   UNL     1       7.217   5.910  17.627  0.00  0.00    +0.000 C 
ATOM     10  C   UNL     1       7.269   4.572  16.928  0.00  0.00    +0.000 C 
BRANCH  10  11
ATOM     11  C   UNL     1       7.106   4.557  15.458  0.00  0.00    +0.000 C 
ATOM     12  O   UNL     1       7.479   5.475  14.740  0.00  0.00    +0.000 OA
BRANCH  11  13
ATOM     13  O   UNL     1       6.462   3.470  14.982  0.00  0.00    +0.000 OA
ATOM     14  H   UNL     1       6.907   3.031  14.230  0.00  0.00    +0.000 HD
ENDBRANCH  11  13
ENDBRANCH  10  11
ENDBRANCH   3   8
BRANCH   1  15
ATOM     15  C   UNL     1       4.136   2.249  19.176  0.00  0.00    +0.000 C 
ATOM     16  O   UNL     1       4.797   2.245  20.210  0.00  0.00    +0.000 OA
BRANCH  15  17
ATOM     17  O   UNL     1       3.992   1.097  18.468  0.00  0.00    +0.000 OA
ATOM     18  H   UNL     1       3.940   1.221  17.500  0.00  0.00    +0.000 HD
ENDBRANCH  15  17
ENDBRANCH   1  15
BRANCH   3  19
ATOM     19  C   UNL     1       4.447   6.570  17.133  0.00  0.00    +0.000 C 
ATOM     20  O   UNL     1       4.002   7.537  17.745  0.00  0.00    +0.000 OA
BRANCH  19  21
ATOM     21  O   UNL     1       4.823   6.707  15.831  0.00  0.00    +0.000 OA
ATOM     22  H   UNL     1       5.787   6.774  15.698  0.00  0.00    +0.000 HD
ENDBRANCH  19  21
ENDBRANCH   3  19
TORSDOF 8
ENDMDL
MODEL 8
REMARK VINA RESULT:      -6.0      2.108      4.595
REMARK  Name = 
REMARK  8 active torsions:
REMARK  status: ('A' for Active; 'I' for Inactive)
REMARK    1  A    between atoms: N_1  and  C_2
REMARK    2  A    between atoms: C_2  and  C_3
REMARK    3  A    between atoms: C_3  and  O_5
REMARK    4  A    between atoms: C_7  and  C_8
REMARK    5  A    between atoms: C_7  and  C_11
REMARK    6  A    between atoms: C_8  and  O_10
REMARK    7  A    between atoms: C_13  and  C_14
REMARK    8  A    between atoms: C_14  and  O_16
REMARK                            x       y       z     vdW  Elec       q    Type
REMARK                         _______ _______ _______ _____ _____    ______ ____
ROOT
ATOM      1  C   UNL     1       2.658   6.145  19.331  0.00  0.00    +0.000 C 
ATOM      2  C   UNL     1       2.252   4.884  18.539  0.00  0.00    +0.000 C 
ATOM      3  C   UNL     1       3.796   4.535  18.359  0.00  0.00    +0.000 C 
ATOM      4  C   UNL     1       4.009   5.459  19.612  0.00  0.00    +0.000 C 
ENDROOT
BRANCH   1   5
ATOM      5  N   UNL     1       1.907   6.134  20.601  0.00  0.00    +0.000 NA
ATOM      6  H   UNL     1       0.893   6.076  20.468  0.00  0.00    +0.000 HD
ATOM      7  H   UNL     1       2.051   6.946  21.200  0.00  0.00    +0.000 HD
ENDBRANCH   1   5
BRANCH   3   8
ATOM      8  C   UNL     1       4.371   4.915  16.977  0.00  0.00    +0.000 C 
ATOM      9  C   UNL     1       5.240   3.991  16.161  0.00  0.00    +0.000 C 
ATOM     10  C   UNL     1       5.762   5.348  16.569  0.00  0.00    +0.000 C 
BRANCH  10  11
ATOM     11  C   UNL     1       6.944   5.393  17.457  0.00  0.00    +0.000 C 
ATOM     12  O   UNL     1       7.536   6.429  17.722  0.00  0.00    +0.000 OA
BRANCH  11  13
ATOM     13  O   UNL     1       7.346   4.184  17.906  0.00  0.00    +0.000 OA
ATOM     14  H   UNL     1       8.239   4.176  18.306  0.00  0.00    +0.000 HD
ENDBRANCH  11  13
ENDBRANCH  10  11
ENDBRANCH   3   8
BRANCH   1  15
ATOM     15  C   UNL     1       2.603   7.532  18.577  0.00  0.00    +0.000 C 
ATOM     16  O   UNL     1       3.214   7.825  17.555  0.00  0.00    +0.000 OA
BRANCH  15  17
ATOM     17  O   UNL     1       1.780   8.450  19.153  0.00  0.00    +0.000 OA
ATOM     18  H   UNL     1       1.348   8.146  19.974  0.00  0.00    +0.000 HD
ENDBRANCH  15  17
ENDBRANCH   1  15
BRANCH   3  19
ATOM     19  C   UNL     1       4.056   2.969  18.603  0.00  0.00    +0.000 C 
ATOM     20  O   UNL     1       3.347   2.052  18.198  0.00  0.00    +0.000 OA
BRANCH  19  21
ATOM     21  O   UNL     1       5.184   2.689  19.315  0.00  0.00    +0.000 OA
ATOM     22  H   UNL     1       5.984   3.144  18.991  0.00  0.00    +0.000 HD
ENDBRANCH  19  21
ENDBRANCH   3  19
TORSDOF 8
ENDMDL
MODEL 9
REMARK VINA RESULT:      -5.9      2.084      3.336
REMARK  Name = 
REMARK  8 active torsions:
REMARK  status: ('A' for Active; 'I' for Inactive)
REMARK    1  A    between atoms: N_1  and  C_2
REMARK    2  A    between atoms: C_2  and  C_3
REMARK    3  A    between atoms: C_3  and  O_5
REMARK    4  A    between atoms: C_7  and  C_8
REMARK    5  A    between atoms: C_7  and  C_11
REMARK    6  A    between atoms: C_8  and  O_10
REMARK    7  A    between atoms: C_13  and  C_14
REMARK    8  A    between atoms: C_14  and  O_16
REMARK                            x       y       z     vdW  Elec       q    Type
REMARK                         _______ _______ _______ _____ _____    ______ ____
ROOT
ATOM      1  C   UNL     1       6.433   4.971  17.101  0.00  0.00    +0.000 C 
ATOM      2  C   UNL     1       6.385   4.626  18.604  0.00  0.00    +0.000 C 
ATOM      3  C   UNL     1       4.871   4.163  18.422  0.00  0.00    +0.000 C 
ATOM      4  C   UNL     1       5.248   4.004  16.904  0.00  0.00    +0.000 C 
ENDROOT
BRANCH   1   5
ATOM      5  N   UNL     1       7.619   4.305  16.529  0.00  0.00    +0.000 NA
ATOM      6  H   UNL     1       8.272   4.959  16.088  0.00  0.00    +0.000 HD
ATOM      7  H   UNL     1       7.424   3.604  15.815  0.00  0.00    +0.000 HD
ENDBRANCH   1   5
BRANCH   3   8
ATOM      8  C   UNL     1       3.834   5.209  18.884  0.00  0.00    +0.000 C 
ATOM      9  C   UNL     1       2.963   5.027  20.102  0.00  0.00    +0.000 C 
ATOM     10  C   UNL     1       2.327   5.235  18.748  0.00  0.00    +0.000 C 
BRANCH  10  11
ATOM     11  C   UNL     1       1.494   4.140  18.204  0.00  0.00    +0.000 C 
ATOM     12  O   UNL     1       1.118   4.107  17.041  0.00  0.00    +0.000 OA
BRANCH  11  13
ATOM     13  O   UNL     1       1.138   3.209  19.115  0.00  0.00    +0.000 OA
ATOM     14  H   UNL     1       0.275   3.372  19.547  0.00  0.00    +0.000 HD
ENDBRANCH  11  13
ENDBRANCH  10  11
ENDBRANCH   3   8
BRANCH   1  15
ATOM     15  C   UNL     1       6.304   6.491  16.695  0.00  0.00    +0.000 C 
ATOM     16  O   UNL     1       7.013   7.410  17.094  0.00  0.00    +0.000 OA
BRANCH  15  17
ATOM     17  O   UNL     1       5.302   6.752  15.812  0.00  0.00    +0.000 OA
ATOM     18  H   UNL     1       4.430   6.400  16.075  0.00  0.00    +0.000 HD
ENDBRANCH  15  17
ENDBRANCH   1  15
BRANCH   3  19
ATOM     19  C   UNL     1       4.596   2.793  19.213  0.00  0.00    +0.000 C 
ATOM     20  O   UNL     1       4.980   2.531  20.350  0.00  0.00    +0.000 OA
BRANCH  19  21
ATOM     21  O   UNL     1       3.856   1.881  18.522  0.00  0.00    +0.000 OA
ATOM     22  H   UNL     1       3.294   2.270  17.825  0.00  0.00    +0.000 HD
ENDBRANCH  19  21
ENDBRANCH   3  19
TORSDOF 8
ENDMDL
