MODEL 1
REMARK VINA RESULT:      -6.7      0.000      0.000
REMARK  Name = 
REMARK  14 active torsions:
REMARK  status: ('A' for Active; 'I' for Inactive)
REMARK    1  A    between atoms: C_1  and  C_2
REMARK    2  A    between atoms: C_2  and  C_3
REMARK    3  A    between atoms: C_3  and  C_4
REMARK    4  A    between atoms: C_4  and  C_5
REMARK    5  A    between atoms: C_5  and  C_6
REMARK    6  A    between atoms: C_6  and  C_7
REMARK    7  A    between atoms: C_7  and  C_8
REMARK    8  A    between atoms: C_8  and  C_9
REMARK    9  A    between atoms: C_12  and  C_13
REMARK   10  A    between atoms: C_13  and  O_14
REMARK   11  A    between atoms: O_14  and  C_15
REMARK   12  A    between atoms: C_18  and  C_19
REMARK   13  A    between atoms: C_19  and  O_20
REMARK   14  A    between atoms: O_20  and  C_21
REMARK                            x       y       z     vdW  Elec       q    Type
REMARK                         _______ _______ _______ _____ _____    ______ ____
ROOT
ATOM      1  C   UNL     1       7.690   7.155  18.156  0.00  0.00    +0.000 A 
ATOM      2  C   UNL     1       7.748   5.900  18.783  0.00  0.00    +0.000 A 
ATOM      3  C   UNL     1       6.942   4.851  18.339  0.00  0.00    +0.000 A 
ATOM      4  C   UNL     1       6.046   5.040  17.270  0.00  0.00    +0.000 A 
ATOM      5  C   UNL     1       5.994   6.292  16.638  0.00  0.00    +0.000 A 
ATOM      6  C   UNL     1       6.810   7.341  17.077  0.00  0.00    +0.000 A 
ENDROOT
BRANCH   1   7
ATOM      7  C   UNL     1       8.563   8.294  18.635  0.00  0.00    +0.000 C 
BRANCH   7   8
ATOM      8  C   UNL     1       8.195   9.630  17.973  0.00  0.00    +0.000 C 
BRANCH   8   9
ATOM      9  C   UNL     1       9.187  10.745  18.343  0.00  0.00    +0.000 C 
BRANCH   9  10
ATOM     10  C   UNL     1       9.683  10.601  19.788  0.00  0.00    +0.000 C 
BRANCH  10  11
ATOM     11  C   UNL     1       9.455  11.906  20.565  0.00  0.00    +0.000 C 
BRANCH  11  12
ATOM     12  C   UNL     1      10.559  12.941  20.293  0.00  0.00    +0.000 C 
BRANCH  12  14
ATOM     13  C   UNL     1      10.257  14.309  18.164  0.00  0.00    +0.000 C 
ATOM     14  C   UNL     1       9.960  14.205  19.660  0.00  0.00    +0.000 C 
ENDBRANCH  12  14
ENDBRANCH  11  12
ENDBRANCH  10  11
ENDBRANCH   9  10
ENDBRANCH   8   9
ENDBRANCH   7   8
ENDBRANCH   1   7
BRANCH   4  15
ATOM     15  C   UNL     1       5.154   3.917  16.806  0.00  0.00    +0.000 C 
BRANCH  15  16
ATOM     16  O   UNL     1       3.810   4.352  16.854  0.00  0.00    +0.000 OA
BRANCH  16  17
ATOM     17  C   UNL     1       3.101   3.752  17.917  0.00  0.00    +0.000 C 
ATOM     18  C   UNL     1       3.081   2.242  17.718  0.00  0.00    +0.000 C 
ATOM     19  N   UNL     1       2.057   1.739  18.630  0.00  0.00    +0.000 NA
ATOM     20  C   UNL     1       1.034   2.809  18.673  0.00  0.00    +0.000 C 
ATOM     21  C   UNL     1       1.603   4.012  17.904  0.00  0.00    +0.000 C 
ATOM     22  H   UNL     1       2.522   1.656  19.565  0.00  0.00    +0.000 HD
BRANCH  20  23
ATOM     23  C   UNL     1       0.628   3.152  20.120  0.00  0.00    +0.000 C 
BRANCH  23  24
ATOM     24  O   UNL     1       1.547   2.548  21.006  0.00  0.00    +0.000 OA
ATOM     25  C   UNL     1       2.265   3.540  21.702  0.00  0.00    +0.000 C 
ENDBRANCH  23  24
ENDBRANCH  20  23
ENDBRANCH  16  17
ENDBRANCH  15  16
ENDBRANCH   4  15
TORSDOF 12
ENDMDL
MODEL 2
REMARK VINA RESULT:      -6.7      6.043      9.373
REMARK  Name = 
REMARK  14 active torsions:
REMARK  status: ('A' for Active; 'I' for Inactive)
REMARK    1  A    between atoms: C_1  and  C_2
REMARK    2  A    between atoms: C_2  and  C_3
REMARK    3  A    between atoms: C_3  and  C_4
REMARK    4  A    between atoms: C_4  and  C_5
REMARK    5  A    between atoms: C_5  and  C_6
REMARK    6  A    between atoms: C_6  and  C_7
REMARK    7  A    between atoms: C_7  and  C_8
REMARK    8  A    between atoms: C_8  and  C_9
REMARK    9  A    between atoms: C_12  and  C_13
REMARK   10  A    between atoms: C_13  and  O_14
REMARK   11  A    between atoms: O_14  and  C_15
REMARK   12  A    between atoms: C_18  and  C_19
REMARK   13  A    between atoms: C_19  and  O_20
REMARK   14  A    between atoms: O_20  and  C_21
REMARK                            x       y       z     vdW  Elec       q    Type
REMARK                         _______ _______ _______ _____ _____    ______ ____
ROOT
ATOM      1  C   UNL     1       2.730   7.180  18.510  0.00  0.00    +0.000 A 
ATOM      2  C   UNL     1       2.214   7.126  19.814  0.00  0.00    +0.000 A 
ATOM      3  C   UNL     1       1.452   8.183  20.317  0.00  0.00    +0.000 A 
ATOM      4  C   UNL     1       1.207   9.324  19.530  0.00  0.00    +0.000 A 
ATOM      5  C   UNL     1       1.716   9.373  18.224  0.00  0.00    +0.000 A 
ATOM      6  C   UNL     1       2.470   8.310  17.717  0.00  0.00    +0.000 A 
ENDROOT
BRANCH   1   7
ATOM      7  C   UNL     1       3.554   6.035  17.963  0.00  0.00    +0.000 C 
BRANCH   7   8
ATOM      8  C   UNL     1       4.514   5.454  19.012  0.00  0.00    +0.000 C 
BRANCH   8   9
ATOM      9  C   UNL     1       5.169   4.150  18.529  0.00  0.00    +0.000 C 
BRANCH   9  10
ATOM     10  C   UNL     1       4.213   3.330  17.653  0.00  0.00    +0.000 C 
BRANCH  10  11
ATOM     11  C   UNL     1       3.362   2.392  18.523  0.00  0.00    +0.000 C 
BRANCH  11  12
ATOM     12  C   UNL     1       1.911   2.297  18.024  0.00  0.00    +0.000 C 
BRANCH  12  14
ATOM     13  C   UNL     1       1.112   3.608  20.058  0.00  0.00    +0.000 C 
ATOM     14  C   UNL     1       0.937   2.349  19.209  0.00  0.00    +0.000 C 
ENDBRANCH  12  14
ENDBRANCH  11  12
ENDBRANCH  10  11
ENDBRANCH   9  10
ENDBRANCH   8   9
ENDBRANCH   7   8
ENDBRANCH   1   7
BRANCH   4  15
ATOM     15  C   UNL     1       0.408  10.479  20.080  0.00  0.00    +0.000 C 
BRANCH  15  16
ATOM     16  O   UNL     1      -0.959  10.265  19.794  0.00  0.00    +0.000 OA
BRANCH  16  17
ATOM     17  C   UNL     1      -1.246  10.455  18.424  0.00  0.00    +0.000 C 
ATOM     18  C   UNL     1      -1.364  11.946  18.138  0.00  0.00    +0.000 C 
ATOM     19  N   UNL     1      -1.998  12.044  16.825  0.00  0.00    +0.000 NA
ATOM     20  C   UNL     1      -2.915  10.884  16.762  0.00  0.00    +0.000 C 
ATOM     21  C   UNL     1      -2.641  10.021  18.004  0.00  0.00    +0.000 C 
ATOM     22  H   UNL     1      -1.226  11.925  16.126  0.00  0.00    +0.000 HD
BRANCH  20  23
ATOM     23  C   UNL     1      -2.763  10.107  15.440  0.00  0.00    +0.000 C 
BRANCH  23  24
ATOM     24  O   UNL     1      -3.498  10.773  14.434  0.00  0.00    +0.000 OA
ATOM     25  C   UNL     1      -3.774   9.886  13.374  0.00  0.00    +0.000 C 
ENDBRANCH  23  24
ENDBRANCH  20  23
ENDBRANCH  16  17
ENDBRANCH  15  16
ENDBRANCH   4  15
TORSDOF 12
ENDMDL
MODEL 3
REMARK VINA RESULT:      -6.6      0.904      1.388
REMARK  Name = 
REMARK  14 active torsions:
REMARK  status: ('A' for Active; 'I' for Inactive)
REMARK    1  A    between atoms: C_1  and  C_2
REMARK    2  A    between atoms: C_2  and  C_3
REMARK    3  A    between atoms: C_3  and  C_4
REMARK    4  A    between atoms: C_4  and  C_5
REMARK    5  A    between atoms: C_5  and  C_6
REMARK    6  A    between atoms: C_6  and  C_7
REMARK    7  A    between atoms: C_7  and  C_8
REMARK    8  A    between atoms: C_8  and  C_9
REMARK    9  A    between atoms: C_12  and  C_13
REMARK   10  A    between atoms: C_13  and  O_14
REMARK   11  A    between atoms: O_14  and  C_15
REMARK   12  A    between atoms: C_18  and  C_19
REMARK   13  A    between atoms: C_19  and  O_20
REMARK   14  A    between atoms: O_20  and  C_21
REMARK                            x       y       z     vdW  Elec       q    Type
REMARK                         _______ _______ _______ _____ _____    ______ ____
ROOT
ATOM      1  C   UNL     1       7.546   6.823  17.998  0.00  0.00    +0.000 A 
ATOM      2  C   UNL     1       7.089   6.741  16.674  0.00  0.00    +0.000 A 
ATOM      3  C   UNL     1       6.278   5.678  16.272  0.00  0.00    +0.000 A 
ATOM      4  C   UNL     1       5.925   4.664  17.182  0.00  0.00    +0.000 A 
ATOM      5  C   UNL     1       6.376   4.751  18.507  0.00  0.00    +0.000 A 
ATOM      6  C   UNL     1       7.179   5.823  18.913  0.00  0.00    +0.000 A 
ENDROOT
BRANCH   1   7
ATOM      7  C   UNL     1       8.424   7.975  18.437  0.00  0.00    +0.000 C 
BRANCH   7   8
ATOM      8  C   UNL     1       8.179   9.244  17.607  0.00  0.00    +0.000 C 
BRANCH   8   9
ATOM      9  C   UNL     1       8.426  10.521  18.426  0.00  0.00    +0.000 C 
BRANCH   9  10
ATOM     10  C   UNL     1       9.531  10.315  19.471  0.00  0.00    +0.000 C 
BRANCH  10  11
ATOM     11  C   UNL     1      10.602  11.408  19.340  0.00  0.00    +0.000 C 
BRANCH  11  12
ATOM     12  C   UNL     1      11.022  11.634  17.879  0.00  0.00    +0.000 C 
BRANCH  12  14
ATOM     13  C   UNL     1      12.079  13.934  18.174  0.00  0.00    +0.000 C 
ATOM     14  C   UNL     1      10.952  13.128  17.530  0.00  0.00    +0.000 C 
ENDBRANCH  12  14
ENDBRANCH  11  12
ENDBRANCH  10  11
ENDBRANCH   9  10
ENDBRANCH   8   9
ENDBRANCH   7   8
ENDBRANCH   1   7
BRANCH   4  15
ATOM     15  C   UNL     1       5.073   3.500  16.743  0.00  0.00    +0.000 C 
BRANCH  15  16
ATOM     16  O   UNL     1       3.720   3.908  16.721  0.00  0.00    +0.000 OA
BRANCH  16  17
ATOM     17  C   UNL     1       3.017   3.462  17.862  0.00  0.00    +0.000 C 
ATOM     18  C   UNL     1       2.897   1.945  17.816  0.00  0.00    +0.000 C 
ATOM     19  N   UNL     1       1.881   1.602  18.808  0.00  0.00    +0.000 NA
ATOM     20  C   UNL     1       0.928   2.735  18.777  0.00  0.00    +0.000 C 
ATOM     21  C   UNL     1       1.539   3.817  17.873  0.00  0.00    +0.000 C 
ATOM     22  H   UNL     1       2.377   1.580  19.730  0.00  0.00    +0.000 HD
BRANCH  20  23
ATOM     23  C   UNL     1       0.601   3.243  20.194  0.00  0.00    +0.000 C 
BRANCH  23  24
ATOM     24  O   UNL     1       1.495   2.646  21.110  0.00  0.00    +0.000 OA
ATOM     25  C   UNL     1       2.293   3.635  21.717  0.00  0.00    +0.000 C 
ENDBRANCH  23  24
ENDBRANCH  20  23
ENDBRANCH  16  17
ENDBRANCH  15  16
ENDBRANCH   4  15
TORSDOF 12
ENDMDL
MODEL 4
REMARK VINA RESULT:      -6.5      1.280      1.589
REMARK  Name = 
REMARK  14 active torsions:
REMARK  status: ('A' for Active; 'I' for Inactive)
REMARK    1  A    between atoms: C_1  and  C_2
REMARK    2  A    between atoms: C_2  and  C_3
REMARK    3  A    between atoms: C_3  and  C_4
REMARK    4  A    between atoms: C_4  and  C_5
REMARK    5  A    between atoms: C_5  and  C_6
REMARK    6  A    between atoms: C_6  and  C_7
REMARK    7  A    between atoms: C_7  and  C_8
REMARK    8  A    between atoms: C_8  and  C_9
REMARK    9  A    between atoms: C_12  and  C_13
REMARK   10  A    between atoms: C_13  and  O_14
REMARK   11  A    between atoms: O_14  and  C_15
REMARK   12  A    between atoms: C_18  and  C_19
REMARK   13  A    between atoms: C_19  and  O_20
REMARK   14  A    between atoms: O_20  and  C_21
REMARK                            x       y       z     vdW  Elec       q    Type
REMARK                         _______ _______ _______ _____ _____    ______ ____
ROOT
ATOM      1  C   UNL     1       7.555   7.912  17.789  0.00  0.00    +0.000 A 
ATOM      2  C   UNL     1       8.092   6.882  18.577  0.00  0.00    +0.000 A 
ATOM      3  C   UNL     1       7.483   5.626  18.608  0.00  0.00    +0.000 A 
ATOM      4  C   UNL     1       6.314   5.380  17.865  0.00  0.00    +0.000 A 
ATOM      5  C   UNL     1       5.783   6.407  17.070  0.00  0.00    +0.000 A 
ATOM      6  C   UNL     1       6.399   7.662  17.031  0.00  0.00    +0.000 A 
ENDROOT
BRANCH   1   7
ATOM      7  C   UNL     1       8.214   9.273  17.753  0.00  0.00    +0.000 C 
BRANCH   7   8
ATOM      8  C   UNL     1       9.019   9.566  19.028  0.00  0.00    +0.000 C 
BRANCH   8   9
ATOM      9  C   UNL     1       9.415  11.049  19.127  0.00  0.00    +0.000 C 
BRANCH   9  10
ATOM     10  C   UNL     1      10.508  11.410  18.113  0.00  0.00    +0.000 C 
BRANCH  10  11
ATOM     11  C   UNL     1      10.182  12.744  17.427  0.00  0.00    +0.000 C 
BRANCH  11  12
ATOM     12  C   UNL     1      10.184  13.920  18.417  0.00  0.00    +0.000 C 
BRANCH  12  14
ATOM     13  C   UNL     1       7.679  14.185  18.030  0.00  0.00    +0.000 C 
ATOM     14  C   UNL     1       9.035  14.887  18.097  0.00  0.00    +0.000 C 
ENDBRANCH  12  14
ENDBRANCH  11  12
ENDBRANCH  10  11
ENDBRANCH   9  10
ENDBRANCH   8   9
ENDBRANCH   7   8
ENDBRANCH   1   7
BRANCH   4  15
ATOM     15  C   UNL     1       5.638   4.033  17.918  0.00  0.00    +0.000 C 
BRANCH  15  16
ATOM     16  O   UNL     1       5.349   3.720  19.266  0.00  0.00    +0.000 OA
BRANCH  16  17
ATOM     17  C   UNL     1       4.052   3.181  19.414  0.00  0.00    +0.000 C 
ATOM     18  C   UNL     1       3.927   1.933  18.549  0.00  0.00    +0.000 C 
ATOM     19  N   UNL     1       2.495   1.649  18.478  0.00  0.00    +0.000 NA
ATOM     20  C   UNL     1       1.845   2.979  18.508  0.00  0.00    +0.000 C 
ATOM     21  C   UNL     1       2.945   4.015  18.789  0.00  0.00    +0.000 C 
ATOM     22  H   UNL     1       2.264   1.121  19.353  0.00  0.00    +0.000 HD
BRANCH  20  23
ATOM     23  C   UNL     1       0.692   3.027  19.529  0.00  0.00    +0.000 C 
BRANCH  23  24
ATOM     24  O   UNL     1       1.159   3.634  20.716  0.00  0.00    +0.000 OA
ATOM     25  C   UNL     1       1.310   2.663  21.725  0.00  0.00    +0.000 C 
ENDBRANCH  23  24
ENDBRANCH  20  23
ENDBRANCH  16  17
ENDBRANCH  15  16
ENDBRANCH   4  15
TORSDOF 12
ENDMDL
MODEL 5
REMARK VINA RESULT:      -6.5      5.409      9.018
REMARK  Name = 
REMARK  14 active torsions:
REMARK  status: ('A' for Active; 'I' for Inactive)
REMARK    1  A    between atoms: C_1  and  C_2
REMARK    2  A    between atoms: C_2  and  C_3
REMARK    3  A    between atoms: C_3  and  C_4
REMARK    4  A    between atoms: C_4  and  C_5
REMARK    5  A    between atoms: C_5  and  C_6
REMARK    6  A    between atoms: C_6  and  C_7
REMARK    7  A    between atoms: C_7  and  C_8
REMARK    8  A    between atoms: C_8  and  C_9
REMARK    9  A    between atoms: C_12  and  C_13
REMARK   10  A    between atoms: C_13  and  O_14
REMARK   11  A    between atoms: O_14  and  C_15
REMARK   12  A    between atoms: C_18  and  C_19
REMARK   13  A    between atoms: C_19  and  O_20
REMARK   14  A    between atoms: O_20  and  C_21
REMARK                            x       y       z     vdW  Elec       q    Type
REMARK                         _______ _______ _______ _____ _____    ______ ____
ROOT
ATOM      1  C   UNL     1       4.161   5.608  18.312  0.00  0.00    +0.000 A 
ATOM      2  C   UNL     1       3.155   5.972  19.220  0.00  0.00    +0.000 A 
ATOM      3  C   UNL     1       2.470   7.179  19.069  0.00  0.00    +0.000 A 
ATOM      4  C   UNL     1       2.791   8.056  18.016  0.00  0.00    +0.000 A 
ATOM      5  C   UNL     1       3.792   7.687  17.104  0.00  0.00    +0.000 A 
ATOM      6  C   UNL     1       4.470   6.473  17.250  0.00  0.00    +0.000 A 
ENDROOT
BRANCH   1   7
ATOM      7  C   UNL     1       4.903   4.299  18.474  0.00  0.00    +0.000 C 
BRANCH   7   8
ATOM      8  C   UNL     1       4.402   3.220  17.501  0.00  0.00    +0.000 C 
BRANCH   8   9
ATOM      9  C   UNL     1       3.318   2.335  18.138  0.00  0.00    +0.000 C 
BRANCH   9  10
ATOM     10  C   UNL     1       1.912   2.758  17.693  0.00  0.00    +0.000 C 
BRANCH  10  11
ATOM     11  C   UNL     1       0.868   2.325  18.732  0.00  0.00    +0.000 C 
BRANCH  11  12
ATOM     12  C   UNL     1       0.727   3.347  19.872  0.00  0.00    +0.000 C 
BRANCH  12  14
ATOM     13  C   UNL     1       2.571   3.138  21.619  0.00  0.00    +0.000 C 
ATOM     14  C   UNL     1       1.160   2.720  21.205  0.00  0.00    +0.000 C 
ENDBRANCH  12  14
ENDBRANCH  11  12
ENDBRANCH  10  11
ENDBRANCH   9  10
ENDBRANCH   8   9
ENDBRANCH   7   8
ENDBRANCH   1   7
BRANCH   4  15
ATOM     15  C   UNL     1       2.073   9.373  17.866  0.00  0.00    +0.000 C 
BRANCH  15  16
ATOM     16  O   UNL     1       1.066   9.459  18.854  0.00  0.00    +0.000 OA
BRANCH  16  17
ATOM     17  C   UNL     1       0.028  10.336  18.471  0.00  0.00    +0.000 C 
ATOM     18  C   UNL     1      -0.654  10.880  19.720  0.00  0.00    +0.000 C 
ATOM     19  N   UNL     1      -1.905  11.475  19.255  0.00  0.00    +0.000 NA
ATOM     20  C   UNL     1      -2.321  10.632  18.111  0.00  0.00    +0.000 C 
ATOM     21  C   UNL     1      -1.168   9.656  17.825  0.00  0.00    +0.000 C 
ATOM     22  H   UNL     1      -1.657  12.436  18.916  0.00  0.00    +0.000 HD
BRANCH  20  23
ATOM     23  C   UNL     1      -2.711  11.484  16.887  0.00  0.00    +0.000 C 
BRANCH  23  24
ATOM     24  O   UNL     1      -2.482  10.730  15.715  0.00  0.00    +0.000 OA
ATOM     25  C   UNL     1      -3.710  10.346  15.143  0.00  0.00    +0.000 C 
ENDBRANCH  23  24
ENDBRANCH  20  23
ENDBRANCH  16  17
ENDBRANCH  15  16
ENDBRANCH   4  15
TORSDOF 12
ENDMDL
MODEL 6
REMARK VINA RESULT:      -6.5      5.322      8.726
REMARK  Name = 
REMARK  14 active torsions:
REMARK  status: ('A' for Active; 'I' for Inactive)
REMARK    1  A    between atoms: C_1  and  C_2
REMARK    2  A    between atoms: C_2  and  C_3
REMARK    3  A    between atoms: C_3  and  C_4
REMARK    4  A    between atoms: C_4  and  C_5
REMARK    5  A    between atoms: C_5  and  C_6
REMARK    6  A    between atoms: C_6  and  C_7
REMARK    7  A    between atoms: C_7  and  C_8
REMARK    8  A    between atoms: C_8  and  C_9
REMARK    9  A    between atoms: C_12  and  C_13
REMARK   10  A    between atoms: C_13  and  O_14
REMARK   11  A    between atoms: O_14  and  C_15
REMARK   12  A    between atoms: C_18  and  C_19
REMARK   13  A    between atoms: C_19  and  O_20
REMARK   14  A    between atoms: O_20  and  C_21
REMARK                            x       y       z     vdW  Elec       q    Type
REMARK                         _______ _______ _______ _____ _____    ______ ____
ROOT
ATOM      1  C   UNL     1       3.911   5.470  17.418  0.00  0.00    +0.000 A 
ATOM      2  C   UNL     1       2.681   5.600  18.082  0.00  0.00    +0.000 A 
ATOM      3  C   UNL     1       2.112   6.860  18.274  0.00  0.00    +0.000 A 
ATOM      4  C   UNL     1       2.772   8.018  17.822  0.00  0.00    +0.000 A 
ATOM      5  C   UNL     1       3.997   7.887  17.151  0.00  0.00    +0.000 A 
ATOM      6  C   UNL     1       4.562   6.623  16.949  0.00  0.00    +0.000 A 
ENDROOT
BRANCH   1   7
ATOM      7  C   UNL     1       4.528   4.105  17.208  0.00  0.00    +0.000 C 
BRANCH   7   8
ATOM      8  C   UNL     1       4.140   3.111  18.314  0.00  0.00    +0.000 C 
BRANCH   8   9
ATOM      9  C   UNL     1       3.135   2.061  17.813  0.00  0.00    +0.000 C 
BRANCH   9  10
ATOM     10  C   UNL     1       2.151   1.652  18.917  0.00  0.00    +0.000 C 
BRANCH  10  11
ATOM     11  C   UNL     1       0.820   2.402  18.753  0.00  0.00    +0.000 C 
BRANCH  11  12
ATOM     12  C   UNL     1       0.569   3.391  19.903  0.00  0.00    +0.000 C 
BRANCH  12  14
ATOM     13  C   UNL     1       2.365   4.231  21.503  0.00  0.00    +0.000 C 
ATOM     14  C   UNL     1       1.473   3.058  21.098  0.00  0.00    +0.000 C 
ENDBRANCH  12  14
ENDBRANCH  11  12
ENDBRANCH  10  11
ENDBRANCH   9  10
ENDBRANCH   8   9
ENDBRANCH   7   8
ENDBRANCH   1   7
BRANCH   4  15
ATOM     15  C   UNL     1       2.174   9.383  18.053  0.00  0.00    +0.000 C 
BRANCH  15  16
ATOM     16  O   UNL     1       0.777   9.310  17.848  0.00  0.00    +0.000 OA
BRANCH  16  17
ATOM     17  C   UNL     1       0.058   9.897  18.912  0.00  0.00    +0.000 C 
ATOM     18  C   UNL     1      -0.884  10.957  18.356  0.00  0.00    +0.000 C 
ATOM     19  N   UNL     1      -1.313  11.743  19.510  0.00  0.00    +0.000 NA
ATOM     20  C   UNL     1      -0.145  11.746  20.420  0.00  0.00    +0.000 C 
ATOM     21  C   UNL     1       0.892  10.778  19.828  0.00  0.00    +0.000 C 
ATOM     22  H   UNL     1      -2.101  11.206  19.946  0.00  0.00    +0.000 HD
BRANCH  20  23
ATOM     23  C   UNL     1      -0.547  11.394  21.865  0.00  0.00    +0.000 C 
BRANCH  23  24
ATOM     24  O   UNL     1       0.457  10.577  22.431  0.00  0.00    +0.000 OA
ATOM     25  C   UNL     1      -0.132   9.574  23.226  0.00  0.00    +0.000 C 
ENDBRANCH  23  24
ENDBRANCH  20  23
ENDBRANCH  16  17
ENDBRANCH  15  16
ENDBRANCH   4  15
TORSDOF 12
ENDMDL
MODEL 7
REMARK VINA RESULT:      -6.4      6.233      9.392
REMARK  Name = 
REMARK  14 active torsions:
REMARK  status: ('A' for Active; 'I' for Inactive)
REMARK    1  A    between atoms: C_1  and  C_2
REMARK    2  A    between atoms: C_2  and  C_3
REMARK    3  A    between atoms: C_3  and  C_4
REMARK    4  A    between atoms: C_4  and  C_5
REMARK    5  A    between atoms: C_5  and  C_6
REMARK    6  A    between atoms: C_6  and  C_7
REMARK    7  A    between atoms: C_7  and  C_8
REMARK    8  A    between atoms: C_8  and  C_9
REMARK    9  A    between atoms: C_12  and  C_13
REMARK   10  A    between atoms: C_13  and  O_14
REMARK   11  A    between atoms: O_14  and  C_15
REMARK   12  A    between atoms: C_18  and  C_19
REMARK   13  A    between atoms: C_19  and  O_20
REMARK   14  A    between atoms: O_20  and  C_21
REMARK                            x       y       z     vdW  Elec       q    Type
REMARK                         _______ _______ _______ _____ _____    ______ ____
ROOT
ATOM      1  C   UNL     1       3.650   6.338  18.400  0.00  0.00    +0.000 A 
ATOM      2  C   UNL     1       2.935   6.296  19.607  0.00  0.00    +0.000 A 
ATOM      3  C   UNL     1       2.029   7.309  19.928  0.00  0.00    +0.000 A 
ATOM      4  C   UNL     1       1.834   8.395  19.055  0.00  0.00    +0.000 A 
ATOM      5  C   UNL     1       2.543   8.433  17.844  0.00  0.00    +0.000 A 
ATOM      6  C   UNL     1       3.443   7.412  17.519  0.00  0.00    +0.000 A 
ENDROOT
BRANCH   1   7
ATOM      7  C   UNL     1       4.631   5.241  18.050  0.00  0.00    +0.000 C 
BRANCH   7   8
ATOM      8  C   UNL     1       4.560   4.060  19.031  0.00  0.00    +0.000 C 
BRANCH   8   9
ATOM      9  C   UNL     1       3.854   2.843  18.412  0.00  0.00    +0.000 C 
BRANCH   9  10
ATOM     10  C   UNL     1       2.830   3.265  17.351  0.00  0.00    +0.000 C 
BRANCH  10  11
ATOM     11  C   UNL     1       1.431   3.379  17.973  0.00  0.00    +0.000 C 
BRANCH  11  12
ATOM     12  C   UNL     1       1.263   2.459  19.193  0.00  0.00    +0.000 C 
BRANCH  12  14
ATOM     13  C   UNL     1       1.912   3.028  21.591  0.00  0.00    +0.000 C 
ATOM     14  C   UNL     1       0.937   3.289  20.443  0.00  0.00    +0.000 C 
ENDBRANCH  12  14
ENDBRANCH  11  12
ENDBRANCH  10  11
ENDBRANCH   9  10
ENDBRANCH   8   9
ENDBRANCH   7   8
ENDBRANCH   1   7
BRANCH   4  15
ATOM     15  C   UNL     1       0.878   9.505  19.410  0.00  0.00    +0.000 C 
BRANCH  15  16
ATOM     16  O   UNL     1       0.780   9.590  20.818  0.00  0.00    +0.000 OA
BRANCH  16  17
ATOM     17  C   UNL     1      -0.223  10.498  21.222  0.00  0.00    +0.000 C 
ATOM     18  C   UNL     1       0.313  11.919  21.117  0.00  0.00    +0.000 C 
ATOM     19  N   UNL     1      -0.625  12.749  21.869  0.00  0.00    +0.000 NA
ATOM     20  C   UNL     1      -1.095  11.880  22.971  0.00  0.00    +0.000 C 
ATOM     21  C   UNL     1      -0.538  10.472  22.709  0.00  0.00    +0.000 C 
ATOM     22  H   UNL     1      -1.417  12.951  21.213  0.00  0.00    +0.000 HD
BRANCH  20  23
ATOM     23  C   UNL     1      -2.631  11.908  23.105  0.00  0.00    +0.000 C 
BRANCH  23  24
ATOM     24  O   UNL     1      -3.172  12.579  21.986  0.00  0.00    +0.000 OA
ATOM     25  C   UNL     1      -4.263  13.377  22.386  0.00  0.00    +0.000 C 
ENDBRANCH  23  24
ENDBRANCH  20  23
ENDBRANCH  16  17
ENDBRANCH  15  16
ENDBRANCH   4  15
TORSDOF 12
ENDMDL
MODEL 8
REMARK VINA RESULT:      -6.4      5.492      8.889
REMARK  Name = 
REMARK  14 active torsions:
REMARK  status: ('A' for Active; 'I' for Inactive)
REMARK    1  A    between atoms: C_1  and  C_2
REMARK    2  A    between atoms: C_2  and  C_3
REMARK    3  A    between atoms: C_3  and  C_4
REMARK    4  A    between atoms: C_4  and  C_5
REMARK    5  A    between atoms: C_5  and  C_6
REMARK    6  A    between atoms: C_6  and  C_7
REMARK    7  A    between atoms: C_7  and  C_8
REMARK    8  A    between atoms: C_8  and  C_9
REMARK    9  A    between atoms: C_12  and  C_13
REMARK   10  A    between atoms: C_13  and  O_14
REMARK   11  A    between atoms: O_14  and  C_15
REMARK   12  A    between atoms: C_18  and  C_19
REMARK   13  A    between atoms: C_19  and  O_20
REMARK   14  A    between atoms: O_20  and  C_21
REMARK                            x       y       z     vdW  Elec       q    Type
REMARK                         _______ _______ _______ _____ _____    ______ ____
ROOT
ATOM      1  C   UNL     1       4.044   5.593  18.356  0.00  0.00    +0.000 A 
ATOM      2  C   UNL     1       3.124   6.069  19.303  0.00  0.00    +0.000 A 
ATOM      3  C   UNL     1       2.486   7.296  19.113  0.00  0.00    +0.000 A 
ATOM      4  C   UNL     1       2.769   8.081  17.980  0.00  0.00    +0.000 A 
ATOM      5  C   UNL     1       3.682   7.600  17.029  0.00  0.00    +0.000 A 
ATOM      6  C   UNL     1       4.314   6.365  17.214  0.00  0.00    +0.000 A 
ENDROOT
BRANCH   1   7
ATOM      7  C   UNL     1       4.736   4.262  18.559  0.00  0.00    +0.000 C 
BRANCH   7   8
ATOM      8  C   UNL     1       4.384   3.248  17.460  0.00  0.00    +0.000 C 
BRANCH   8   9
ATOM      9  C   UNL     1       3.354   2.214  17.944  0.00  0.00    +0.000 C 
BRANCH   9  10
ATOM     10  C   UNL     1       1.928   2.778  17.902  0.00  0.00    +0.000 C 
BRANCH  10  11
ATOM     11  C   UNL     1       1.160   2.387  19.173  0.00  0.00    +0.000 C 
BRANCH  11  12
ATOM     12  C   UNL     1       0.769   3.614  20.013  0.00  0.00    +0.000 C 
BRANCH  12  14
ATOM     13  C   UNL     1       2.307   2.442  21.673  0.00  0.00    +0.000 C 
ATOM     14  C   UNL     1       1.732   3.776  21.198  0.00  0.00    +0.000 C 
ENDBRANCH  12  14
ENDBRANCH  11  12
ENDBRANCH  10  11
ENDBRANCH   9  10
ENDBRANCH   8   9
ENDBRANCH   7   8
ENDBRANCH   1   7
BRANCH   4  15
ATOM     15  C   UNL     1       2.103   9.419  17.785  0.00  0.00    +0.000 C 
BRANCH  15  16
ATOM     16  O   UNL     1       0.719   9.280  18.036  0.00  0.00    +0.000 OA
BRANCH  16  17
ATOM     17  C   UNL     1       0.246  10.259  18.937  0.00  0.00    +0.000 C 
ATOM     18  C   UNL     1       1.199  11.448  18.930  0.00  0.00    +0.000 C 
ATOM     19  N   UNL     1       0.852  12.234  20.112  0.00  0.00    +0.000 NA
ATOM     20  C   UNL     1       0.422  11.235  21.116  0.00  0.00    +0.000 C 
ATOM     21  C   UNL     1       0.356   9.875  20.403  0.00  0.00    +0.000 C 
ATOM     22  H   UNL     1       0.036  12.829  19.830  0.00  0.00    +0.000 HD
BRANCH  20  23
ATOM     23  C   UNL     1      -0.909  11.634  21.784  0.00  0.00    +0.000 C 
BRANCH  23  24
ATOM     24  O   UNL     1      -0.639  12.125  23.080  0.00  0.00    +0.000 OA
ATOM     25  C   UNL     1      -1.220  13.398  23.243  0.00  0.00    +0.000 C 
ENDBRANCH  23  24
ENDBRANCH  20  23
ENDBRANCH  16  17
ENDBRANCH  15  16
ENDBRANCH   4  15
TORSDOF 12
ENDMDL
MODEL 9
REMARK VINA RESULT:      -6.4      4.078     10.019
REMARK  Name = 
REMARK  14 active torsions:
REMARK  status: ('A' for Active; 'I' for Inactive)
REMARK    1  A    between atoms: C_1  and  C_2
REMARK    2  A    between atoms: C_2  and  C_3
REMARK    3  A    between atoms: C_3  and  C_4
REMARK    4  A    between atoms: C_4  and  C_5
REMARK    5  A    between atoms: C_5  and  C_6
REMARK    6  A    between atoms: C_6  and  C_7
REMARK    7  A    between atoms: C_7  and  C_8
REMARK    8  A    between atoms: C_8  and  C_9
REMARK    9  A    between atoms: C_12  and  C_13
REMARK   10  A    between atoms: C_13  and  O_14
REMARK   11  A    between atoms: O_14  and  C_15
REMARK   12  A    between atoms: C_18  and  C_19
REMARK   13  A    between atoms: C_19  and  O_20
REMARK   14  A    between atoms: O_20  and  C_21
REMARK                            x       y       z     vdW  Elec       q    Type
REMARK                         _______ _______ _______ _____ _____    ______ ____
ROOT
ATOM      1  C   UNL     1       5.801   5.162  18.199  0.00  0.00    +0.000 A 
ATOM      2  C   UNL     1       7.054   5.275  18.822  0.00  0.00    +0.000 A 
ATOM      3  C   UNL     1       7.813   6.437  18.676  0.00  0.00    +0.000 A 
ATOM      4  C   UNL     1       7.343   7.503  17.886  0.00  0.00    +0.000 A 
ATOM      5  C   UNL     1       6.087   7.393  17.270  0.00  0.00    +0.000 A 
ATOM      6  C   UNL     1       5.322   6.232  17.426  0.00  0.00    +0.000 A 
ENDROOT
BRANCH   1   7
ATOM      7  C   UNL     1       4.976   3.904  18.357  0.00  0.00    +0.000 C 
BRANCH   7   8
ATOM      8  C   UNL     1       3.966   3.720  17.214  0.00  0.00    +0.000 C 
BRANCH   8   9
ATOM      9  C   UNL     1       3.075   2.486  17.429  0.00  0.00    +0.000 C 
BRANCH   9  10
ATOM     10  C   UNL     1       1.818   2.833  18.239  0.00  0.00    +0.000 C 
BRANCH  10  11
ATOM     11  C   UNL     1       1.899   2.217  19.643  0.00  0.00    +0.000 C 
BRANCH  11  12
ATOM     12  C   UNL     1       1.063   3.002  20.667  0.00  0.00    +0.000 C 
BRANCH  12  14
ATOM     13  C   UNL     1       2.412   5.161  20.786  0.00  0.00    +0.000 C 
ATOM     14  C   UNL     1       1.104   4.504  20.348  0.00  0.00    +0.000 C 
ENDBRANCH  12  14
ENDBRANCH  11  12
ENDBRANCH  10  11
ENDBRANCH   9  10
ENDBRANCH   8   9
ENDBRANCH   7   8
ENDBRANCH   1   7
BRANCH   4  15
ATOM     15  C   UNL     1       8.173   8.748  17.702  0.00  0.00    +0.000 C 
BRANCH  15  16
ATOM     16  O   UNL     1       8.858   9.022  18.909  0.00  0.00    +0.000 OA
BRANCH  16  17
ATOM     17  C   UNL     1       9.511  10.274  18.870  0.00  0.00    +0.000 C 
ATOM     18  C   UNL     1       9.327  10.977  20.208  0.00  0.00    +0.000 C 
ATOM     19  N   UNL     1       9.708  12.368  19.975  0.00  0.00    +0.000 NA
ATOM     20  C   UNL     1       9.302  12.641  18.578  0.00  0.00    +0.000 C 
ATOM     21  C   UNL     1       8.851  11.304  17.968  0.00  0.00    +0.000 C 
ATOM     22  H   UNL     1      10.753  12.395  20.053  0.00  0.00    +0.000 HD
BRANCH  20  23
ATOM     23  C   UNL     1      10.429  13.322  17.779  0.00  0.00    +0.000 C 
BRANCH  23  24
ATOM     24  O   UNL     1      10.175  14.710  17.725  0.00  0.00    +0.000 OA
ATOM     25  C   UNL     1      11.089  15.399  18.546  0.00  0.00    +0.000 C 
ENDBRANCH  23  24
ENDBRANCH  20  23
ENDBRANCH  16  17
ENDBRANCH  15  16
ENDBRANCH   4  15
TORSDOF 12
ENDMDL
