MODEL 1
REMARK VINA RESULT:      -7.9      0.000      0.000
REMARK  Name = 
REMARK  14 active torsions:
REMARK  status: ('A' for Active; 'I' for Inactive)
REMARK    1  A    between atoms: C_1  and  O_2
REMARK    2  A    between atoms: O_2  and  C_3
REMARK    3  A    between atoms: C_6  and  C_7
REMARK    4  A    between atoms: C_8  and  O_9
REMARK    5  A    between atoms: O_9  and  C_10
REMARK    6  A    between atoms: C_10  and  C_11
REMARK    7  A    between atoms: C_11  and  C_13
REMARK    8  A    between atoms: C_13  and  C_14
REMARK    9  A    between atoms: C_13  and  N_18
REMARK   10  A    between atoms: C_14  and  C_15
REMARK   11  A    between atoms: C_15  and  O_17
REMARK   12  A    between atoms: C_19  and  O_21
REMARK   13  A    between atoms: O_21  and  C_22
REMARK   14  A    between atoms: C_22  and  C_23
REMARK                            x       y       z     vdW  Elec       q    Type
REMARK                         _______ _______ _______ _____ _____    ______ ____
ROOT
ATOM      1  C   UNL     1       1.539   7.334  20.498  0.00  0.00    +0.000 C 
ATOM      2  O   UNL     1       0.697   6.600  21.032  0.00  0.00    +0.000 OA
ENDROOT
BRANCH   1   3
ATOM      3  C   UNL     1       2.469   6.793  19.424  0.00  0.00    +0.000 C 
BRANCH   3   4
ATOM      4  O   UNL     1       3.368   5.893  20.050  0.00  0.00    +0.000 OA
BRANCH   4   6
ATOM      5  C   UNL     1       3.817   3.814  18.965  0.00  0.00    +0.000 C 
ATOM      6  C   UNL     1       3.176   4.548  19.882  0.00  0.00    +0.000 C 
ATOM      7  C   UNL     1       2.220   3.743  20.665  0.00  0.00    +0.000 C 
ATOM      8  O   UNL     1       2.356   2.429  20.134  0.00  0.00    +0.000 OA
ATOM      9  C   UNL     1       3.285   2.443  19.134  0.00  0.00    +0.000 C 
ATOM     10  O   UNL     1       3.613   1.459  18.494  0.00  0.00    +0.000 OA
BRANCH   5  14
ATOM     11  C   UNL     1       6.733   5.091  16.073  0.00  0.00    +0.000 A 
ATOM     12  C   UNL     1       5.437   4.779  15.677  0.00  0.00    +0.000 A 
ATOM     13  C   UNL     1       4.484   4.391  16.621  0.00  0.00    +0.000 A 
ATOM     14  C   UNL     1       4.815   4.259  17.981  0.00  0.00    +0.000 A 
ATOM     15  C   UNL     1       6.129   4.559  18.360  0.00  0.00    +0.000 A 
ATOM     16  C   UNL     1       7.080   4.977  17.417  0.00  0.00    +0.000 A 
BRANCH  11  18
ATOM     17  C   UNL     1       7.267   4.910  13.786  0.00  0.00    +0.000 C 
ATOM     18  O   UNL     1       7.577   5.455  15.062  0.00  0.00    +0.000 OA
ENDBRANCH  11  18
ENDBRANCH   5  14
ENDBRANCH   4   6
ENDBRANCH   3   4
ENDBRANCH   1   3
BRANCH   1  19
ATOM     19  C   UNL     1       1.616   8.827  20.877  0.00  0.00    +0.000 C 
BRANCH  19  20
ATOM     20  N   UNL     1       0.717   9.698  20.132  0.00  0.00    +0.000 N 
ATOM     21  C   UNL     1       0.990  10.201  18.901  0.00  0.00    +0.000 C 
ATOM     22  O   UNL     1       2.018   9.988  18.276  0.00  0.00    +0.000 OA
ATOM     23  H   UNL     1      -0.107  10.089  20.569  0.00  0.00    +0.000 HD
BRANCH  21  24
ATOM     24  O   UNL     1      -0.017  11.028  18.541  0.00  0.00    +0.000 OA
BRANCH  24  25
ATOM     25  C   UNL     1      -1.340  10.582  18.859  0.00  0.00    +0.000 C 
BRANCH  25  26
ATOM     26  C   UNL     1      -2.271  10.645  17.675  0.00  0.00    +0.000 A 
ATOM     27  C   UNL     1      -2.062   9.818  16.561  0.00  0.00    +0.000 A 
ATOM     28  C   UNL     1      -2.960   9.821  15.491  0.00  0.00    +0.000 A 
ATOM     29  C   UNL     1      -4.081  10.647  15.525  0.00  0.00    +0.000 A 
ATOM     30  C   UNL     1      -4.305  11.464  16.631  0.00  0.00    +0.000 A 
ATOM     31  C   UNL     1      -3.401  11.470  17.698  0.00  0.00    +0.000 A 
ENDBRANCH  25  26
ENDBRANCH  24  25
ENDBRANCH  21  24
ENDBRANCH  19  20
BRANCH  19  32
ATOM     32  C   UNL     1       1.462   8.983  22.398  0.00  0.00    +0.000 C 
BRANCH  32  33
ATOM     33  C   UNL     1       0.116   9.554  22.766  0.00  0.00    +0.000 C 
ATOM     34  O   UNL     1      -0.084  10.718  23.077  0.00  0.00    +0.000 OA
BRANCH  33  35
ATOM     35  O   UNL     1      -0.875   8.637  22.729  0.00  0.00    +0.000 OA
ATOM     36  H   UNL     1      -1.586   8.781  23.383  0.00  0.00    +0.000 HD
ENDBRANCH  33  35
ENDBRANCH  32  33
ENDBRANCH  19  32
ENDBRANCH   1  19
TORSDOF 13
ENDMDL
MODEL 2
REMARK VINA RESULT:      -7.7      1.227      1.670
REMARK  Name = 
REMARK  14 active torsions:
REMARK  status: ('A' for Active; 'I' for Inactive)
REMARK    1  A    between atoms: C_1  and  O_2
REMARK    2  A    between atoms: O_2  and  C_3
REMARK    3  A    between atoms: C_6  and  C_7
REMARK    4  A    between atoms: C_8  and  O_9
REMARK    5  A    between atoms: O_9  and  C_10
REMARK    6  A    between atoms: C_10  and  C_11
REMARK    7  A    between atoms: C_11  and  C_13
REMARK    8  A    between atoms: C_13  and  C_14
REMARK    9  A    between atoms: C_13  and  N_18
REMARK   10  A    between atoms: C_14  and  C_15
REMARK   11  A    between atoms: C_15  and  O_17
REMARK   12  A    between atoms: C_19  and  O_21
REMARK   13  A    between atoms: O_21  and  C_22
REMARK   14  A    between atoms: C_22  and  C_23
REMARK                            x       y       z     vdW  Elec       q    Type
REMARK                         _______ _______ _______ _____ _____    ______ ____
ROOT
ATOM      1  C   UNL     1       1.802   7.944  19.785  0.00  0.00    +0.000 C 
ATOM      2  O   UNL     1       2.209   8.093  18.626  0.00  0.00    +0.000 OA
ENDROOT
BRANCH   1   3
ATOM      3  C   UNL     1       1.884   6.587  20.467  0.00  0.00    +0.000 C 
BRANCH   3   4
ATOM      4  O   UNL     1       2.513   5.693  19.566  0.00  0.00    +0.000 OA
BRANCH   4   6
ATOM      5  C   UNL     1       4.028   3.847  19.562  0.00  0.00    +0.000 C 
ATOM      6  C   UNL     1       2.952   4.484  20.037  0.00  0.00    +0.000 C 
ATOM      7  C   UNL     1       2.280   3.717  21.103  0.00  0.00    +0.000 C 
ATOM      8  O   UNL     1       3.074   2.542  21.237  0.00  0.00    +0.000 OA
ATOM      9  C   UNL     1       4.105   2.592  20.344  0.00  0.00    +0.000 C 
ATOM     10  O   UNL     1       4.951   1.723  20.229  0.00  0.00    +0.000 OA
BRANCH   5  14
ATOM     11  C   UNL     1       6.682   5.064  16.404  0.00  0.00    +0.000 A 
ATOM     12  C   UNL     1       5.579   4.263  16.128  0.00  0.00    +0.000 A 
ATOM     13  C   UNL     1       4.704   3.892  17.151  0.00  0.00    +0.000 A 
ATOM     14  C   UNL     1       4.934   4.272  18.484  0.00  0.00    +0.000 A 
ATOM     15  C   UNL     1       6.059   5.064  18.747  0.00  0.00    +0.000 A 
ATOM     16  C   UNL     1       6.923   5.462  17.716  0.00  0.00    +0.000 A 
BRANCH  11  18
ATOM     17  C   UNL     1       7.028   4.820  14.087  0.00  0.00    +0.000 C 
ATOM     18  O   UNL     1       7.468   5.361  15.326  0.00  0.00    +0.000 OA
ENDBRANCH  11  18
ENDBRANCH   5  14
ENDBRANCH   4   6
ENDBRANCH   3   4
ENDBRANCH   1   3
BRANCH   1  19
ATOM     19  C   UNL     1       1.257   9.151  20.576  0.00  0.00    +0.000 C 
BRANCH  19  20
ATOM     20  N   UNL     1       0.540  10.136  19.778  0.00  0.00    +0.000 N 
ATOM     21  C   UNL     1       0.517  11.466  20.051  0.00  0.00    +0.000 C 
ATOM     22  O   UNL     1       1.088  11.992  20.994  0.00  0.00    +0.000 OA
ATOM     23  H   UNL     1      -0.102   9.848  19.052  0.00  0.00    +0.000 HD
BRANCH  21  24
ATOM     24  O   UNL     1      -0.301  12.074  19.164  0.00  0.00    +0.000 OA
BRANCH  24  25
ATOM     25  C   UNL     1      -0.746  11.269  18.066  0.00  0.00    +0.000 C 
BRANCH  25  26
ATOM     26  C   UNL     1      -2.242  11.310  17.888  0.00  0.00    +0.000 A 
ATOM     27  C   UNL     1      -3.063  11.845  18.893  0.00  0.00    +0.000 A 
ATOM     28  C   UNL     1      -4.444  11.950  18.706  0.00  0.00    +0.000 A 
ATOM     29  C   UNL     1      -5.019  11.527  17.510  0.00  0.00    +0.000 A 
ATOM     30  C   UNL     1      -4.213  11.004  16.501  0.00  0.00    +0.000 A 
ATOM     31  C   UNL     1      -2.832  10.888  16.691  0.00  0.00    +0.000 A 
ENDBRANCH  25  26
ENDBRANCH  24  25
ENDBRANCH  21  24
ENDBRANCH  19  20
BRANCH  19  32
ATOM     32  C   UNL     1       0.435   8.653  21.776  0.00  0.00    +0.000 C 
BRANCH  32  33
ATOM     33  C   UNL     1       0.892   9.287  23.065  0.00  0.00    +0.000 C 
ATOM     34  O   UNL     1       0.145   9.712  23.934  0.00  0.00    +0.000 OA
BRANCH  33  35
ATOM     35  O   UNL     1       2.236   9.354  23.175  0.00  0.00    +0.000 OA
ATOM     36  H   UNL     1       2.616   8.783  23.869  0.00  0.00    +0.000 HD
ENDBRANCH  33  35
ENDBRANCH  32  33
ENDBRANCH  19  32
ENDBRANCH   1  19
TORSDOF 13
ENDMDL
MODEL 3
REMARK VINA RESULT:      -7.6      4.095      8.548
REMARK  Name = 
REMARK  14 active torsions:
REMARK  status: ('A' for Active; 'I' for Inactive)
REMARK    1  A    between atoms: C_1  and  O_2
REMARK    2  A    between atoms: O_2  and  C_3
REMARK    3  A    between atoms: C_6  and  C_7
REMARK    4  A    between atoms: C_8  and  O_9
REMARK    5  A    between atoms: O_9  and  C_10
REMARK    6  A    between atoms: C_10  and  C_11
REMARK    7  A    between atoms: C_11  and  C_13
REMARK    8  A    between atoms: C_13  and  C_14
REMARK    9  A    between atoms: C_13  and  N_18
REMARK   10  A    between atoms: C_14  and  C_15
REMARK   11  A    between atoms: C_15  and  O_17
REMARK   12  A    between atoms: C_19  and  O_21
REMARK   13  A    between atoms: O_21  and  C_22
REMARK   14  A    between atoms: C_22  and  C_23
REMARK                            x       y       z     vdW  Elec       q    Type
REMARK                         _______ _______ _______ _____ _____    ______ ____
ROOT
ATOM      1  C   UNL     1       5.861   5.569  18.248  0.00  0.00    +0.000 C 
ATOM      2  O   UNL     1       5.363   6.326  19.090  0.00  0.00    +0.000 OA
ENDROOT
BRANCH   1   3
ATOM      3  C   UNL     1       5.881   4.065  18.472  0.00  0.00    +0.000 C 
BRANCH   3   4
ATOM      4  O   UNL     1       4.914   3.767  19.463  0.00  0.00    +0.000 OA
BRANCH   4   6
ATOM      5  C   UNL     1       2.585   3.807  18.935  0.00  0.00    +0.000 C 
ATOM      6  C   UNL     1       3.747   3.160  19.082  0.00  0.00    +0.000 C 
ATOM      7  C   UNL     1       3.613   1.715  18.817  0.00  0.00    +0.000 C 
ATOM      8  O   UNL     1       2.240   1.550  18.478  0.00  0.00    +0.000 OA
ATOM      9  C   UNL     1       1.614   2.761  18.541  0.00  0.00    +0.000 C 
ATOM     10  O   UNL     1       0.431   2.931  18.301  0.00  0.00    +0.000 OA
BRANCH   5  14
ATOM     11  C   UNL     1       1.751   7.981  19.544  0.00  0.00    +0.000 A 
ATOM     12  C   UNL     1       1.689   7.088  20.608  0.00  0.00    +0.000 A 
ATOM     13  C   UNL     1       1.986   5.737  20.414  0.00  0.00    +0.000 A 
ATOM     14  C   UNL     1       2.309   5.236  19.141  0.00  0.00    +0.000 A 
ATOM     15  C   UNL     1       2.349   6.147  18.077  0.00  0.00    +0.000 A 
ATOM     16  C   UNL     1       2.079   7.509  18.276  0.00  0.00    +0.000 A 
BRANCH  11  18
ATOM     17  C   UNL     1       0.499   9.896  18.983  0.00  0.00    +0.000 C 
ATOM     18  O   UNL     1       1.437   9.275  19.853  0.00  0.00    +0.000 OA
ENDBRANCH  11  18
ENDBRANCH   5  14
ENDBRANCH   4   6
ENDBRANCH   3   4
ENDBRANCH   1   3
BRANCH   1  19
ATOM     19  C   UNL     1       6.418   6.139  16.927  0.00  0.00    +0.000 C 
BRANCH  19  20
ATOM     20  N   UNL     1       6.970   7.483  17.021  0.00  0.00    +0.000 N 
ATOM     21  C   UNL     1       7.919   7.856  17.919  0.00  0.00    +0.000 C 
ATOM     22  O   UNL     1       8.417   7.114  18.751  0.00  0.00    +0.000 OA
ATOM     23  H   UNL     1       6.561   8.250  16.504  0.00  0.00    +0.000 HD
BRANCH  21  24
ATOM     24  O   UNL     1       8.142   9.182  17.784  0.00  0.00    +0.000 OA
BRANCH  24  25
ATOM     25  C   UNL     1       8.913   9.798  18.821  0.00  0.00    +0.000 C 
BRANCH  25  26
ATOM     26  C   UNL     1       9.570  11.078  18.370  0.00  0.00    +0.000 A 
ATOM     27  C   UNL     1      10.966  11.158  18.255  0.00  0.00    +0.000 A 
ATOM     28  C   UNL     1      11.578  12.318  17.771  0.00  0.00    +0.000 A 
ATOM     29  C   UNL     1      10.799  13.408  17.391  0.00  0.00    +0.000 A 
ATOM     30  C   UNL     1       9.411  13.336  17.490  0.00  0.00    +0.000 A 
ATOM     31  C   UNL     1       8.799  12.180  17.984  0.00  0.00    +0.000 A 
ENDBRANCH  25  26
ENDBRANCH  24  25
ENDBRANCH  21  24
ENDBRANCH  19  20
BRANCH  19  32
ATOM     32  C   UNL     1       7.407   5.138  16.308  0.00  0.00    +0.000 C 
BRANCH  32  33
ATOM     33  C   UNL     1       7.025   4.777  14.895  0.00  0.00    +0.000 C 
ATOM     34  O   UNL     1       6.195   3.933  14.594  0.00  0.00    +0.000 OA
BRANCH  33  35
ATOM     35  O   UNL     1       7.704   5.484  13.966  0.00  0.00    +0.000 OA
ATOM     36  H   UNL     1       8.622   5.704  14.215  0.00  0.00    +0.000 HD
ENDBRANCH  33  35
ENDBRANCH  32  33
ENDBRANCH  19  32
ENDBRANCH   1  19
TORSDOF 13
ENDMDL
MODEL 4
REMARK VINA RESULT:      -7.6      2.000      2.874
REMARK  Name = 
REMARK  14 active torsions:
REMARK  status: ('A' for Active; 'I' for Inactive)
REMARK    1  A    between atoms: C_1  and  O_2
REMARK    2  A    between atoms: O_2  and  C_3
REMARK    3  A    between atoms: C_6  and  C_7
REMARK    4  A    between atoms: C_8  and  O_9
REMARK    5  A    between atoms: O_9  and  C_10
REMARK    6  A    between atoms: C_10  and  C_11
REMARK    7  A    between atoms: C_11  and  C_13
REMARK    8  A    between atoms: C_13  and  C_14
REMARK    9  A    between atoms: C_13  and  N_18
REMARK   10  A    between atoms: C_14  and  C_15
REMARK   11  A    between atoms: C_15  and  O_17
REMARK   12  A    between atoms: C_19  and  O_21
REMARK   13  A    between atoms: O_21  and  C_22
REMARK   14  A    between atoms: C_22  and  C_23
REMARK                            x       y       z     vdW  Elec       q    Type
REMARK                         _______ _______ _______ _____ _____    ______ ____
ROOT
ATOM      1  C   UNL     1       1.701   7.700  20.130  0.00  0.00    +0.000 C 
ATOM      2  O   UNL     1       2.473   7.667  19.163  0.00  0.00    +0.000 OA
ENDROOT
BRANCH   1   3
ATOM      3  C   UNL     1       1.242   6.415  20.800  0.00  0.00    +0.000 C 
BRANCH   3   4
ATOM      4  O   UNL     1       2.370   5.566  20.915  0.00  0.00    +0.000 OA
BRANCH   4   6
ATOM      5  C   UNL     1       3.069   3.888  19.366  0.00  0.00    +0.000 C 
ATOM      6  C   UNL     1       2.303   4.307  20.380  0.00  0.00    +0.000 C 
ATOM      7  C   UNL     1       1.362   3.264  20.830  0.00  0.00    +0.000 C 
ATOM      8  O   UNL     1       1.646   2.153  19.985  0.00  0.00    +0.000 OA
ATOM      9  C   UNL     1       2.642   2.493  19.116  0.00  0.00    +0.000 C 
ATOM     10  O   UNL     1       3.096   1.741  18.272  0.00  0.00    +0.000 OA
BRANCH   5  14
ATOM     11  C   UNL     1       6.070   6.113  17.236  0.00  0.00    +0.000 A 
ATOM     12  C   UNL     1       6.285   5.723  18.553  0.00  0.00    +0.000 A 
ATOM     13  C   UNL     1       5.320   4.977  19.234  0.00  0.00    +0.000 A 
ATOM     14  C   UNL     1       4.096   4.642  18.631  0.00  0.00    +0.000 A 
ATOM     15  C   UNL     1       3.889   5.059  17.310  0.00  0.00    +0.000 A 
ATOM     16  C   UNL     1       4.868   5.783  16.615  0.00  0.00    +0.000 A 
BRANCH  11  18
ATOM     17  C   UNL     1       7.700   7.787  17.535  0.00  0.00    +0.000 C 
ATOM     18  O   UNL     1       7.081   6.840  16.673  0.00  0.00    +0.000 OA
ENDBRANCH  11  18
ENDBRANCH   5  14
ENDBRANCH   4   6
ENDBRANCH   3   4
ENDBRANCH   1   3
BRANCH   1  19
ATOM     19  C   UNL     1       1.238   9.055  20.705  0.00  0.00    +0.000 C 
BRANCH  19  20
ATOM     20  N   UNL     1      -0.045   9.530  20.205  0.00  0.00    +0.000 N 
ATOM     21  C   UNL     1      -0.191  10.587  19.366  0.00  0.00    +0.000 C 
ATOM     22  O   UNL     1       0.729  11.265  18.936  0.00  0.00    +0.000 OA
ATOM     23  H   UNL     1      -0.913   9.172  20.581  0.00  0.00    +0.000 HD
BRANCH  21  24
ATOM     24  O   UNL     1      -1.511  10.801  19.169  0.00  0.00    +0.000 OA
BRANCH  24  25
ATOM     25  C   UNL     1      -1.931  12.169  19.156  0.00  0.00    +0.000 C 
BRANCH  25  26
ATOM     26  C   UNL     1      -2.884  12.492  20.279  0.00  0.00    +0.000 A 
ATOM     27  C   UNL     1      -4.259  12.627  20.028  0.00  0.00    +0.000 A 
ATOM     28  C   UNL     1      -5.157  12.856  21.074  0.00  0.00    +0.000 A 
ATOM     29  C   UNL     1      -4.691  12.946  22.383  0.00  0.00    +0.000 A 
ATOM     30  C   UNL     1      -3.331  12.803  22.646  0.00  0.00    +0.000 A 
ATOM     31  C   UNL     1      -2.430  12.584  21.599  0.00  0.00    +0.000 A 
ENDBRANCH  25  26
ENDBRANCH  24  25
ENDBRANCH  21  24
ENDBRANCH  19  20
BRANCH  19  32
ATOM     32  C   UNL     1       1.292   9.009  22.241  0.00  0.00    +0.000 C 
BRANCH  32  33
ATOM     33  C   UNL     1      -0.008   9.460  22.857  0.00  0.00    +0.000 C 
ATOM     34  O   UNL     1      -0.214  10.579  23.304  0.00  0.00    +0.000 OA
BRANCH  33  35
ATOM     35  O   UNL     1      -0.948   8.491  22.881  0.00  0.00    +0.000 OA
ATOM     36  H   UNL     1      -0.926   7.924  23.675  0.00  0.00    +0.000 HD
ENDBRANCH  33  35
ENDBRANCH  32  33
ENDBRANCH  19  32
ENDBRANCH   1  19
TORSDOF 13
ENDMDL
MODEL 5
REMARK VINA RESULT:      -7.6      1.160      1.689
REMARK  Name = 
REMARK  14 active torsions:
REMARK  status: ('A' for Active; 'I' for Inactive)
REMARK    1  A    between atoms: C_1  and  O_2
REMARK    2  A    between atoms: O_2  and  C_3
REMARK    3  A    between atoms: C_6  and  C_7
REMARK    4  A    between atoms: C_8  and  O_9
REMARK    5  A    between atoms: O_9  and  C_10
REMARK    6  A    between atoms: C_10  and  C_11
REMARK    7  A    between atoms: C_11  and  C_13
REMARK    8  A    between atoms: C_13  and  C_14
REMARK    9  A    between atoms: C_13  and  N_18
REMARK   10  A    between atoms: C_14  and  C_15
REMARK   11  A    between atoms: C_15  and  O_17
REMARK   12  A    between atoms: C_19  and  O_21
REMARK   13  A    between atoms: O_21  and  C_22
REMARK   14  A    between atoms: C_22  and  C_23
REMARK                            x       y       z     vdW  Elec       q    Type
REMARK                         _______ _______ _______ _____ _____    ______ ____
ROOT
ATOM      1  C   UNL     1       1.587   7.265  20.502  0.00  0.00    +0.000 C 
ATOM      2  O   UNL     1       0.682   6.536  20.927  0.00  0.00    +0.000 OA
ENDROOT
BRANCH   1   3
ATOM      3  C   UNL     1       2.715   6.690  19.659  0.00  0.00    +0.000 C 
BRANCH   3   4
ATOM      4  O   UNL     1       2.308   5.406  19.220  0.00  0.00    +0.000 OA
BRANCH   4   6
ATOM      5  C   UNL     1       3.952   3.701  19.523  0.00  0.00    +0.000 C 
ATOM      6  C   UNL     1       2.807   4.303  19.861  0.00  0.00    +0.000 C 
ATOM      7  C   UNL     1       2.132   3.621  20.982  0.00  0.00    +0.000 C 
ATOM      8  O   UNL     1       3.001   2.538  21.301  0.00  0.00    +0.000 OA
ATOM      9  C   UNL     1       4.075   2.561  20.459  0.00  0.00    +0.000 C 
ATOM     10  O   UNL     1       4.987   1.754  20.497  0.00  0.00    +0.000 OA
BRANCH   5  14
ATOM     11  C   UNL     1       6.684   4.729  16.364  0.00  0.00    +0.000 A 
ATOM     12  C   UNL     1       5.570   3.940  16.103  0.00  0.00    +0.000 A 
ATOM     13  C   UNL     1       4.669   3.630  17.124  0.00  0.00    +0.000 A 
ATOM     14  C   UNL     1       4.885   4.061  18.444  0.00  0.00    +0.000 A 
ATOM     15  C   UNL     1       6.022   4.840  18.693  0.00  0.00    +0.000 A 
ATOM     16  C   UNL     1       6.912   5.176  17.663  0.00  0.00    +0.000 A 
BRANCH  11  18
ATOM     17  C   UNL     1       6.866   4.849  14.019  0.00  0.00    +0.000 C 
ATOM     18  O   UNL     1       7.495   4.964  15.289  0.00  0.00    +0.000 OA
ENDBRANCH  11  18
ENDBRANCH   5  14
ENDBRANCH   4   6
ENDBRANCH   3   4
ENDBRANCH   1   3
BRANCH   1  19
ATOM     19  C   UNL     1       1.551   8.784  20.774  0.00  0.00    +0.000 C 
BRANCH  19  20
ATOM     20  N   UNL     1       0.558   9.523  20.007  0.00  0.00    +0.000 N 
ATOM     21  C   UNL     1       0.753   9.970  18.739  0.00  0.00    +0.000 C 
ATOM     22  O   UNL     1       1.780   9.810  18.097  0.00  0.00    +0.000 OA
ATOM     23  H   UNL     1      -0.287   9.865  20.444  0.00  0.00    +0.000 HD
BRANCH  21  24
ATOM     24  O   UNL     1      -0.333  10.679  18.361  0.00  0.00    +0.000 OA
BRANCH  24  25
ATOM     25  C   UNL     1      -0.785  11.676  19.284  0.00  0.00    +0.000 C 
BRANCH  25  26
ATOM     26  C   UNL     1      -2.282  11.851  19.258  0.00  0.00    +0.000 A 
ATOM     27  C   UNL     1      -2.932  12.570  20.273  0.00  0.00    +0.000 A 
ATOM     28  C   UNL     1      -4.310  12.797  20.218  0.00  0.00    +0.000 A 
ATOM     29  C   UNL     1      -5.052  12.312  19.144  0.00  0.00    +0.000 A 
ATOM     30  C   UNL     1      -4.417  11.606  18.125  0.00  0.00    +0.000 A 
ATOM     31  C   UNL     1      -3.040  11.369  18.184  0.00  0.00    +0.000 A 
ENDBRANCH  25  26
ENDBRANCH  24  25
ENDBRANCH  21  24
ENDBRANCH  19  20
BRANCH  19  32
ATOM     32  C   UNL     1       1.434   9.035  22.286  0.00  0.00    +0.000 C 
BRANCH  32  33
ATOM     33  C   UNL     1       0.066   9.545  22.661  0.00  0.00    +0.000 C 
ATOM     34  O   UNL     1      -0.190  10.706  22.944  0.00  0.00    +0.000 OA
BRANCH  33  35
ATOM     35  O   UNL     1      -0.878   8.578  22.665  0.00  0.00    +0.000 OA
ATOM     36  H   UNL     1      -1.640   8.753  22.081  0.00  0.00    +0.000 HD
ENDBRANCH  33  35
ENDBRANCH  32  33
ENDBRANCH  19  32
ENDBRANCH   1  19
TORSDOF 13
ENDMDL
MODEL 6
REMARK VINA RESULT:      -7.5      4.292      8.650
REMARK  Name = 
REMARK  14 active torsions:
REMARK  status: ('A' for Active; 'I' for Inactive)
REMARK    1  A    between atoms: C_1  and  O_2
REMARK    2  A    between atoms: O_2  and  C_3
REMARK    3  A    between atoms: C_6  and  C_7
REMARK    4  A    between atoms: C_8  and  O_9
REMARK    5  A    between atoms: O_9  and  C_10
REMARK    6  A    between atoms: C_10  and  C_11
REMARK    7  A    between atoms: C_11  and  C_13
REMARK    8  A    between atoms: C_13  and  C_14
REMARK    9  A    between atoms: C_13  and  N_18
REMARK   10  A    between atoms: C_14  and  C_15
REMARK   11  A    between atoms: C_15  and  O_17
REMARK   12  A    between atoms: C_19  and  O_21
REMARK   13  A    between atoms: O_21  and  C_22
REMARK   14  A    between atoms: C_22  and  C_23
REMARK                            x       y       z     vdW  Elec       q    Type
REMARK                         _______ _______ _______ _____ _____    ______ ____
ROOT
ATOM      1  C   UNL     1       6.638   5.185  18.699  0.00  0.00    +0.000 C 
ATOM      2  O   UNL     1       7.066   5.445  19.831  0.00  0.00    +0.000 OA
ENDROOT
BRANCH   1   3
ATOM      3  C   UNL     1       5.929   3.868  18.422  0.00  0.00    +0.000 C 
BRANCH   3   4
ATOM      4  O   UNL     1       4.961   3.682  19.439  0.00  0.00    +0.000 OA
BRANCH   4   6
ATOM      5  C   UNL     1       2.610   3.699  19.019  0.00  0.00    +0.000 C 
ATOM      6  C   UNL     1       3.782   3.062  19.121  0.00  0.00    +0.000 C 
ATOM      7  C   UNL     1       3.647   1.613  18.880  0.00  0.00    +0.000 C 
ATOM      8  O   UNL     1       2.261   1.434  18.606  0.00  0.00    +0.000 OA
ATOM      9  C   UNL     1       1.629   2.642  18.683  0.00  0.00    +0.000 C 
ATOM     10  O   UNL     1       0.436   2.800  18.495  0.00  0.00    +0.000 OA
BRANCH   5  14
ATOM     11  C   UNL     1       1.825   7.887  19.600  0.00  0.00    +0.000 A 
ATOM     12  C   UNL     1       2.354   7.429  18.398  0.00  0.00    +0.000 A 
ATOM     13  C   UNL     1       2.582   6.066  18.202  0.00  0.00    +0.000 A 
ATOM     14  C   UNL     1       2.332   5.129  19.219  0.00  0.00    +0.000 A 
ATOM     15  C   UNL     1       1.817   5.610  20.429  0.00  0.00    +0.000 A 
ATOM     16  C   UNL     1       1.560   6.975  20.618  0.00  0.00    +0.000 A 
BRANCH  11  18
ATOM     17  C   UNL     1       0.744   9.676  20.687  0.00  0.00    +0.000 C 
ATOM     18  O   UNL     1       1.647   9.240  19.678  0.00  0.00    +0.000 OA
ENDBRANCH  11  18
ENDBRANCH   5  14
ENDBRANCH   4   6
ENDBRANCH   3   4
ENDBRANCH   1   3
BRANCH   1  19
ATOM     19  C   UNL     1       6.768   6.221  17.564  0.00  0.00    +0.000 C 
BRANCH  19  20
ATOM     20  N   UNL     1       7.783   7.244  17.778  0.00  0.00    +0.000 N 
ATOM     21  C   UNL     1       7.555   8.578  17.668  0.00  0.00    +0.000 C 
ATOM     22  O   UNL     1       6.479   9.077  17.374  0.00  0.00    +0.000 OA
ATOM     23  H   UNL     1       8.758   6.995  17.883  0.00  0.00    +0.000 HD
BRANCH  21  24
ATOM     24  O   UNL     1       8.723   9.231  17.852  0.00  0.00    +0.000 OA
BRANCH  24  25
ATOM     25  C   UNL     1       8.621  10.616  18.203  0.00  0.00    +0.000 C 
BRANCH  25  26
ATOM     26  C   UNL     1       9.939  11.197  18.650  0.00  0.00    +0.000 A 
ATOM     27  C   UNL     1      10.863  11.672  17.706  0.00  0.00    +0.000 A 
ATOM     28  C   UNL     1      12.055  12.275  18.115  0.00  0.00    +0.000 A 
ATOM     29  C   UNL     1      12.333  12.417  19.472  0.00  0.00    +0.000 A 
ATOM     30  C   UNL     1      11.419  11.959  20.418  0.00  0.00    +0.000 A 
ATOM     31  C   UNL     1      10.230  11.345  20.010  0.00  0.00    +0.000 A 
ENDBRANCH  25  26
ENDBRANCH  24  25
ENDBRANCH  21  24
ENDBRANCH  19  20
BRANCH  19  32
ATOM     32  C   UNL     1       6.937   5.496  16.219  0.00  0.00    +0.000 C 
BRANCH  32  33
ATOM     33  C   UNL     1       5.783   5.771  15.290  0.00  0.00    +0.000 C 
ATOM     34  O   UNL     1       5.115   6.794  15.294  0.00  0.00    +0.000 OA
BRANCH  33  35
ATOM     35  O   UNL     1       5.539   4.755  14.433  0.00  0.00    +0.000 OA
ATOM     36  H   UNL     1       5.540   3.869  14.843  0.00  0.00    +0.000 HD
ENDBRANCH  33  35
ENDBRANCH  32  33
ENDBRANCH  19  32
ENDBRANCH   1  19
TORSDOF 13
ENDMDL
MODEL 7
REMARK VINA RESULT:      -7.4      1.987      8.678
REMARK  Name = 
REMARK  14 active torsions:
REMARK  status: ('A' for Active; 'I' for Inactive)
REMARK    1  A    between atoms: C_1  and  O_2
REMARK    2  A    between atoms: O_2  and  C_3
REMARK    3  A    between atoms: C_6  and  C_7
REMARK    4  A    between atoms: C_8  and  O_9
REMARK    5  A    between atoms: O_9  and  C_10
REMARK    6  A    between atoms: C_10  and  C_11
REMARK    7  A    between atoms: C_11  and  C_13
REMARK    8  A    between atoms: C_13  and  C_14
REMARK    9  A    between atoms: C_13  and  N_18
REMARK   10  A    between atoms: C_14  and  C_15
REMARK   11  A    between atoms: C_15  and  O_17
REMARK   12  A    between atoms: C_19  and  O_21
REMARK   13  A    between atoms: O_21  and  C_22
REMARK   14  A    between atoms: C_22  and  C_23
REMARK                            x       y       z     vdW  Elec       q    Type
REMARK                         _______ _______ _______ _____ _____    ______ ____
ROOT
ATOM      1  C   UNL     1       2.197   6.694  19.661  0.00  0.00    +0.000 C 
ATOM      2  O   UNL     1       2.485   7.312  18.628  0.00  0.00    +0.000 OA
ENDROOT
BRANCH   1   3
ATOM      3  C   UNL     1       1.209   7.275  20.661  0.00  0.00    +0.000 C 
BRANCH   3   4
ATOM      4  O   UNL     1       1.298   8.686  20.579  0.00  0.00    +0.000 OA
BRANCH   4   6
ATOM      5  C   UNL     1      -0.377  10.289  21.155  0.00  0.00    +0.000 C 
ATOM      6  C   UNL     1       0.605   9.443  21.487  0.00  0.00    +0.000 C 
ATOM      7  C   UNL     1       0.872   9.447  22.938  0.00  0.00    +0.000 C 
ATOM      8  O   UNL     1      -0.066  10.382  23.460  0.00  0.00    +0.000 OA
ATOM      9  C   UNL     1      -0.810  10.892  22.436  0.00  0.00    +0.000 C 
ATOM     10  O   UNL     1      -1.695  11.717  22.580  0.00  0.00    +0.000 OA
BRANCH   5  14
ATOM     11  C   UNL     1      -1.942  11.176  17.249  0.00  0.00    +0.000 A 
ATOM     12  C   UNL     1      -1.450  12.194  18.058  0.00  0.00    +0.000 A 
ATOM     13  C   UNL     1      -0.917  11.900  19.315  0.00  0.00    +0.000 A 
ATOM     14  C   UNL     1      -0.905  10.587  19.815  0.00  0.00    +0.000 A 
ATOM     15  C   UNL     1      -1.421   9.576  18.994  0.00  0.00    +0.000 A 
ATOM     16  C   UNL     1      -1.930   9.866  17.719  0.00  0.00    +0.000 A 
BRANCH  11  18
ATOM     17  C   UNL     1      -2.969  10.546  15.224  0.00  0.00    +0.000 C 
ATOM     18  O   UNL     1      -2.440  11.582  16.043  0.00  0.00    +0.000 OA
ENDBRANCH  11  18
ENDBRANCH   5  14
ENDBRANCH   4   6
ENDBRANCH   3   4
ENDBRANCH   1   3
BRANCH   1  19
ATOM     19  C   UNL     1       2.795   5.296  19.921  0.00  0.00    +0.000 C 
BRANCH  19  20
ATOM     20  N   UNL     1       4.248   5.226  19.855  0.00  0.00    +0.000 N 
ATOM     21  C   UNL     1       4.936   4.210  19.272  0.00  0.00    +0.000 C 
ATOM     22  O   UNL     1       4.421   3.238  18.741  0.00  0.00    +0.000 OA
ATOM     23  H   UNL     1       4.823   5.875  20.375  0.00  0.00    +0.000 HD
BRANCH  21  24
ATOM     24  O   UNL     1       6.257   4.422  19.459  0.00  0.00    +0.000 OA
BRANCH  24  25
ATOM     25  C   UNL     1       6.826   5.519  18.735  0.00  0.00    +0.000 C 
BRANCH  25  26
ATOM     26  C   UNL     1       6.526   5.454  17.259  0.00  0.00    +0.000 A 
ATOM     27  C   UNL     1       7.111   4.461  16.458  0.00  0.00    +0.000 A 
ATOM     28  C   UNL     1       6.785   4.352  15.103  0.00  0.00    +0.000 A 
ATOM     29  C   UNL     1       5.865   5.230  14.536  0.00  0.00    +0.000 A 
ATOM     30  C   UNL     1       5.269   6.213  15.324  0.00  0.00    +0.000 A 
ATOM     31  C   UNL     1       5.603   6.331  16.677  0.00  0.00    +0.000 A 
ENDBRANCH  25  26
ENDBRANCH  24  25
ENDBRANCH  21  24
ENDBRANCH  19  20
BRANCH  19  32
ATOM     32  C   UNL     1       2.237   4.733  21.239  0.00  0.00    +0.000 C 
BRANCH  32  33
ATOM     33  C   UNL     1       1.801   3.298  21.091  0.00  0.00    +0.000 C 
ATOM     34  O   UNL     1       1.430   2.585  22.011  0.00  0.00    +0.000 OA
BRANCH  33  35
ATOM     35  O   UNL     1       1.867   2.853  19.817  0.00  0.00    +0.000 OA
ATOM     36  H   UNL     1       2.673   3.118  19.335  0.00  0.00    +0.000 HD
ENDBRANCH  33  35
ENDBRANCH  32  33
ENDBRANCH  19  32
ENDBRANCH   1  19
TORSDOF 13
ENDMDL
MODEL 8
REMARK VINA RESULT:      -7.4      2.967      8.396
REMARK  Name = 
REMARK  14 active torsions:
REMARK  status: ('A' for Active; 'I' for Inactive)
REMARK    1  A    between atoms: C_1  and  O_2
REMARK    2  A    between atoms: O_2  and  C_3
REMARK    3  A    between atoms: C_6  and  C_7
REMARK    4  A    between atoms: C_8  and  O_9
REMARK    5  A    between atoms: O_9  and  C_10
REMARK    6  A    between atoms: C_10  and  C_11
REMARK    7  A    between atoms: C_11  and  C_13
REMARK    8  A    between atoms: C_13  and  C_14
REMARK    9  A    between atoms: C_13  and  N_18
REMARK   10  A    between atoms: C_14  and  C_15
REMARK   11  A    between atoms: C_15  and  O_17
REMARK   12  A    between atoms: C_19  and  O_21
REMARK   13  A    between atoms: O_21  and  C_22
REMARK   14  A    between atoms: C_22  and  C_23
REMARK                            x       y       z     vdW  Elec       q    Type
REMARK                         _______ _______ _______ _____ _____    ______ ____
ROOT
ATOM      1  C   UNL     1       7.080   5.878  18.573  0.00  0.00    +0.000 C 
ATOM      2  O   UNL     1       7.996   5.354  19.219  0.00  0.00    +0.000 OA
ENDROOT
BRANCH   1   3
ATOM      3  C   UNL     1       5.628   5.660  18.970  0.00  0.00    +0.000 C 
BRANCH   3   4
ATOM      4  O   UNL     1       4.998   4.956  17.915  0.00  0.00    +0.000 OA
BRANCH   4   6
ATOM      5  C   UNL     1       2.762   4.604  18.677  0.00  0.00    +0.000 C 
ATOM      6  C   UNL     1       3.930   4.150  18.208  0.00  0.00    +0.000 C 
ATOM      7  C   UNL     1       3.939   2.681  18.074  0.00  0.00    +0.000 C 
ATOM      8  O   UNL     1       2.639   2.286  18.502  0.00  0.00    +0.000 OA
ATOM      9  C   UNL     1       1.929   3.394  18.863  0.00  0.00    +0.000 C 
ATOM     10  O   UNL     1       0.782   3.366  19.271  0.00  0.00    +0.000 OA
BRANCH   5  14
ATOM     11  C   UNL     1       1.620   8.657  19.549  0.00  0.00    +0.000 A 
ATOM     12  C   UNL     1       1.578   7.684  20.542  0.00  0.00    +0.000 A 
ATOM     13  C   UNL     1       1.976   6.375  20.263  0.00  0.00    +0.000 A 
ATOM     14  C   UNL     1       2.380   5.993  18.973  0.00  0.00    +0.000 A 
ATOM     15  C   UNL     1       2.398   6.981  17.981  0.00  0.00    +0.000 A 
ATOM     16  C   UNL     1       2.027   8.303  18.266  0.00  0.00    +0.000 A 
BRANCH  11  18
ATOM     17  C   UNL     1       0.064  10.401  19.252  0.00  0.00    +0.000 C 
ATOM     18  O   UNL     1       1.205   9.900  19.937  0.00  0.00    +0.000 OA
ENDBRANCH  11  18
ENDBRANCH   5  14
ENDBRANCH   4   6
ENDBRANCH   3   4
ENDBRANCH   1   3
BRANCH   1  19
ATOM     19  C   UNL     1       7.403   6.809  17.386  0.00  0.00    +0.000 C 
BRANCH  19  20
ATOM     20  N   UNL     1       6.828   6.403  16.111  0.00  0.00    +0.000 N 
ATOM     21  C   UNL     1       7.111   5.231  15.486  0.00  0.00    +0.000 C 
ATOM     22  O   UNL     1       7.880   4.385  15.914  0.00  0.00    +0.000 OA
ATOM     23  H   UNL     1       6.288   7.053  15.554  0.00  0.00    +0.000 HD
BRANCH  21  24
ATOM     24  O   UNL     1       6.471   5.212  14.296  0.00  0.00    +0.000 OA
BRANCH  24  25
ATOM     25  C   UNL     1       7.201   4.651  13.199  0.00  0.00    +0.000 C 
BRANCH  25  26
ATOM     26  C   UNL     1       6.400   3.625  12.438  0.00  0.00    +0.000 A 
ATOM     27  C   UNL     1       5.021   3.802  12.242  0.00  0.00    +0.000 A 
ATOM     28  C   UNL     1       4.286   2.892  11.478  0.00  0.00    +0.000 A 
ATOM     29  C   UNL     1       4.922   1.798  10.896  0.00  0.00    +0.000 A 
ATOM     30  C   UNL     1       6.292   1.618  11.074  0.00  0.00    +0.000 A 
ATOM     31  C   UNL     1       7.027   2.523  11.847  0.00  0.00    +0.000 A 
ENDBRANCH  25  26
ENDBRANCH  24  25
ENDBRANCH  21  24
ENDBRANCH  19  20
BRANCH  19  32
ATOM     32  C   UNL     1       7.051   8.259  17.756  0.00  0.00    +0.000 C 
BRANCH  32  33
ATOM     33  C   UNL     1       8.260   9.020  18.239  0.00  0.00    +0.000 C 
ATOM     34  O   UNL     1       8.578  10.135  17.855  0.00  0.00    +0.000 OA
BRANCH  33  35
ATOM     35  O   UNL     1       8.985   8.338  19.152  0.00  0.00    +0.000 OA
ATOM     36  H   UNL     1       8.687   8.452  20.075  0.00  0.00    +0.000 HD
ENDBRANCH  33  35
ENDBRANCH  32  33
ENDBRANCH  19  32
ENDBRANCH   1  19
TORSDOF 13
ENDMDL
MODEL 9
REMARK VINA RESULT:      -7.4      3.336      8.240
REMARK  Name = 
REMARK  14 active torsions:
REMARK  status: ('A' for Active; 'I' for Inactive)
REMARK    1  A    between atoms: C_1  and  O_2
REMARK    2  A    between atoms: O_2  and  C_3
REMARK    3  A    between atoms: C_6  and  C_7
REMARK    4  A    between atoms: C_8  and  O_9
REMARK    5  A    between atoms: O_9  and  C_10
REMARK    6  A    between atoms: C_10  and  C_11
REMARK    7  A    between atoms: C_11  and  C_13
REMARK    8  A    between atoms: C_13  and  C_14
REMARK    9  A    between atoms: C_13  and  N_18
REMARK   10  A    between atoms: C_14  and  C_15
REMARK   11  A    between atoms: C_15  and  O_17
REMARK   12  A    between atoms: C_19  and  O_21
REMARK   13  A    between atoms: O_21  and  C_22
REMARK   14  A    between atoms: C_22  and  C_23
REMARK                            x       y       z     vdW  Elec       q    Type
REMARK                         _______ _______ _______ _____ _____    ______ ____
ROOT
ATOM      1  C   UNL     1       7.010   5.561  19.187  0.00  0.00    +0.000 C 
ATOM      2  O   UNL     1       7.722   5.236  20.146  0.00  0.00    +0.000 OA
ENDROOT
BRANCH   1   3
ATOM      3  C   UNL     1       5.497   5.618  19.328  0.00  0.00    +0.000 C 
BRANCH   3   4
ATOM      4  O   UNL     1       4.943   4.786  18.324  0.00  0.00    +0.000 OA
BRANCH   4   6
ATOM      5  C   UNL     1       2.655   4.548  18.967  0.00  0.00    +0.000 C 
ATOM      6  C   UNL     1       3.841   4.031  18.628  0.00  0.00    +0.000 C 
ATOM      7  C   UNL     1       3.829   2.556  18.652  0.00  0.00    +0.000 C 
ATOM      8  O   UNL     1       2.497   2.227  19.032  0.00  0.00    +0.000 OA
ATOM      9  C   UNL     1       1.787   3.377  19.225  0.00  0.00    +0.000 C 
ATOM     10  O   UNL     1       0.615   3.408  19.555  0.00  0.00    +0.000 OA
BRANCH   5  14
ATOM     11  C   UNL     1       1.593   8.701  19.314  0.00  0.00    +0.000 A 
ATOM     12  C   UNL     1       2.024   8.184  18.097  0.00  0.00    +0.000 A 
ATOM     13  C   UNL     1       2.342   6.829  17.980  0.00  0.00    +0.000 A 
ATOM     14  C   UNL     1       2.283   5.966  19.088  0.00  0.00    +0.000 A 
ATOM     15  C   UNL     1       1.865   6.509  20.310  0.00  0.00    +0.000 A 
ATOM     16  C   UNL     1       1.517   7.863  20.422  0.00  0.00    +0.000 A 
BRANCH  11  18
ATOM     17  C   UNL     1       0.855  10.568  20.547  0.00  0.00    +0.000 C 
ATOM     18  O   UNL     1       1.313  10.039  19.309  0.00  0.00    +0.000 OA
ENDBRANCH  11  18
ENDBRANCH   5  14
ENDBRANCH   4   6
ENDBRANCH   3   4
ENDBRANCH   1   3
BRANCH   1  19
ATOM     19  C   UNL     1       7.655   5.972  17.847  0.00  0.00    +0.000 C 
BRANCH  19  20
ATOM     20  N   UNL     1       7.480   5.017  16.762  0.00  0.00    +0.000 N 
ATOM     21  C   UNL     1       6.694   5.233  15.675  0.00  0.00    +0.000 C 
ATOM     22  O   UNL     1       6.041   6.247  15.482  0.00  0.00    +0.000 OA
ATOM     23  H   UNL     1       7.833   4.072  16.839  0.00  0.00    +0.000 HD
BRANCH  21  24
ATOM     24  O   UNL     1       6.697   4.118  14.912  0.00  0.00    +0.000 OA
BRANCH  24  25
ATOM     25  C   UNL     1       7.008   4.306  13.527  0.00  0.00    +0.000 C 
BRANCH  25  26
ATOM     26  C   UNL     1       6.114   3.499  12.620  0.00  0.00    +0.000 A 
ATOM     27  C   UNL     1       4.825   3.953  12.305  0.00  0.00    +0.000 A 
ATOM     28  C   UNL     1       4.017   3.246  11.410  0.00  0.00    +0.000 A 
ATOM     29  C   UNL     1       4.493   2.080  10.816  0.00  0.00    +0.000 A 
ATOM     30  C   UNL     1       5.775   1.625  11.113  0.00  0.00    +0.000 A 
ATOM     31  C   UNL     1       6.580   2.325  12.016  0.00  0.00    +0.000 A 
ENDBRANCH  25  26
ENDBRANCH  24  25
ENDBRANCH  21  24
ENDBRANCH  19  20
BRANCH  19  32
ATOM     32  C   UNL     1       7.197   7.388  17.465  0.00  0.00    +0.000 C 
BRANCH  32  33
ATOM     33  C   UNL     1       8.061   8.445  18.105  0.00  0.00    +0.000 C 
ATOM     34  O   UNL     1       8.065   9.625  17.788  0.00  0.00    +0.000 OA
BRANCH  33  35
ATOM     35  O   UNL     1       8.858   7.958  19.081  0.00  0.00    +0.000 OA
ATOM     36  H   UNL     1       9.337   8.638  19.591  0.00  0.00    +0.000 HD
ENDBRANCH  33  35
ENDBRANCH  32  33
ENDBRANCH  19  32
ENDBRANCH   1  19
TORSDOF 13
ENDMDL
