MODEL 1
REMARK VINA RESULT:      -8.2      0.000      0.000
REMARK  Name = 
REMARK  7 active torsions:
REMARK  status: ('A' for Active; 'I' for Inactive)
REMARK    1  A    between atoms: C_1  and  C_2
REMARK    2  A    between atoms: C_2  and  C_3
REMARK    3  A    between atoms: C_8  and  C_10
REMARK    4  A    between atoms: C_10  and  C_11
REMARK    5  A    between atoms: C_11  and  C_12
REMARK    6  A    between atoms: N_17  and  C_18
REMARK    7  A    between atoms: C_24  and  C_25
REMARK                            x       y       z     vdW  Elec       q    Type
REMARK                         _______ _______ _______ _____ _____    ______ ____
ROOT
ATOM      1  C   UNL     1       2.611   6.997  18.751  0.00  0.00    +0.000 C 
ATOM      2  O   UNL     1       3.039   7.174  17.611  0.00  0.00    +0.000 OA
ATOM      3  N   UNL     1       2.023   7.998  19.491  0.00  0.00    +0.000 N 
ATOM      4  C   UNL     1       1.785   9.321  18.882  0.00  0.00    +0.000 C 
ATOM      5  C   UNL     1       0.343   9.837  19.135  0.00  0.00    +0.000 C 
ATOM      6  N   UNL     1       0.034   9.704  20.575  0.00  0.00    +0.000 N 
ATOM      7  C   UNL     1       0.135   8.314  21.041  0.00  0.00    +0.000 C 
ATOM      8  C   UNL     1       1.610   7.904  20.901  0.00  0.00    +0.000 C 
ENDROOT
BRANCH   6   9
ATOM      9  C   UNL     1      -0.723  10.627  21.271  0.00  0.00    +0.000 A 
ATOM     10  C   UNL     1      -1.386  11.667  20.598  0.00  0.00    +0.000 A 
ATOM     11  C   UNL     1      -2.121  12.634  21.288  0.00  0.00    +0.000 A 
ATOM     12 CL   UNL     1      -2.894  13.904  20.420  0.00  0.00    +0.000 Cl
ATOM     13  C   UNL     1      -2.228  12.587  22.670  0.00  0.00    +0.000 A 
ATOM     14  C   UNL     1      -1.581  11.571  23.366  0.00  0.00    +0.000 A 
ATOM     15  C   UNL     1      -0.814  10.605  22.687  0.00  0.00    +0.000 A 
ATOM     16  C   UNL     1      -0.053   9.619  23.544  0.00  0.00    +0.000 C 
ENDBRANCH   6   9
BRANCH   1  17
ATOM     17  C   UNL     1       2.695   5.611  19.365  0.00  0.00    +0.000 C 
BRANCH  17  18
ATOM     18  C   UNL     1       4.094   5.013  19.279  0.00  0.00    +0.000 C 
BRANCH  18  24
ATOM     19  C   UNL     1       6.870   4.726  13.992  0.00  0.00    +0.000 A 
ATOM     20  N   UNL     1       7.751   5.460  14.640  0.00  0.00    +0.000 NA
ATOM     21  N   UNL     1       7.326   5.758  15.918  0.00  0.00    +0.000 NA
ATOM     22  C   UNL     1       6.165   5.206  16.192  0.00  0.00    +0.000 A 
ATOM     23  N   UNL     1       5.573   5.328  17.420  0.00  0.00    +0.000 N 
ATOM     24  C   UNL     1       4.470   4.633  17.866  0.00  0.00    +0.000 C 
ATOM     25  O   UNL     1       3.829   3.776  17.266  0.00  0.00    +0.000 OA
ATOM     26  S   UNL     1       5.458   4.364  14.896  0.00  0.00    +0.000 S 
ATOM     27  H   UNL     1       6.081   5.933  18.048  0.00  0.00    +0.000 HD
BRANCH  19  29
ATOM     28  C   UNL     1       5.916   3.261  12.224  0.00  0.00    +0.000 C 
ATOM     29  C   UNL     1       7.041   4.212  12.604  0.00  0.00    +0.000 C 
ENDBRANCH  19  29
ENDBRANCH  18  24
ENDBRANCH  17  18
ENDBRANCH   1  17
TORSDOF 5
ENDMDL
MODEL 2
REMARK VINA RESULT:      -8.1      4.994     11.257
REMARK  Name = 
REMARK  7 active torsions:
REMARK  status: ('A' for Active; 'I' for Inactive)
REMARK    1  A    between atoms: C_1  and  C_2
REMARK    2  A    between atoms: C_2  and  C_3
REMARK    3  A    between atoms: C_8  and  C_10
REMARK    4  A    between atoms: C_10  and  C_11
REMARK    5  A    between atoms: C_11  and  C_12
REMARK    6  A    between atoms: N_17  and  C_18
REMARK    7  A    between atoms: C_24  and  C_25
REMARK                            x       y       z     vdW  Elec       q    Type
REMARK                         _______ _______ _______ _____ _____    ______ ____
ROOT
ATOM      1  C   UNL     1       0.087   9.593  20.703  0.00  0.00    +0.000 C 
ATOM      2  O   UNL     1      -0.347   9.391  21.836  0.00  0.00    +0.000 OA
ATOM      3  N   UNL     1       1.129   8.873  20.163  0.00  0.00    +0.000 N 
ATOM      4  C   UNL     1       1.701   7.735  20.909  0.00  0.00    +0.000 C 
ATOM      5  C   UNL     1       1.857   6.468  20.025  0.00  0.00    +0.000 C 
ATOM      6  N   UNL     1       2.535   6.845  18.766  0.00  0.00    +0.000 N 
ATOM      7  C   UNL     1       1.790   7.865  18.014  0.00  0.00    +0.000 C 
ATOM      8  C   UNL     1       1.791   9.139  18.875  0.00  0.00    +0.000 C 
ENDROOT
BRANCH   6   9
ATOM      9  C   UNL     1       3.447   6.026  18.127  0.00  0.00    +0.000 A 
ATOM     10  C   UNL     1       4.762   6.461  17.893  0.00  0.00    +0.000 A 
ATOM     11  C   UNL     1       5.687   5.666  17.212  0.00  0.00    +0.000 A 
ATOM     12 CL   UNL     1       7.279   6.254  16.927  0.00  0.00    +0.000 Cl
ATOM     13  C   UNL     1       5.331   4.405  16.755  0.00  0.00    +0.000 A 
ATOM     14  C   UNL     1       4.036   3.946  16.969  0.00  0.00    +0.000 A 
ATOM     15  C   UNL     1       3.085   4.747  17.630  0.00  0.00    +0.000 A 
ATOM     16  C   UNL     1       1.675   4.206  17.702  0.00  0.00    +0.000 C 
ENDBRANCH   6   9
BRANCH   1  17
ATOM     17  C   UNL     1      -0.571  10.653  19.838  0.00  0.00    +0.000 C 
BRANCH  17  18
ATOM     18  C   UNL     1      -0.446  12.053  20.426  0.00  0.00    +0.000 C 
BRANCH  18  24
ATOM     19  C   UNL     1      -5.440  13.144  23.527  0.00  0.00    +0.000 A 
ATOM     20  N   UNL     1      -4.800  12.424  24.425  0.00  0.00    +0.000 NA
ATOM     21  N   UNL     1      -3.597  11.956  23.942  0.00  0.00    +0.000 NA
ATOM     22  C   UNL     1      -3.362  12.372  22.717  0.00  0.00    +0.000 A 
ATOM     23  N   UNL     1      -2.203  12.069  22.055  0.00  0.00    +0.000 N 
ATOM     24  C   UNL     1      -1.780  12.614  20.863  0.00  0.00    +0.000 C 
ATOM     25  O   UNL     1      -2.340  13.470  20.187  0.00  0.00    +0.000 OA
ATOM     26  S   UNL     1      -4.619  13.283  22.027  0.00  0.00    +0.000 S 
ATOM     27  H   UNL     1      -1.600  11.447  22.573  0.00  0.00    +0.000 HD
BRANCH  19  29
ATOM     28  C   UNL     1      -6.583  15.317  23.916  0.00  0.00    +0.000 C 
ATOM     29  C   UNL     1      -6.752  13.816  23.745  0.00  0.00    +0.000 C 
ENDBRANCH  19  29
ENDBRANCH  18  24
ENDBRANCH  17  18
ENDBRANCH   1  17
TORSDOF 5
ENDMDL
MODEL 3
REMARK VINA RESULT:      -8.1      1.429      1.946
REMARK  Name = 
REMARK  7 active torsions:
REMARK  status: ('A' for Active; 'I' for Inactive)
REMARK    1  A    between atoms: C_1  and  C_2
REMARK    2  A    between atoms: C_2  and  C_3
REMARK    3  A    between atoms: C_8  and  C_10
REMARK    4  A    between atoms: C_10  and  C_11
REMARK    5  A    between atoms: C_11  and  C_12
REMARK    6  A    between atoms: N_17  and  C_18
REMARK    7  A    between atoms: C_24  and  C_25
REMARK                            x       y       z     vdW  Elec       q    Type
REMARK                         _______ _______ _______ _____ _____    ______ ____
ROOT
ATOM      1  C   UNL     1       2.278   8.123  18.409  0.00  0.00    +0.000 C 
ATOM      2  O   UNL     1       2.861   8.285  17.338  0.00  0.00    +0.000 OA
ATOM      3  N   UNL     1       1.629   9.144  19.068  0.00  0.00    +0.000 N 
ATOM      4  C   UNL     1       1.518  10.473  18.437  0.00  0.00    +0.000 C 
ATOM      5  C   UNL     1       0.073  11.037  18.496  0.00  0.00    +0.000 C 
ATOM      6  N   UNL     1      -0.431  10.915  19.881  0.00  0.00    +0.000 N 
ATOM      7  C   UNL     1      -0.439   9.523  20.352  0.00  0.00    +0.000 C 
ATOM      8  C   UNL     1       1.027   9.065  20.410  0.00  0.00    +0.000 C 
ENDROOT
BRANCH   6   9
ATOM      9  C   UNL     1      -1.244  11.863  20.473  0.00  0.00    +0.000 A 
ATOM     10  C   UNL     1      -0.854  12.502  21.661  0.00  0.00    +0.000 A 
ATOM     11  C   UNL     1      -1.679  13.432  22.298  0.00  0.00    +0.000 A 
ATOM     12 CL   UNL     1      -1.168  14.169  23.767  0.00  0.00    +0.000 Cl
ATOM     13  C   UNL     1      -2.915  13.763  21.761  0.00  0.00    +0.000 A 
ATOM     14  C   UNL     1      -3.331  13.147  20.586  0.00  0.00    +0.000 A 
ATOM     15  C   UNL     1      -2.522  12.187  19.947  0.00  0.00    +0.000 A 
ATOM     16  C   UNL     1      -3.118  11.488  18.747  0.00  0.00    +0.000 C 
ENDBRANCH   6   9
BRANCH   1  17
ATOM     17  C   UNL     1       2.233   6.736  19.024  0.00  0.00    +0.000 C 
BRANCH  17  18
ATOM     18  C   UNL     1       3.609   6.086  19.110  0.00  0.00    +0.000 C 
BRANCH  18  24
ATOM     19  C   UNL     1       6.772   4.774  14.209  0.00  0.00    +0.000 A 
ATOM     20  N   UNL     1       7.696   5.441  14.871  0.00  0.00    +0.000 NA
ATOM     21  N   UNL     1       7.209   5.946  16.058  0.00  0.00    +0.000 NA
ATOM     22  C   UNL     1       5.955   5.607  16.261  0.00  0.00    +0.000 A 
ATOM     23  N   UNL     1       5.281   5.959  17.399  0.00  0.00    +0.000 N 
ATOM     24  C   UNL     1       4.047   5.491  17.791  0.00  0.00    +0.000 C 
ATOM     25  O   UNL     1       3.334   4.674  17.217  0.00  0.00    +0.000 OA
ATOM     26  S   UNL     1       5.244   4.733  14.989  0.00  0.00    +0.000 S 
ATOM     27  H   UNL     1       5.820   6.551  18.013  0.00  0.00    +0.000 HD
BRANCH  19  29
ATOM     28  C   UNL     1       5.741   3.320  12.477  0.00  0.00    +0.000 C 
ATOM     29  C   UNL     1       6.984   4.082  12.907  0.00  0.00    +0.000 C 
ENDBRANCH  19  29
ENDBRANCH  18  24
ENDBRANCH  17  18
ENDBRANCH   1  17
TORSDOF 5
ENDMDL
MODEL 4
REMARK VINA RESULT:      -8.0      1.956      2.863
REMARK  Name = 
REMARK  7 active torsions:
REMARK  status: ('A' for Active; 'I' for Inactive)
REMARK    1  A    between atoms: C_1  and  C_2
REMARK    2  A    between atoms: C_2  and  C_3
REMARK    3  A    between atoms: C_8  and  C_10
REMARK    4  A    between atoms: C_10  and  C_11
REMARK    5  A    between atoms: C_11  and  C_12
REMARK    6  A    between atoms: N_17  and  C_18
REMARK    7  A    between atoms: C_24  and  C_25
REMARK                            x       y       z     vdW  Elec       q    Type
REMARK                         _______ _______ _______ _____ _____    ______ ____
ROOT
ATOM      1  C   UNL     1       1.512   8.588  20.118  0.00  0.00    +0.000 C 
ATOM      2  O   UNL     1       1.616   8.606  18.892  0.00  0.00    +0.000 OA
ATOM      3  N   UNL     1       0.968   9.629  20.836  0.00  0.00    +0.000 N 
ATOM      4  C   UNL     1       0.379  10.783  20.128  0.00  0.00    +0.000 C 
ATOM      5  C   UNL     1      -1.022  11.161  20.679  0.00  0.00    +0.000 C 
ATOM      6  N   UNL     1      -0.947  11.254  22.153  0.00  0.00    +0.000 N 
ATOM      7  C   UNL     1      -0.513   9.993  22.771  0.00  0.00    +0.000 C 
ATOM      8  C   UNL     1       0.930   9.743  22.304  0.00  0.00    +0.000 C 
ENDROOT
BRANCH   6   9
ATOM      9  C   UNL     1      -1.651  12.191  22.885  0.00  0.00    +0.000 A 
ATOM     10  C   UNL     1      -2.870  11.858  23.496  0.00  0.00    +0.000 A 
ATOM     11  C   UNL     1      -3.617  12.801  24.205  0.00  0.00    +0.000 A 
ATOM     12 CL   UNL     1      -5.120  12.350  24.914  0.00  0.00    +0.000 Cl
ATOM     13  C   UNL     1      -3.163  14.105  24.338  0.00  0.00    +0.000 A 
ATOM     14  C   UNL     1      -1.960  14.468  23.743  0.00  0.00    +0.000 A 
ATOM     15  C   UNL     1      -1.209  13.535  23.002  0.00  0.00    +0.000 A 
ATOM     16  C   UNL     1       0.019  14.061  22.294  0.00  0.00    +0.000 C 
ENDBRANCH   6   9
BRANCH   1  17
ATOM     17  C   UNL     1       1.964   7.355  20.880  0.00  0.00    +0.000 C 
BRANCH  17  18
ATOM     18  C   UNL     1       1.520   6.057  20.216  0.00  0.00    +0.000 C 
BRANCH  18  24
ATOM     19  C   UNL     1       5.731   5.142  16.073  0.00  0.00    +0.000 A 
ATOM     20  N   UNL     1       5.514   6.424  15.858  0.00  0.00    +0.000 NA
ATOM     21  N   UNL     1       4.500   6.911  16.655  0.00  0.00    +0.000 NA
ATOM     22  C   UNL     1       4.022   5.990  17.462  0.00  0.00    +0.000 A 
ATOM     23  N   UNL     1       3.040   6.262  18.376  0.00  0.00    +0.000 N 
ATOM     24  C   UNL     1       2.617   5.430  19.389  0.00  0.00    +0.000 C 
ATOM     25  O   UNL     1       3.041   4.313  19.671  0.00  0.00    +0.000 OA
ATOM     26  S   UNL     1       4.699   4.445  17.252  0.00  0.00    +0.000 S 
ATOM     27  H   UNL     1       2.686   7.205  18.311  0.00  0.00    +0.000 HD
BRANCH  19  29
ATOM     28  C   UNL     1       6.313   3.859  14.025  0.00  0.00    +0.000 C 
ATOM     29  C   UNL     1       6.777   4.326  15.395  0.00  0.00    +0.000 C 
ENDBRANCH  19  29
ENDBRANCH  18  24
ENDBRANCH  17  18
ENDBRANCH   1  17
TORSDOF 5
ENDMDL
MODEL 5
REMARK VINA RESULT:      -8.0      4.050      5.684
REMARK  Name = 
REMARK  7 active torsions:
REMARK  status: ('A' for Active; 'I' for Inactive)
REMARK    1  A    between atoms: C_1  and  C_2
REMARK    2  A    between atoms: C_2  and  C_3
REMARK    3  A    between atoms: C_8  and  C_10
REMARK    4  A    between atoms: C_10  and  C_11
REMARK    5  A    between atoms: C_11  and  C_12
REMARK    6  A    between atoms: N_17  and  C_18
REMARK    7  A    between atoms: C_24  and  C_25
REMARK                            x       y       z     vdW  Elec       q    Type
REMARK                         _______ _______ _______ _____ _____    ______ ____
ROOT
ATOM      1  C   UNL     1       0.133  10.818  21.562  0.00  0.00    +0.000 C 
ATOM      2  O   UNL     1       0.252  10.728  22.783  0.00  0.00    +0.000 OA
ATOM      3  N   UNL     1       0.078  12.026  20.904  0.00  0.00    +0.000 N 
ATOM      4  C   UNL     1       0.272  13.282  21.655  0.00  0.00    +0.000 C 
ATOM      5  C   UNL     1       1.283  14.235  20.960  0.00  0.00    +0.000 C 
ATOM      6  N   UNL     1       0.914  14.364  19.534  0.00  0.00    +0.000 N 
ATOM      7  C   UNL     1       0.917  13.070  18.837  0.00  0.00    +0.000 C 
ATOM      8  C   UNL     1      -0.197  12.221  19.470  0.00  0.00    +0.000 C 
ENDROOT
BRANCH   6   9
ATOM      9  C   UNL     1       1.041  15.545  18.827  0.00  0.00    +0.000 A 
ATOM     10  C   UNL     1      -0.068  16.382  18.623  0.00  0.00    +0.000 A 
ATOM     11  C   UNL     1       0.030  17.559  17.876  0.00  0.00    +0.000 A 
ATOM     12 CL   UNL     1      -1.364  18.539  17.632  0.00  0.00    +0.000 Cl
ATOM     13  C   UNL     1       1.242  17.943  17.321  0.00  0.00    +0.000 A 
ATOM     14  C   UNL     1       2.358  17.134  17.503  0.00  0.00    +0.000 A 
ATOM     15  C   UNL     1       2.269  15.932  18.231  0.00  0.00    +0.000 A 
ATOM     16  C   UNL     1       3.508  15.067  18.266  0.00  0.00    +0.000 C 
ENDBRANCH   6   9
BRANCH   1  17
ATOM     17  C   UNL     1       0.082   9.550  20.728  0.00  0.00    +0.000 C 
BRANCH  17  18
ATOM     18  C   UNL     1       1.143   8.535  21.137  0.00  0.00    +0.000 C 
BRANCH  18  24
ATOM     19  C   UNL     1       4.368   4.924  17.629  0.00  0.00    +0.000 A 
ATOM     20  N   UNL     1       4.237   4.127  18.670  0.00  0.00    +0.000 NA
ATOM     21  N   UNL     1       3.569   4.745  19.706  0.00  0.00    +0.000 NA
ATOM     22  C   UNL     1       3.191   5.964  19.391  0.00  0.00    +0.000 A 
ATOM     23  N   UNL     1       2.470   6.748  20.251  0.00  0.00    +0.000 N 
ATOM     24  C   UNL     1       1.863   7.946  19.946  0.00  0.00    +0.000 C 
ATOM     25  O   UNL     1       1.838   8.523  18.863  0.00  0.00    +0.000 OA
ATOM     26  S   UNL     1       3.696   6.486  17.854  0.00  0.00    +0.000 S 
ATOM     27  H   UNL     1       2.328   6.321  21.154  0.00  0.00    +0.000 HD
BRANCH  19  29
ATOM     28  C   UNL     1       5.358   5.780  15.516  0.00  0.00    +0.000 C 
ATOM     29  C   UNL     1       5.015   4.549  16.341  0.00  0.00    +0.000 C 
ENDBRANCH  19  29
ENDBRANCH  18  24
ENDBRANCH  17  18
ENDBRANCH   1  17
TORSDOF 5
ENDMDL
MODEL 6
REMARK VINA RESULT:      -8.0      1.253      1.569
REMARK  Name = 
REMARK  7 active torsions:
REMARK  status: ('A' for Active; 'I' for Inactive)
REMARK    1  A    between atoms: C_1  and  C_2
REMARK    2  A    between atoms: C_2  and  C_3
REMARK    3  A    between atoms: C_8  and  C_10
REMARK    4  A    between atoms: C_10  and  C_11
REMARK    5  A    between atoms: C_11  and  C_12
REMARK    6  A    between atoms: N_17  and  C_18
REMARK    7  A    between atoms: C_24  and  C_25
REMARK                            x       y       z     vdW  Elec       q    Type
REMARK                         _______ _______ _______ _____ _____    ______ ____
ROOT
ATOM      1  C   UNL     1       2.290   6.781  18.698  0.00  0.00    +0.000 C 
ATOM      2  O   UNL     1       2.499   6.745  17.486  0.00  0.00    +0.000 OA
ATOM      3  N   UNL     1       1.995   7.945  19.371  0.00  0.00    +0.000 N 
ATOM      4  C   UNL     1       1.809   9.202  18.619  0.00  0.00    +0.000 C 
ATOM      5  C   UNL     1       0.525   9.962  19.047  0.00  0.00    +0.000 C 
ATOM      6  N   UNL     1       0.497  10.061  20.522  0.00  0.00    +0.000 N 
ATOM      7  C   UNL     1       0.513   8.741  21.170  0.00  0.00    +0.000 C 
ATOM      8  C   UNL     1       1.866   8.095  20.830  0.00  0.00    +0.000 C 
ENDROOT
BRANCH   6   9
ATOM      9  C   UNL     1       0.020  11.170  21.194  0.00  0.00    +0.000 A 
ATOM     10  C   UNL     1      -1.094  11.070  22.043  0.00  0.00    +0.000 A 
ATOM     11  C   UNL     1      -1.618  12.187  22.699  0.00  0.00    +0.000 A 
ATOM     12 CL   UNL     1      -3.002  12.019  23.709  0.00  0.00    +0.000 Cl
ATOM     13  C   UNL     1      -1.037  13.437  22.537  0.00  0.00    +0.000 A 
ATOM     14  C   UNL     1       0.066  13.569  21.701  0.00  0.00    +0.000 A 
ATOM     15  C   UNL     1       0.589  12.457  21.012  0.00  0.00    +0.000 A 
ATOM     16  C   UNL     1       1.710  12.730  20.035  0.00  0.00    +0.000 C 
ENDBRANCH   6   9
BRANCH   1  17
ATOM     17  C   UNL     1       2.320   5.487  19.492  0.00  0.00    +0.000 C 
BRANCH  17  18
ATOM     18  C   UNL     1       3.700   4.842  19.515  0.00  0.00    +0.000 C 
BRANCH  18  24
ATOM     19  C   UNL     1       6.758   4.724  14.379  0.00  0.00    +0.000 A 
ATOM     20  N   UNL     1       7.526   5.558  15.050  0.00  0.00    +0.000 NA
ATOM     21  N   UNL     1       7.009   5.839  16.297  0.00  0.00    +0.000 NA
ATOM     22  C   UNL     1       5.896   5.178  16.529  0.00  0.00    +0.000 A 
ATOM     23  N   UNL     1       5.233   5.265  17.723  0.00  0.00    +0.000 N 
ATOM     24  C   UNL     1       4.185   4.472  18.133  0.00  0.00    +0.000 C 
ATOM     25  O   UNL     1       3.663   3.541  17.526  0.00  0.00    +0.000 OA
ATOM     26  S   UNL     1       5.345   4.241  15.223  0.00  0.00    +0.000 S 
ATOM     27  H   UNL     1       5.645   5.932  18.359  0.00  0.00    +0.000 HD
BRANCH  19  29
ATOM     28  C   UNL     1       5.845   3.481  12.429  0.00  0.00    +0.000 C 
ATOM     29  C   UNL     1       7.049   4.201  13.015  0.00  0.00    +0.000 C 
ENDBRANCH  19  29
ENDBRANCH  18  24
ENDBRANCH  17  18
ENDBRANCH   1  17
TORSDOF 5
ENDMDL
MODEL 7
REMARK VINA RESULT:      -7.9      1.377      1.484
REMARK  Name = 
REMARK  7 active torsions:
REMARK  status: ('A' for Active; 'I' for Inactive)
REMARK    1  A    between atoms: C_1  and  C_2
REMARK    2  A    between atoms: C_2  and  C_3
REMARK    3  A    between atoms: C_8  and  C_10
REMARK    4  A    between atoms: C_10  and  C_11
REMARK    5  A    between atoms: C_11  and  C_12
REMARK    6  A    between atoms: N_17  and  C_18
REMARK    7  A    between atoms: C_24  and  C_25
REMARK                            x       y       z     vdW  Elec       q    Type
REMARK                         _______ _______ _______ _____ _____    ______ ____
ROOT
ATOM      1  C   UNL     1       2.790   7.447  18.442  0.00  0.00    +0.000 C 
ATOM      2  O   UNL     1       3.333   7.419  17.338  0.00  0.00    +0.000 OA
ATOM      3  N   UNL     1       2.145   8.561  18.929  0.00  0.00    +0.000 N 
ATOM      4  C   UNL     1       1.989   9.754  18.073  0.00  0.00    +0.000 C 
ATOM      5  C   UNL     1       0.536  10.301  18.083  0.00  0.00    +0.000 C 
ATOM      6  N   UNL     1       0.081  10.426  19.484  0.00  0.00    +0.000 N 
ATOM      7  C   UNL     1       0.115   9.141  20.199  0.00  0.00    +0.000 C 
ATOM      8  C   UNL     1       1.591   8.719  20.284  0.00  0.00    +0.000 C 
ENDROOT
BRANCH   6   9
ATOM      9  C   UNL     1      -0.728  11.455  19.925  0.00  0.00    +0.000 A 
ATOM     10  C   UNL     1      -2.101  11.466  19.631  0.00  0.00    +0.000 A 
ATOM     11  C   UNL     1      -2.928  12.518  20.031  0.00  0.00    +0.000 A 
ATOM     12 CL   UNL     1      -4.601  12.498  19.623  0.00  0.00    +0.000 Cl
ATOM     13  C   UNL     1      -2.413  13.587  20.749  0.00  0.00    +0.000 A 
ATOM     14  C   UNL     1      -1.056  13.607  21.055  0.00  0.00    +0.000 A 
ATOM     15  C   UNL     1      -0.205  12.567  20.635  0.00  0.00    +0.000 A 
ATOM     16  C   UNL     1       1.271  12.745  20.912  0.00  0.00    +0.000 C 
ENDBRANCH   6   9
BRANCH   1  17
ATOM     17  C   UNL     1       2.792   6.193  19.298  0.00  0.00    +0.000 C 
BRANCH  17  18
ATOM     18  C   UNL     1       4.124   5.454  19.256  0.00  0.00    +0.000 C 
BRANCH  18  24
ATOM     19  C   UNL     1       6.812   4.641  13.977  0.00  0.00    +0.000 A 
ATOM     20  N   UNL     1       7.741   5.368  14.565  0.00  0.00    +0.000 NA
ATOM     21  N   UNL     1       7.350   5.778  15.822  0.00  0.00    +0.000 NA
ATOM     22  C   UNL     1       6.163   5.313  16.145  0.00  0.00    +0.000 A 
ATOM     23  N   UNL     1       5.595   5.553  17.367  0.00  0.00    +0.000 N 
ATOM     24  C   UNL     1       4.461   4.955  17.869  0.00  0.00    +0.000 C 
ATOM     25  O   UNL     1       3.765   4.096  17.337  0.00  0.00    +0.000 OA
ATOM     26  S   UNL     1       5.394   4.423  14.918  0.00  0.00    +0.000 S 
ATOM     27  H   UNL     1       6.144   6.171  17.946  0.00  0.00    +0.000 HD
BRANCH  19  29
ATOM     28  C   UNL     1       5.715   3.181  12.290  0.00  0.00    +0.000 C 
ATOM     29  C   UNL     1       6.936   4.023  12.628  0.00  0.00    +0.000 C 
ENDBRANCH  19  29
ENDBRANCH  18  24
ENDBRANCH  17  18
ENDBRANCH   1  17
TORSDOF 5
ENDMDL
MODEL 8
REMARK VINA RESULT:      -7.9      4.100     10.234
REMARK  Name = 
REMARK  7 active torsions:
REMARK  status: ('A' for Active; 'I' for Inactive)
REMARK    1  A    between atoms: C_1  and  C_2
REMARK    2  A    between atoms: C_2  and  C_3
REMARK    3  A    between atoms: C_8  and  C_10
REMARK    4  A    between atoms: C_10  and  C_11
REMARK    5  A    between atoms: C_11  and  C_12
REMARK    6  A    between atoms: N_17  and  C_18
REMARK    7  A    between atoms: C_24  and  C_25
REMARK                            x       y       z     vdW  Elec       q    Type
REMARK                         _______ _______ _______ _____ _____    ______ ____
ROOT
ATOM      1  C   UNL     1       2.212   4.819  20.672  0.00  0.00    +0.000 C 
ATOM      2  O   UNL     1       1.964   3.820  21.347  0.00  0.00    +0.000 OA
ATOM      3  N   UNL     1       3.220   4.856  19.736  0.00  0.00    +0.000 N 
ATOM      4  C   UNL     1       3.985   3.631  19.429  0.00  0.00    +0.000 C 
ATOM      5  C   UNL     1       4.115   3.383  17.903  0.00  0.00    +0.000 C 
ATOM      6  N   UNL     1       4.571   4.630  17.252  0.00  0.00    +0.000 N 
ATOM      7  C   UNL     1       3.645   5.749  17.479  0.00  0.00    +0.000 C 
ATOM      8  C   UNL     1       3.666   6.044  18.988  0.00  0.00    +0.000 C 
ENDROOT
BRANCH   6   9
ATOM      9  C   UNL     1       5.445   4.646  16.182  0.00  0.00    +0.000 A 
ATOM     10  C   UNL     1       5.082   4.079  14.950  0.00  0.00    +0.000 A 
ATOM     11  C   UNL     1       5.966   4.047  13.869  0.00  0.00    +0.000 A 
ATOM     12 CL   UNL     1       5.484   3.317  12.386  0.00  0.00    +0.000 Cl
ATOM     13  C   UNL     1       7.237   4.593  13.980  0.00  0.00    +0.000 A 
ATOM     14  C   UNL     1       7.627   5.160  15.188  0.00  0.00    +0.000 A 
ATOM     15  C   UNL     1       6.757   5.176  16.295  0.00  0.00    +0.000 A 
ATOM     16  C   UNL     1       7.321   5.704  17.594  0.00  0.00    +0.000 C 
ENDBRANCH   6   9
BRANCH   1  17
ATOM     17  C   UNL     1       1.351   6.058  20.843  0.00  0.00    +0.000 C 
BRANCH  17  18
ATOM     18  C   UNL     1       2.153   7.350  20.736  0.00  0.00    +0.000 C 
BRANCH  18  24
ATOM     19  C   UNL     1      -1.477  11.893  22.126  0.00  0.00    +0.000 A 
ATOM     20  N   UNL     1      -1.145  11.522  23.346  0.00  0.00    +0.000 NA
ATOM     21  N   UNL     1      -0.336  10.404  23.338  0.00  0.00    +0.000 NA
ATOM     22  C   UNL     1      -0.062  10.004  22.116  0.00  0.00    +0.000 A 
ATOM     23  N   UNL     1       0.763   8.940  21.867  0.00  0.00    +0.000 N 
ATOM     24  C   UNL     1       1.266   8.570  20.640  0.00  0.00    +0.000 C 
ATOM     25  O   UNL     1       1.088   9.119  19.557  0.00  0.00    +0.000 OA
ATOM     26  S   UNL     1      -0.835  10.891  20.890  0.00  0.00    +0.000 S 
ATOM     27  H   UNL     1       1.069   8.470  22.706  0.00  0.00    +0.000 HD
BRANCH  19  29
ATOM     28  C   UNL     1      -2.899  12.963  20.391  0.00  0.00    +0.000 C 
ATOM     29  C   UNL     1      -2.316  13.077  21.791  0.00  0.00    +0.000 C 
ENDBRANCH  19  29
ENDBRANCH  18  24
ENDBRANCH  17  18
ENDBRANCH   1  17
TORSDOF 5
ENDMDL
MODEL 9
REMARK VINA RESULT:      -7.8      3.068      3.815
REMARK  Name = 
REMARK  7 active torsions:
REMARK  status: ('A' for Active; 'I' for Inactive)
REMARK    1  A    between atoms: C_1  and  C_2
REMARK    2  A    between atoms: C_2  and  C_3
REMARK    3  A    between atoms: C_8  and  C_10
REMARK    4  A    between atoms: C_10  and  C_11
REMARK    5  A    between atoms: C_11  and  C_12
REMARK    6  A    between atoms: N_17  and  C_18
REMARK    7  A    between atoms: C_24  and  C_25
REMARK                            x       y       z     vdW  Elec       q    Type
REMARK                         _______ _______ _______ _____ _____    ______ ____
ROOT
ATOM      1  C   UNL     1       1.388   8.571  20.372  0.00  0.00    +0.000 C 
ATOM      2  O   UNL     1       1.245   8.136  21.514  0.00  0.00    +0.000 OA
ATOM      3  N   UNL     1       1.010   9.843  20.005  0.00  0.00    +0.000 N 
ATOM      4  C   UNL     1       0.507  10.785  21.024  0.00  0.00    +0.000 C 
ATOM      5  C   UNL     1       1.185  12.178  20.927  0.00  0.00    +0.000 C 
ATOM      6  N   UNL     1       1.138  12.635  19.521  0.00  0.00    +0.000 N 
ATOM      7  C   UNL     1       1.820  11.705  18.609  0.00  0.00    +0.000 C 
ATOM      8  C   UNL     1       1.023  10.390  18.637  0.00  0.00    +0.000 C 
ENDROOT
BRANCH   6   9
ATOM      9  C   UNL     1       0.944  13.955  19.164  0.00  0.00    +0.000 A 
ATOM     10  C   UNL     1       1.995  14.716  18.627  0.00  0.00    +0.000 A 
ATOM     11  C   UNL     1       1.831  16.064  18.299  0.00  0.00    +0.000 A 
ATOM     12 CL   UNL     1       3.158  16.962  17.669  0.00  0.00    +0.000 Cl
ATOM     13  C   UNL     1       0.608  16.691  18.484  0.00  0.00    +0.000 A 
ATOM     14  C   UNL     1      -0.453  15.966  19.015  0.00  0.00    +0.000 A 
ATOM     15  C   UNL     1      -0.295  14.614  19.376  0.00  0.00    +0.000 A 
ATOM     16  C   UNL     1      -1.471  13.952  20.058  0.00  0.00    +0.000 C 
ENDBRANCH   6   9
BRANCH   1  17
ATOM     17  C   UNL     1       2.043   7.691  19.323  0.00  0.00    +0.000 C 
BRANCH  17  18
ATOM     18  C   UNL     1       2.564   6.379  19.898  0.00  0.00    +0.000 C 
BRANCH  18  24
ATOM     19  C   UNL     1       5.791   4.736  15.140  0.00  0.00    +0.000 A 
ATOM     20  N   UNL     1       6.002   6.035  15.086  0.00  0.00    +0.000 NA
ATOM     21  N   UNL     1       5.296   6.709  16.061  0.00  0.00    +0.000 NA
ATOM     22  C   UNL     1       4.614   5.889  16.830  0.00  0.00    +0.000 A 
ATOM     23  N   UNL     1       3.877   6.334  17.894  0.00  0.00    +0.000 N 
ATOM     24  C   UNL     1       3.297   5.551  18.867  0.00  0.00    +0.000 C 
ATOM     25  O   UNL     1       3.341   4.330  18.976  0.00  0.00    +0.000 OA
ATOM     26  S   UNL     1       4.703   4.254  16.376  0.00  0.00    +0.000 S 
ATOM     27  H   UNL     1       3.860   7.340  17.973  0.00  0.00    +0.000 HD
BRANCH  19  29
ATOM     28  C   UNL     1       5.780   3.723  12.870  0.00  0.00    +0.000 C 
ATOM     29  C   UNL     1       6.426   3.727  14.247  0.00  0.00    +0.000 C 
ENDBRANCH  19  29
ENDBRANCH  18  24
ENDBRANCH  17  18
ENDBRANCH   1  17
TORSDOF 5
ENDMDL
