MODEL 1
REMARK VINA RESULT:      -7.9      0.000      0.000
REMARK  Name = 
REMARK  9 active torsions:
REMARK  status: ('A' for Active; 'I' for Inactive)
REMARK    1  A    between atoms: C_2  and  O_3
REMARK    2  A    between atoms: C_2  and  C_4
REMARK    3  A    between atoms: C_4  and  N_5
REMARK    4  A    between atoms: C_6  and  C_8
REMARK    5  A    between atoms: C_9  and  O_10
REMARK    6  A    between atoms: N_13  and  C_14
REMARK    7  A    between atoms: C_14  and  C_15
REMARK    8  A    between atoms: C_18  and  O_19
REMARK    9  A    between atoms: O_19  and  C_20
REMARK                            x       y       z     vdW  Elec       q    Type
REMARK                         _______ _______ _______ _____ _____    ______ ____
ROOT
ATOM      1  C   UNL     1       3.083   3.738  18.634  0.00  0.00    +0.000 C 
ATOM      2  C   UNL     1       2.125   2.854  18.990  0.00  0.00    +0.000 C 
ATOM      3  C   UNL     1       1.031   3.189  19.959  0.00  0.00    +0.000 C 
ATOM      4  C   UNL     1       0.825   4.691  20.068  0.00  0.00    +0.000 C 
ATOM      5  N   UNL     1       2.090   5.408  20.152  0.00  0.00    +0.000 N 
ATOM      6  C   UNL     1       3.139   5.077  19.311  0.00  0.00    +0.000 C 
ATOM      7  O   UNL     1       4.119   5.803  19.142  0.00  0.00    +0.000 OA
ENDROOT
BRANCH   1   9
ATOM      8  N   UNL     1       4.658   4.291  16.855  0.00  0.00    +0.000 N 
ATOM      9  C   UNL     1       4.129   3.309  17.652  0.00  0.00    +0.000 C 
ATOM     10  O   UNL     1       4.477   2.132  17.568  0.00  0.00    +0.000 OA
ATOM     11  H   UNL     1       4.327   5.251  16.967  0.00  0.00    +0.000 HD
BRANCH   8  12
ATOM     12  C   UNL     1       5.597   3.993  15.777  0.00  0.00    +0.000 C 
BRANCH  12  14
ATOM     13  O   UNL     1       7.440   5.470  15.212  0.00  0.00    +0.000 OA
ATOM     14  C   UNL     1       6.958   4.650  15.980  0.00  0.00    +0.000 C 
BRANCH  14  15
ATOM     15  O   UNL     1       7.578   4.278  17.127  0.00  0.00    +0.000 OA
ATOM     16  H   UNL     1       6.963   3.767  17.693  0.00  0.00    +0.000 HD
ENDBRANCH  14  15
ENDBRANCH  12  14
ENDBRANCH   8  12
ENDBRANCH   1   9
BRANCH   2  17
ATOM     17  O   UNL     1       2.037   1.557  18.508  0.00  0.00    +0.000 OA
ATOM     18  H   UNL     1       2.912   1.113  18.605  0.00  0.00    +0.000 HD
ENDBRANCH   2  17
BRANCH   5  19
ATOM     19  C   UNL     1       2.199   6.561  21.041  0.00  0.00    +0.000 C 
BRANCH  19  20
ATOM     20  C   UNL     1       1.541   7.817  20.543  0.00  0.00    +0.000 A 
ATOM     21  C   UNL     1       0.537   8.466  21.267  0.00  0.00    +0.000 A 
ATOM     22  C   UNL     1      -0.102   9.581  20.717  0.00  0.00    +0.000 A 
ATOM     23  C   UNL     1       0.312  10.029  19.473  0.00  0.00    +0.000 A 
ATOM     24  N   UNL     1       1.279   9.425  18.747  0.00  0.00    +0.000 NA
ATOM     25  C   UNL     1       1.867   8.343  19.297  0.00  0.00    +0.000 A 
BRANCH  23  26
ATOM     26  O   UNL     1      -0.343  11.136  18.948  0.00  0.00    +0.000 OA
BRANCH  26  27
ATOM     27  C   UNL     1      -1.597  10.941  18.408  0.00  0.00    +0.000 A 
ATOM     28  C   UNL     1      -1.843  10.072  17.338  0.00  0.00    +0.000 A 
ATOM     29  C   UNL     1      -3.129   9.949  16.811  0.00  0.00    +0.000 A 
ATOM     30  C   UNL     1      -4.168  10.720  17.330  0.00  0.00    +0.000 A 
ATOM     31  C   UNL     1      -3.914  11.609  18.375  0.00  0.00    +0.000 A 
ATOM     32 CL   UNL     1      -5.198  12.573  18.998  0.00  0.00    +0.000 Cl
ATOM     33  C   UNL     1      -2.633  11.727  18.915  0.00  0.00    +0.000 A 
ENDBRANCH  26  27
ENDBRANCH  23  26
ENDBRANCH  19  20
ENDBRANCH   5  19
TORSDOF 9
ENDMDL
MODEL 2
REMARK VINA RESULT:      -7.8      3.891     10.121
REMARK  Name = 
REMARK  9 active torsions:
REMARK  status: ('A' for Active; 'I' for Inactive)
REMARK    1  A    between atoms: C_2  and  O_3
REMARK    2  A    between atoms: C_2  and  C_4
REMARK    3  A    between atoms: C_4  and  N_5
REMARK    4  A    between atoms: C_6  and  C_8
REMARK    5  A    between atoms: C_9  and  O_10
REMARK    6  A    between atoms: N_13  and  C_14
REMARK    7  A    between atoms: C_14  and  C_15
REMARK    8  A    between atoms: C_18  and  O_19
REMARK    9  A    between atoms: O_19  and  C_20
REMARK                            x       y       z     vdW  Elec       q    Type
REMARK                         _______ _______ _______ _____ _____    ______ ____
ROOT
ATOM      1  C   UNL     1      -3.950  11.622  18.273  0.00  0.00    +0.000 C 
ATOM      2  C   UNL     1      -4.064  11.234  16.983  0.00  0.00    +0.000 C 
ATOM      3  C   UNL     1      -2.908  10.698  16.192  0.00  0.00    +0.000 C 
ATOM      4  C   UNL     1      -1.810  10.171  17.100  0.00  0.00    +0.000 C 
ATOM      5  N   UNL     1      -1.548  11.071  18.216  0.00  0.00    +0.000 N 
ATOM      6  C   UNL     1      -2.598  11.630  18.924  0.00  0.00    +0.000 C 
ATOM      7  O   UNL     1      -2.455  12.168  20.022  0.00  0.00    +0.000 OA
ENDROOT
BRANCH   1   9
ATOM      8  N   UNL     1      -5.584  11.427  20.074  0.00  0.00    +0.000 N 
ATOM      9  C   UNL     1      -5.166  12.137  18.978  0.00  0.00    +0.000 C 
ATOM     10  O   UNL     1      -5.756  13.140  18.579  0.00  0.00    +0.000 OA
ATOM     11  H   UNL     1      -5.058  10.599  20.357  0.00  0.00    +0.000 HD
BRANCH   8  12
ATOM     12  C   UNL     1      -6.820  11.749  20.783  0.00  0.00    +0.000 C 
BRANCH  12  14
ATOM     13  O   UNL     1      -6.757  12.182  23.171  0.00  0.00    +0.000 OA
ATOM     14  C   UNL     1      -6.582  12.591  22.032  0.00  0.00    +0.000 C 
BRANCH  14  15
ATOM     15  O   UNL     1      -6.110  13.834  21.771  0.00  0.00    +0.000 OA
ATOM     16  H   UNL     1      -6.676  14.278  21.107  0.00  0.00    +0.000 HD
ENDBRANCH  14  15
ENDBRANCH  12  14
ENDBRANCH   8  12
ENDBRANCH   1   9
BRANCH   2  17
ATOM     17  O   UNL     1      -5.240  11.282  16.251  0.00  0.00    +0.000 OA
ATOM     18  H   UNL     1      -5.802  12.022  16.583  0.00  0.00    +0.000 HD
ENDBRANCH   2  17
BRANCH   5  19
ATOM     19  C   UNL     1      -0.172  11.276  18.659  0.00  0.00    +0.000 C 
BRANCH  19  20
ATOM     20  C   UNL     1       0.605  10.020  18.933  0.00  0.00    +0.000 A 
ATOM     21  C   UNL     1       0.586   9.391  20.181  0.00  0.00    +0.000 A 
ATOM     22  C   UNL     1       1.396   8.274  20.406  0.00  0.00    +0.000 A 
ATOM     23  C   UNL     1       2.172   7.803  19.359  0.00  0.00    +0.000 A 
ATOM     24  N   UNL     1       2.214   8.387  18.141  0.00  0.00    +0.000 NA
ATOM     25  C   UNL     1       1.433   9.471  17.958  0.00  0.00    +0.000 A 
BRANCH  23  26
ATOM     26  O   UNL     1       2.971   6.695  19.612  0.00  0.00    +0.000 OA
BRANCH  26  27
ATOM     27  C   UNL     1       2.416   5.448  19.422  0.00  0.00    +0.000 A 
ATOM     28  C   UNL     1       2.038   4.961  18.164  0.00  0.00    +0.000 A 
ATOM     29  C   UNL     1       1.444   3.704  18.044  0.00  0.00    +0.000 A 
ATOM     30  C   UNL     1       1.195   2.943  19.184  0.00  0.00    +0.000 A 
ATOM     31  C   UNL     1       1.544   3.443  20.440  0.00  0.00    +0.000 A 
ATOM     32 CL   UNL     1       1.215   2.505  21.846  0.00  0.00    +0.000 Cl
ATOM     33  C   UNL     1       2.149   4.693  20.566  0.00  0.00    +0.000 A 
ENDBRANCH  26  27
ENDBRANCH  23  26
ENDBRANCH  19  20
ENDBRANCH   5  19
TORSDOF 9
ENDMDL
MODEL 3
REMARK VINA RESULT:      -7.7      4.029     10.185
REMARK  Name = 
REMARK  9 active torsions:
REMARK  status: ('A' for Active; 'I' for Inactive)
REMARK    1  A    between atoms: C_2  and  O_3
REMARK    2  A    between atoms: C_2  and  C_4
REMARK    3  A    between atoms: C_4  and  N_5
REMARK    4  A    between atoms: C_6  and  C_8
REMARK    5  A    between atoms: C_9  and  O_10
REMARK    6  A    between atoms: N_13  and  C_14
REMARK    7  A    between atoms: C_14  and  C_15
REMARK    8  A    between atoms: C_18  and  O_19
REMARK    9  A    between atoms: O_19  and  C_20
REMARK                            x       y       z     vdW  Elec       q    Type
REMARK                         _______ _______ _______ _____ _____    ______ ____
ROOT
ATOM      1  C   UNL     1      -3.947  11.340  17.640  0.00  0.00    +0.000 C 
ATOM      2  C   UNL     1      -3.781  10.759  16.431  0.00  0.00    +0.000 C 
ATOM      3  C   UNL     1      -2.483  10.144  15.997  0.00  0.00    +0.000 C 
ATOM      4  C   UNL     1      -1.609   9.793  17.190  0.00  0.00    +0.000 C 
ATOM      5  N   UNL     1      -1.592  10.858  18.184  0.00  0.00    +0.000 N 
ATOM      6  C   UNL     1      -2.768  11.486  18.556  0.00  0.00    +0.000 C 
ATOM      7  O   UNL     1      -2.864  12.187  19.564  0.00  0.00    +0.000 OA
ENDROOT
BRANCH   1   9
ATOM      8  N   UNL     1      -5.855  11.493  19.152  0.00  0.00    +0.000 N 
ATOM      9  C   UNL     1      -5.285  11.919  17.981  0.00  0.00    +0.000 C 
ATOM     10  O   UNL     1      -5.837  12.727  17.234  0.00  0.00    +0.000 OA
ATOM     11  H   UNL     1      -5.352  10.817  19.730  0.00  0.00    +0.000 HD
BRANCH   8  12
ATOM     12  C   UNL     1      -7.205  11.887  19.546  0.00  0.00    +0.000 C 
BRANCH  12  14
ATOM     13  O   UNL     1      -7.380  11.282  21.891  0.00  0.00    +0.000 OA
ATOM     14  C   UNL     1      -7.329  12.159  21.042  0.00  0.00    +0.000 C 
BRANCH  14  15
ATOM     15  O   UNL     1      -7.330  13.477  21.357  0.00  0.00    +0.000 OA
ATOM     16  H   UNL     1      -7.067  14.011  20.580  0.00  0.00    +0.000 HD
ENDBRANCH  14  15
ENDBRANCH  12  14
ENDBRANCH   8  12
ENDBRANCH   1   9
BRANCH   2  17
ATOM     17  O   UNL     1      -4.771  10.661  15.465  0.00  0.00    +0.000 OA
ATOM     18  H   UNL     1      -4.708  11.433  14.854  0.00  0.00    +0.000 HD
ENDBRANCH   2  17
BRANCH   5  19
ATOM     19  C   UNL     1      -0.343  11.168  18.875  0.00  0.00    +0.000 C 
BRANCH  19  20
ATOM     20  C   UNL     1       0.608  10.014  19.025  0.00  0.00    +0.000 A 
ATOM     21  C   UNL     1       1.395   9.560  17.963  0.00  0.00    +0.000 A 
ATOM     22  C   UNL     1       2.200   8.428  18.133  0.00  0.00    +0.000 A 
ATOM     23  C   UNL     1       2.213   7.812  19.374  0.00  0.00    +0.000 A 
ATOM     24  N   UNL     1       1.464   8.225  20.419  0.00  0.00    +0.000 NA
ATOM     25  C   UNL     1       0.688   9.310  20.222  0.00  0.00    +0.000 A 
BRANCH  23  26
ATOM     26  O   UNL     1       3.016   6.686  19.513  0.00  0.00    +0.000 OA
BRANCH  26  27
ATOM     27  C   UNL     1       2.394   5.458  19.568  0.00  0.00    +0.000 A 
ATOM     28  C   UNL     1       1.534   5.081  20.608  0.00  0.00    +0.000 A 
ATOM     29  C   UNL     1       0.966   3.806  20.627  0.00  0.00    +0.000 A 
ATOM     30  C   UNL     1       1.281   2.893  19.623  0.00  0.00    +0.000 A 
ATOM     31  C   UNL     1       2.162   3.259  18.604  0.00  0.00    +0.000 A 
ATOM     32 CL   UNL     1       2.562   2.118  17.378  0.00  0.00    +0.000 Cl
ATOM     33  C   UNL     1       2.724   4.536  18.573  0.00  0.00    +0.000 A 
ENDBRANCH  26  27
ENDBRANCH  23  26
ENDBRANCH  19  20
ENDBRANCH   5  19
TORSDOF 9
ENDMDL
MODEL 4
REMARK VINA RESULT:      -7.6      2.507      4.047
REMARK  Name = 
REMARK  9 active torsions:
REMARK  status: ('A' for Active; 'I' for Inactive)
REMARK    1  A    between atoms: C_2  and  O_3
REMARK    2  A    between atoms: C_2  and  C_4
REMARK    3  A    between atoms: C_4  and  N_5
REMARK    4  A    between atoms: C_6  and  C_8
REMARK    5  A    between atoms: C_9  and  O_10
REMARK    6  A    between atoms: N_13  and  C_14
REMARK    7  A    between atoms: C_14  and  C_15
REMARK    8  A    between atoms: C_18  and  O_19
REMARK    9  A    between atoms: O_19  and  C_20
REMARK                            x       y       z     vdW  Elec       q    Type
REMARK                         _______ _______ _______ _____ _____    ______ ____
ROOT
ATOM      1  C   UNL     1       2.421   7.316  18.835  0.00  0.00    +0.000 C 
ATOM      2  C   UNL     1       2.270   6.959  20.130  0.00  0.00    +0.000 C 
ATOM      3  C   UNL     1       1.472   7.769  21.107  0.00  0.00    +0.000 C 
ATOM      4  C   UNL     1       0.480   8.676  20.398  0.00  0.00    +0.000 C 
ATOM      5  N   UNL     1       1.077   9.341  19.247  0.00  0.00    +0.000 N 
ATOM      6  C   UNL     1       1.870   8.630  18.363  0.00  0.00    +0.000 C 
ATOM      7  O   UNL     1       2.175   9.052  17.247  0.00  0.00    +0.000 OA
ENDROOT
BRANCH   1   9
ATOM      8  N   UNL     1       4.357   6.994  17.386  0.00  0.00    +0.000 N 
ATOM      9  C   UNL     1       3.232   6.435  17.936  0.00  0.00    +0.000 C 
ATOM     10  O   UNL     1       2.890   5.277  17.704  0.00  0.00    +0.000 OA
ATOM     11  H   UNL     1       4.589   7.962  17.611  0.00  0.00    +0.000 HD
BRANCH   8  12
ATOM     12  C   UNL     1       5.172   6.287  16.401  0.00  0.00    +0.000 C 
BRANCH  12  14
ATOM     13  O   UNL     1       7.547   6.076  15.944  0.00  0.00    +0.000 OA
ATOM     14  C   UNL     1       6.656   6.286  16.753  0.00  0.00    +0.000 C 
BRANCH  14  15
ATOM     15  O   UNL     1       6.909   6.588  18.050  0.00  0.00    +0.000 OA
ATOM     16  H   UNL     1       7.593   7.286  18.107  0.00  0.00    +0.000 HD
ENDBRANCH  14  15
ENDBRANCH  12  14
ENDBRANCH   8  12
ENDBRANCH   1   9
BRANCH   2  17
ATOM     17  O   UNL     1       2.822   5.822  20.699  0.00  0.00    +0.000 OA
ATOM     18  H   UNL     1       3.115   6.026  21.618  0.00  0.00    +0.000 HD
ENDBRANCH   2  17
BRANCH   5  19
ATOM     19  C   UNL     1       0.727  10.731  18.965  0.00  0.00    +0.000 C 
BRANCH  19  20
ATOM     20  C   UNL     1      -0.731  10.982  18.705  0.00  0.00    +0.000 A 
ATOM     21  C   UNL     1      -1.404  10.398  17.629  0.00  0.00    +0.000 A 
ATOM     22  C   UNL     1      -2.739  10.735  17.382  0.00  0.00    +0.000 A 
ATOM     23  C   UNL     1      -3.364  11.621  18.246  0.00  0.00    +0.000 A 
ATOM     24  N   UNL     1      -2.742  12.203  19.294  0.00  0.00    +0.000 NA
ATOM     25  C   UNL     1      -1.451  11.870  19.499  0.00  0.00    +0.000 A 
BRANCH  23  26
ATOM     26  O   UNL     1      -4.688  11.942  17.974  0.00  0.00    +0.000 OA
BRANCH  26  27
ATOM     27  C   UNL     1      -5.644  11.538  18.881  0.00  0.00    +0.000 A 
ATOM     28  C   UNL     1      -6.215  10.259  18.873  0.00  0.00    +0.000 A 
ATOM     29  C   UNL     1      -7.208   9.924  19.794  0.00  0.00    +0.000 A 
ATOM     30  C   UNL     1      -7.659  10.878  20.705  0.00  0.00    +0.000 A 
ATOM     31  C   UNL     1      -7.112  12.161  20.690  0.00  0.00    +0.000 A 
ATOM     32 CL   UNL     1      -7.688  13.341  21.805  0.00  0.00    +0.000 Cl
ATOM     33  C   UNL     1      -6.110  12.499  19.780  0.00  0.00    +0.000 A 
ENDBRANCH  26  27
ENDBRANCH  23  26
ENDBRANCH  19  20
ENDBRANCH   5  19
TORSDOF 9
ENDMDL
MODEL 5
REMARK VINA RESULT:      -7.5      4.142     10.288
REMARK  Name = 
REMARK  9 active torsions:
REMARK  status: ('A' for Active; 'I' for Inactive)
REMARK    1  A    between atoms: C_2  and  O_3
REMARK    2  A    between atoms: C_2  and  C_4
REMARK    3  A    between atoms: C_4  and  N_5
REMARK    4  A    between atoms: C_6  and  C_8
REMARK    5  A    between atoms: C_9  and  O_10
REMARK    6  A    between atoms: N_13  and  C_14
REMARK    7  A    between atoms: C_14  and  C_15
REMARK    8  A    between atoms: C_18  and  O_19
REMARK    9  A    between atoms: O_19  and  C_20
REMARK                            x       y       z     vdW  Elec       q    Type
REMARK                         _______ _______ _______ _____ _____    ______ ____
ROOT
ATOM      1  C   UNL     1      -3.748  11.452  17.879  0.00  0.00    +0.000 C 
ATOM      2  C   UNL     1      -3.742  10.878  16.655  0.00  0.00    +0.000 C 
ATOM      3  C   UNL     1      -2.539  10.183  16.091  0.00  0.00    +0.000 C 
ATOM      4  C   UNL     1      -1.578   9.757  17.188  0.00  0.00    +0.000 C 
ATOM      5  N   UNL     1      -1.389  10.804  18.183  0.00  0.00    +0.000 N 
ATOM      6  C   UNL     1      -2.476  11.505  18.675  0.00  0.00    +0.000 C 
ATOM      7  O   UNL     1      -2.424  12.197  19.692  0.00  0.00    +0.000 OA
ENDROOT
BRANCH   1   9
ATOM      8  N   UNL     1      -5.612  12.973  17.477  0.00  0.00    +0.000 N 
ATOM      9  C   UNL     1      -5.002  12.116  18.356  0.00  0.00    +0.000 C 
ATOM     10  O   UNL     1      -5.445  11.903  19.484  0.00  0.00    +0.000 OA
ATOM     11  H   UNL     1      -5.196  13.115  16.555  0.00  0.00    +0.000 HD
BRANCH   8  12
ATOM     12  C   UNL     1      -6.773  13.775  17.854  0.00  0.00    +0.000 C 
BRANCH  12  14
ATOM     13  O   UNL     1      -6.954  15.186  15.887  0.00  0.00    +0.000 OA
ATOM     14  C   UNL     1      -6.847  15.099  17.101  0.00  0.00    +0.000 C 
BRANCH  14  15
ATOM     15  O   UNL     1      -6.832  16.187  17.909  0.00  0.00    +0.000 OA
ATOM     16  H   UNL     1      -7.722  16.593  17.946  0.00  0.00    +0.000 HD
ENDBRANCH  14  15
ENDBRANCH  12  14
ENDBRANCH   8  12
ENDBRANCH   1   9
BRANCH   2  17
ATOM     17  O   UNL     1      -4.827  10.861  15.792  0.00  0.00    +0.000 OA
ATOM     18  H   UNL     1      -4.774  11.638  15.187  0.00  0.00    +0.000 HD
ENDBRANCH   2  17
BRANCH   5  19
ATOM     19  C   UNL     1      -0.060  11.019  18.749  0.00  0.00    +0.000 C 
BRANCH  19  20
ATOM     20  C   UNL     1       0.703   9.768  19.083  0.00  0.00    +0.000 A 
ATOM     21  C   UNL     1       0.719   9.232  20.373  0.00  0.00    +0.000 A 
ATOM     22  C   UNL     1       1.515   8.115  20.648  0.00  0.00    +0.000 A 
ATOM     23  C   UNL     1       2.241   7.553  19.610  0.00  0.00    +0.000 A 
ATOM     24  N   UNL     1       2.247   8.048  18.352  0.00  0.00    +0.000 NA
ATOM     25  C   UNL     1       1.481   9.133  18.120  0.00  0.00    +0.000 A 
BRANCH  23  26
ATOM     26  O   UNL     1       3.027   6.448  19.912  0.00  0.00    +0.000 OA
BRANCH  26  27
ATOM     27  C   UNL     1       2.456   5.201  19.782  0.00  0.00    +0.000 A 
ATOM     28  C   UNL     1       1.342   4.787  20.523  0.00  0.00    +0.000 A 
ATOM     29  C   UNL     1       0.835   3.496  20.374  0.00  0.00    +0.000 A 
ATOM     30  C   UNL     1       1.461   2.601  19.508  0.00  0.00    +0.000 A 
ATOM     31  C   UNL     1       2.590   3.005  18.794  0.00  0.00    +0.000 A 
ATOM     32 CL   UNL     1       3.370   1.888  17.740  0.00  0.00    +0.000 Cl
ATOM     33  C   UNL     1       3.094   4.298  18.929  0.00  0.00    +0.000 A 
ENDBRANCH  26  27
ENDBRANCH  23  26
ENDBRANCH  19  20
ENDBRANCH   5  19
TORSDOF 9
ENDMDL
MODEL 6
REMARK VINA RESULT:      -7.5      1.374      1.878
REMARK  Name = 
REMARK  9 active torsions:
REMARK  status: ('A' for Active; 'I' for Inactive)
REMARK    1  A    between atoms: C_2  and  O_3
REMARK    2  A    between atoms: C_2  and  C_4
REMARK    3  A    between atoms: C_4  and  N_5
REMARK    4  A    between atoms: C_6  and  C_8
REMARK    5  A    between atoms: C_9  and  O_10
REMARK    6  A    between atoms: N_13  and  C_14
REMARK    7  A    between atoms: C_14  and  C_15
REMARK    8  A    between atoms: C_18  and  O_19
REMARK    9  A    between atoms: O_19  and  C_20
REMARK                            x       y       z     vdW  Elec       q    Type
REMARK                         _______ _______ _______ _____ _____    ______ ____
ROOT
ATOM      1  C   UNL     1       3.881   3.833  18.425  0.00  0.00    +0.000 C 
ATOM      2  C   UNL     1       3.096   2.733  18.482  0.00  0.00    +0.000 C 
ATOM      3  C   UNL     1       1.819   2.688  19.266  0.00  0.00    +0.000 C 
ATOM      4  C   UNL     1       1.274   4.084  19.522  0.00  0.00    +0.000 C 
ATOM      5  N   UNL     1       2.322   5.010  19.928  0.00  0.00    +0.000 N 
ATOM      6  C   UNL     1       3.536   5.029  19.262  0.00  0.00    +0.000 C 
ATOM      7  O   UNL     1       4.346   5.950  19.370  0.00  0.00    +0.000 OA
ENDROOT
BRANCH   1   9
ATOM      8  N   UNL     1       6.272   4.259  18.204  0.00  0.00    +0.000 N 
ATOM      9  C   UNL     1       5.135   3.779  17.608  0.00  0.00    +0.000 C 
ATOM     10  O   UNL     1       5.127   3.336  16.461  0.00  0.00    +0.000 OA
ATOM     11  H   UNL     1       6.218   4.619  19.158  0.00  0.00    +0.000 HD
BRANCH   8  12
ATOM     12  C   UNL     1       7.537   4.374  17.481  0.00  0.00    +0.000 C 
BRANCH  12  14
ATOM     13  O   UNL     1       7.548   6.640  16.610  0.00  0.00    +0.000 OA
ATOM     14  C   UNL     1       7.499   5.439  16.390  0.00  0.00    +0.000 C 
BRANCH  14  15
ATOM     15  O   UNL     1       7.454   4.931  15.135  0.00  0.00    +0.000 OA
ATOM     16  H   UNL     1       7.739   5.608  14.486  0.00  0.00    +0.000 HD
ENDBRANCH  14  15
ENDBRANCH  12  14
ENDBRANCH   8  12
ENDBRANCH   1   9
BRANCH   2  17
ATOM     17  O   UNL     1       3.372   1.539  17.834  0.00  0.00    +0.000 OA
ATOM     18  H   UNL     1       2.620   0.915  17.966  0.00  0.00    +0.000 HD
ENDBRANCH   2  17
BRANCH   5  19
ATOM     19  C   UNL     1       2.035   6.004  20.959  0.00  0.00    +0.000 C 
BRANCH  19  20
ATOM     20  C   UNL     1       1.528   7.324  20.452  0.00  0.00    +0.000 A 
ATOM     21  C   UNL     1       1.894   7.828  19.201  0.00  0.00    +0.000 A 
ATOM     22  C   UNL     1       1.463   9.101  18.814  0.00  0.00    +0.000 A 
ATOM     23  C   UNL     1       0.648   9.810  19.682  0.00  0.00    +0.000 A 
ATOM     24  N   UNL     1       0.277   9.352  20.898  0.00  0.00    +0.000 NA
ATOM     25  C   UNL     1       0.720   8.128  21.249  0.00  0.00    +0.000 A 
BRANCH  23  26
ATOM     26  O   UNL     1       0.238  11.074  19.275  0.00  0.00    +0.000 OA
BRANCH  26  27
ATOM     27  C   UNL     1      -1.065  11.220  18.854  0.00  0.00    +0.000 A 
ATOM     28  C   UNL     1      -2.023  11.953  19.566  0.00  0.00    +0.000 A 
ATOM     29  C   UNL     1      -3.338  12.030  19.106  0.00  0.00    +0.000 A 
ATOM     30  C   UNL     1      -3.709  11.347  17.949  0.00  0.00    +0.000 A 
ATOM     31  C   UNL     1      -2.761  10.592  17.257  0.00  0.00    +0.000 A 
ATOM     32 CL   UNL     1      -3.230   9.736  15.840  0.00  0.00    +0.000 Cl
ATOM     33  C   UNL     1      -1.442  10.521  17.705  0.00  0.00    +0.000 A 
ENDBRANCH  26  27
ENDBRANCH  23  26
ENDBRANCH  19  20
ENDBRANCH   5  19
TORSDOF 9
ENDMDL
MODEL 7
REMARK VINA RESULT:      -7.4      2.227      3.596
REMARK  Name = 
REMARK  9 active torsions:
REMARK  status: ('A' for Active; 'I' for Inactive)
REMARK    1  A    between atoms: C_2  and  O_3
REMARK    2  A    between atoms: C_2  and  C_4
REMARK    3  A    between atoms: C_4  and  N_5
REMARK    4  A    between atoms: C_6  and  C_8
REMARK    5  A    between atoms: C_9  and  O_10
REMARK    6  A    between atoms: N_13  and  C_14
REMARK    7  A    between atoms: C_14  and  C_15
REMARK    8  A    between atoms: C_18  and  O_19
REMARK    9  A    between atoms: O_19  and  C_20
REMARK                            x       y       z     vdW  Elec       q    Type
REMARK                         _______ _______ _______ _____ _____    ______ ____
ROOT
ATOM      1  C   UNL     1       6.069   4.602  16.684  0.00  0.00    +0.000 C 
ATOM      2  C   UNL     1       6.901   4.746  17.739  0.00  0.00    +0.000 C 
ATOM      3  C   UNL     1       6.418   4.757  19.158  0.00  0.00    +0.000 C 
ATOM      4  C   UNL     1       5.057   4.093  19.287  0.00  0.00    +0.000 C 
ATOM      5  N   UNL     1       4.148   4.505  18.225  0.00  0.00    +0.000 N 
ATOM      6  C   UNL     1       4.587   4.564  16.913  0.00  0.00    +0.000 C 
ATOM      7  O   UNL     1       3.820   4.637  15.953  0.00  0.00    +0.000 OA
ENDROOT
BRANCH   1   9
ATOM      8  N   UNL     1       5.993   3.844  14.366  0.00  0.00    +0.000 N 
ATOM      9  C   UNL     1       6.651   4.596  15.304  0.00  0.00    +0.000 C 
ATOM     10  O   UNL     1       7.674   5.229  15.043  0.00  0.00    +0.000 OA
ATOM     11  H   UNL     1       5.151   3.336  14.641  0.00  0.00    +0.000 HD
BRANCH   8  12
ATOM     12  C   UNL     1       6.516   3.656  13.015  0.00  0.00    +0.000 C 
BRANCH  12  14
ATOM     13  O   UNL     1       4.462   3.410  11.744  0.00  0.00    +0.000 OA
ATOM     14  C   UNL     1       5.534   2.939  12.095  0.00  0.00    +0.000 C 
BRANCH  14  15
ATOM     15  O   UNL     1       5.979   1.737  11.655  0.00  0.00    +0.000 OA
ATOM     16  H   UNL     1       6.945   1.661  11.798  0.00  0.00    +0.000 HD
ENDBRANCH  14  15
ENDBRANCH  12  14
ENDBRANCH   8  12
ENDBRANCH   1   9
BRANCH   2  17
ATOM     17  O   UNL     1       8.276   4.894  17.638  0.00  0.00    +0.000 OA
ATOM     18  H   UNL     1       8.712   4.027  17.815  0.00  0.00    +0.000 HD
ENDBRANCH   2  17
BRANCH   5  19
ATOM     19  C   UNL     1       2.740   4.731  18.539  0.00  0.00    +0.000 C 
BRANCH  19  20
ATOM     20  C   UNL     1       2.388   6.142  18.919  0.00  0.00    +0.000 A 
ATOM     21  C   UNL     1       1.902   6.470  20.187  0.00  0.00    +0.000 A 
ATOM     22  C   UNL     1       1.508   7.784  20.459  0.00  0.00    +0.000 A 
ATOM     23  C   UNL     1       1.650   8.733  19.459  0.00  0.00    +0.000 A 
ATOM     24  N   UNL     1       2.116   8.449  18.223  0.00  0.00    +0.000 NA
ATOM     25  C   UNL     1       2.475   7.170  17.985  0.00  0.00    +0.000 A 
BRANCH  23  26
ATOM     26  O   UNL     1       1.247  10.029  19.754  0.00  0.00    +0.000 OA
BRANCH  26  27
ATOM     27  C   UNL     1       0.001  10.428  19.318  0.00  0.00    +0.000 A 
ATOM     28  C   UNL     1      -0.559   9.999  18.108  0.00  0.00    +0.000 A 
ATOM     29  C   UNL     1      -1.809  10.471  17.703  0.00  0.00    +0.000 A 
ATOM     30  C   UNL     1      -2.488  11.398  18.492  0.00  0.00    +0.000 A 
ATOM     31  C   UNL     1      -1.914  11.847  19.682  0.00  0.00    +0.000 A 
ATOM     32 CL   UNL     1      -2.750  13.007  20.640  0.00  0.00    +0.000 Cl
ATOM     33  C   UNL     1      -0.671  11.370  20.097  0.00  0.00    +0.000 A 
ENDBRANCH  26  27
ENDBRANCH  23  26
ENDBRANCH  19  20
ENDBRANCH   5  19
TORSDOF 9
ENDMDL
MODEL 8
REMARK VINA RESULT:      -7.4      0.967      1.528
REMARK  Name = 
REMARK  9 active torsions:
REMARK  status: ('A' for Active; 'I' for Inactive)
REMARK    1  A    between atoms: C_2  and  O_3
REMARK    2  A    between atoms: C_2  and  C_4
REMARK    3  A    between atoms: C_4  and  N_5
REMARK    4  A    between atoms: C_6  and  C_8
REMARK    5  A    between atoms: C_9  and  O_10
REMARK    6  A    between atoms: N_13  and  C_14
REMARK    7  A    between atoms: C_14  and  C_15
REMARK    8  A    between atoms: C_18  and  O_19
REMARK    9  A    between atoms: O_19  and  C_20
REMARK                            x       y       z     vdW  Elec       q    Type
REMARK                         _______ _______ _______ _____ _____    ______ ____
ROOT
ATOM      1  C   UNL     1       3.100   3.699  18.527  0.00  0.00    +0.000 C 
ATOM      2  C   UNL     1       2.157   2.819  18.932  0.00  0.00    +0.000 C 
ATOM      3  C   UNL     1       1.081   3.177  19.914  0.00  0.00    +0.000 C 
ATOM      4  C   UNL     1       0.864   4.680  19.976  0.00  0.00    +0.000 C 
ATOM      5  N   UNL     1       2.124   5.411  20.008  0.00  0.00    +0.000 N 
ATOM      6  C   UNL     1       3.157   5.060  19.156  0.00  0.00    +0.000 C 
ATOM      7  O   UNL     1       4.126   5.789  18.942  0.00  0.00    +0.000 OA
ENDROOT
BRANCH   1   9
ATOM      8  N   UNL     1       4.679   4.216  16.741  0.00  0.00    +0.000 N 
ATOM      9  C   UNL     1       4.128   3.246  17.537  0.00  0.00    +0.000 C 
ATOM     10  O   UNL     1       4.444   2.061  17.447  0.00  0.00    +0.000 OA
ATOM     11  H   UNL     1       4.374   5.184  16.857  0.00  0.00    +0.000 HD
BRANCH   8  12
ATOM     12  C   UNL     1       5.604   3.897  15.657  0.00  0.00    +0.000 C 
BRANCH  12  14
ATOM     13  O   UNL     1       7.508   5.252  14.999  0.00  0.00    +0.000 OA
ATOM     14  C   UNL     1       6.974   4.543  15.839  0.00  0.00    +0.000 C 
BRANCH  14  15
ATOM     15  O   UNL     1       7.535   4.299  17.048  0.00  0.00    +0.000 OA
ATOM     16  H   UNL     1       8.197   4.989  17.259  0.00  0.00    +0.000 HD
ENDBRANCH  14  15
ENDBRANCH  12  14
ENDBRANCH   8  12
ENDBRANCH   1   9
BRANCH   2  17
ATOM     17  O   UNL     1       2.072   1.506  18.497  0.00  0.00    +0.000 OA
ATOM     18  H   UNL     1       2.892   1.272  18.001  0.00  0.00    +0.000 HD
ENDBRANCH   2  17
BRANCH   5  19
ATOM     19  C   UNL     1       2.241   6.595  20.855  0.00  0.00    +0.000 C 
BRANCH  19  20
ATOM     20  C   UNL     1       1.666   7.855  20.274  0.00  0.00    +0.000 A 
ATOM     21  C   UNL     1       1.881   8.224  18.943  0.00  0.00    +0.000 A 
ATOM     22  C   UNL     1       1.395   9.450  18.478  0.00  0.00    +0.000 A 
ATOM     23  C   UNL     1       0.681  10.250  19.356  0.00  0.00    +0.000 A 
ATOM     24  N   UNL     1       0.457   9.924  20.648  0.00  0.00    +0.000 NA
ATOM     25  C   UNL     1       0.949   8.742  21.072  0.00  0.00    +0.000 A 
BRANCH  23  26
ATOM     26  O   UNL     1       0.215  11.466  18.869  0.00  0.00    +0.000 OA
BRANCH  26  27
ATOM     27  C   UNL     1      -1.148  11.663  18.835  0.00  0.00    +0.000 A 
ATOM     28  C   UNL     1      -1.873  12.191  19.911  0.00  0.00    +0.000 A 
ATOM     29  C   UNL     1      -3.259  12.329  19.829  0.00  0.00    +0.000 A 
ATOM     30  C   UNL     1      -3.930  11.908  18.682  0.00  0.00    +0.000 A 
ATOM     31  C   UNL     1      -3.210  11.353  17.623  0.00  0.00    +0.000 A 
ATOM     32 CL   UNL     1      -4.048  10.816  16.218  0.00  0.00    +0.000 Cl
ATOM     33  C   UNL     1      -1.823  11.224  17.695  0.00  0.00    +0.000 A 
ENDBRANCH  26  27
ENDBRANCH  23  26
ENDBRANCH  19  20
ENDBRANCH   5  19
TORSDOF 9
ENDMDL
MODEL 9
REMARK VINA RESULT:      -7.3      3.925     10.070
REMARK  Name = 
REMARK  9 active torsions:
REMARK  status: ('A' for Active; 'I' for Inactive)
REMARK    1  A    between atoms: C_2  and  O_3
REMARK    2  A    between atoms: C_2  and  C_4
REMARK    3  A    between atoms: C_4  and  N_5
REMARK    4  A    between atoms: C_6  and  C_8
REMARK    5  A    between atoms: C_9  and  O_10
REMARK    6  A    between atoms: N_13  and  C_14
REMARK    7  A    between atoms: C_14  and  C_15
REMARK    8  A    between atoms: C_18  and  O_19
REMARK    9  A    between atoms: O_19  and  C_20
REMARK                            x       y       z     vdW  Elec       q    Type
REMARK                         _______ _______ _______ _____ _____    ______ ____
ROOT
ATOM      1  C   UNL     1      -2.930  12.087  19.561  0.00  0.00    +0.000 C 
ATOM      2  C   UNL     1      -3.710  11.593  18.573  0.00  0.00    +0.000 C 
ATOM      3  C   UNL     1      -3.172  10.740  17.464  0.00  0.00    +0.000 C 
ATOM      4  C   UNL     1      -1.851  10.094  17.850  0.00  0.00    +0.000 C 
ATOM      5  N   UNL     1      -0.960  11.035  18.516  0.00  0.00    +0.000 N 
ATOM      6  C   UNL     1      -1.445  11.879  19.501  0.00  0.00    +0.000 C 
ATOM      7  O   UNL     1      -0.713  12.491  20.279  0.00  0.00    +0.000 OA
ENDROOT
BRANCH   1   9
ATOM      8  N   UNL     1      -4.495  12.301  21.419  0.00  0.00    +0.000 N 
ATOM      9  C   UNL     1      -3.565  12.923  20.628  0.00  0.00    +0.000 C 
ATOM     10  O   UNL     1      -3.265  14.108  20.770  0.00  0.00    +0.000 OA
ATOM     11  H   UNL     1      -4.707  11.316  21.253  0.00  0.00    +0.000 HD
BRANCH   8  12
ATOM     12  C   UNL     1      -5.274  13.027  22.419  0.00  0.00    +0.000 C 
BRANCH  12  14
ATOM     13  O   UNL     1      -4.100  11.930  24.239  0.00  0.00    +0.000 OA
ATOM     14  C   UNL     1      -4.685  12.918  23.821  0.00  0.00    +0.000 C 
BRANCH  14  15
ATOM     15  O   UNL     1      -4.827  14.045  24.560  0.00  0.00    +0.000 OA
ATOM     16  H   UNL     1      -5.677  14.026  25.047  0.00  0.00    +0.000 HD
ENDBRANCH  14  15
ENDBRANCH  12  14
ENDBRANCH   8  12
ENDBRANCH   1   9
BRANCH   2  17
ATOM     17  O   UNL     1      -5.076  11.809  18.471  0.00  0.00    +0.000 OA
ATOM     18  H   UNL     1      -5.362  11.655  17.540  0.00  0.00    +0.000 HD
ENDBRANCH   2  17
BRANCH   5  19
ATOM     19  C   UNL     1       0.471  10.990  18.227  0.00  0.00    +0.000 C 
BRANCH  19  20
ATOM     20  C   UNL     1       1.178   9.749  18.692  0.00  0.00    +0.000 A 
ATOM     21  C   UNL     1       1.911   8.941  17.818  0.00  0.00    +0.000 A 
ATOM     22  C   UNL     1       2.478   7.751  18.286  0.00  0.00    +0.000 A 
ATOM     23  C   UNL     1       2.318   7.429  19.624  0.00  0.00    +0.000 A 
ATOM     24  N   UNL     1       1.615   8.187  20.494  0.00  0.00    +0.000 NA
ATOM     25  C   UNL     1       1.068   9.322  20.011  0.00  0.00    +0.000 A 
BRANCH  23  26
ATOM     26  O   UNL     1       2.886   6.238  20.061  0.00  0.00    +0.000 OA
BRANCH  26  27
ATOM     27  C   UNL     1       2.223   5.067  19.766  0.00  0.00    +0.000 A 
ATOM     28  C   UNL     1       1.155   4.578  20.529  0.00  0.00    +0.000 A 
ATOM     29  C   UNL     1       0.551   3.363  20.201  0.00  0.00    +0.000 A 
ATOM     30  C   UNL     1       1.034   2.617  19.129  0.00  0.00    +0.000 A 
ATOM     31  C   UNL     1       2.119   3.090  18.389  0.00  0.00    +0.000 A 
ATOM     32 CL   UNL     1       2.723   2.152  17.077  0.00  0.00    +0.000 Cl
ATOM     33  C   UNL     1       2.719   4.309  18.704  0.00  0.00    +0.000 A 
ENDBRANCH  26  27
ENDBRANCH  23  26
ENDBRANCH  19  20
ENDBRANCH   5  19
TORSDOF 9
ENDMDL
