MODEL 1
REMARK VINA RESULT:      -8.1      0.000      0.000
REMARK  Name = 
REMARK  10 active torsions:
REMARK  status: ('A' for Active; 'I' for Inactive)
REMARK    1  A    between atoms: C_1  and  O_2
REMARK    2  A    between atoms: O_2  and  C_3
REMARK    3  A    between atoms: C_3  and  C_5
REMARK    4  A    between atoms: C_8  and  S_9
REMARK    5  A    between atoms: S_9  and  N_12
REMARK    6  A    between atoms: N_12  and  C_13
REMARK    7  A    between atoms: N_12  and  C_18
REMARK    8  A    between atoms: C_13  and  C_14
REMARK    9  A    between atoms: C_14  and  C_15
REMARK   10  A    between atoms: C_26  and  C_27
REMARK                            x       y       z     vdW  Elec       q    Type
REMARK                         _______ _______ _______ _____ _____    ______ ____
ROOT
ATOM      1  N   UNL     1       3.409   4.791  19.129  0.00  0.00    +0.000 N 
ENDROOT
BRANCH   1   2
ATOM      2  C   UNL     1       3.054   6.202  19.185  0.00  0.00    +0.000 A 
ATOM      3  S   UNL     1       2.220   6.747  20.566  0.00  0.00    +0.000 S 
ATOM      4  C   UNL     1       1.718   8.195  19.801  0.00  0.00    +0.000 A 
ATOM      5  C   UNL     1       0.873   9.177  20.358  0.00  0.00    +0.000 A 
ATOM      6  C   UNL     1       0.518  10.289  19.598  0.00  0.00    +0.000 A 
ATOM      7  C   UNL     1       0.995  10.426  18.304  0.00  0.00    +0.000 A 
ATOM      8  C   UNL     1       1.855   9.458  17.762  0.00  0.00    +0.000 A 
ATOM      9  C   UNL     1       2.242   8.308  18.513  0.00  0.00    +0.000 A 
ATOM     10  C   UNL     1       3.118   7.176  18.189  0.00  0.00    +0.000 A 
ATOM     11  C   UNL     1       3.940   7.139  16.932  0.00  0.00    +0.000 C 
ENDBRANCH   1   2
BRANCH   1  12
ATOM     12  S   UNL     1       5.093   4.457  19.133  0.00  0.00    +0.000 S 
ATOM     13  O   UNL     1       5.336   3.131  19.666  0.00  0.00    +0.000 OA
ATOM     14  O   UNL     1       5.756   5.617  19.700  0.00  0.00    +0.000 OA
BRANCH  12  18
ATOM     15  C   UNL     1       6.379   4.323  14.667  0.00  0.00    +0.000 A 
ATOM     16  C   UNL     1       7.280   4.746  15.653  0.00  0.00    +0.000 A 
ATOM     17  C   UNL     1       6.898   4.768  17.010  0.00  0.00    +0.000 A 
ATOM     18  C   UNL     1       5.609   4.363  17.396  0.00  0.00    +0.000 A 
ATOM     19  C   UNL     1       4.748   3.829  16.430  0.00  0.00    +0.000 A 
ATOM     20  C   UNL     1       5.128   3.824  15.072  0.00  0.00    +0.000 A 
BRANCH  15  21
ATOM     21  C   UNL     1       6.673   4.407  13.198  0.00  0.00    +0.000 C 
ATOM     22  O   UNL     1       7.612   5.019  12.735  0.00  0.00    +0.000 OA
BRANCH  21  24
ATOM     23  C   UNL     1       6.403   2.504  11.834  0.00  0.00    +0.000 C 
ATOM     24  O   UNL     1       5.801   3.628  12.491  0.00  0.00    +0.000 OA
ENDBRANCH  21  24
ENDBRANCH  15  21
ENDBRANCH  12  18
ENDBRANCH   1  12
BRANCH   1  25
ATOM     25  C   UNL     1       2.499   3.938  18.314  0.00  0.00    +0.000 C 
BRANCH  25  26
ATOM     26  C   UNL     1       1.672   2.942  19.124  0.00  0.00    +0.000 C 
BRANCH  26  27
ATOM     27  C   UNL     1       1.428   3.310  20.563  0.00  0.00    +0.000 C 
ATOM     28  C   UNL     1       1.135   2.331  21.671  0.00  0.00    +0.000 C 
ATOM     29  C   UNL     1       2.490   2.974  21.581  0.00  0.00    +0.000 C 
ENDBRANCH  26  27
ENDBRANCH  25  26
ENDBRANCH   1  25
TORSDOF 8
ENDMDL
MODEL 2
REMARK VINA RESULT:      -8.0      0.683      1.179
REMARK  Name = 
REMARK  10 active torsions:
REMARK  status: ('A' for Active; 'I' for Inactive)
REMARK    1  A    between atoms: C_1  and  O_2
REMARK    2  A    between atoms: O_2  and  C_3
REMARK    3  A    between atoms: C_3  and  C_5
REMARK    4  A    between atoms: C_8  and  S_9
REMARK    5  A    between atoms: S_9  and  N_12
REMARK    6  A    between atoms: N_12  and  C_13
REMARK    7  A    between atoms: N_12  and  C_18
REMARK    8  A    between atoms: C_13  and  C_14
REMARK    9  A    between atoms: C_14  and  C_15
REMARK   10  A    between atoms: C_26  and  C_27
REMARK                            x       y       z     vdW  Elec       q    Type
REMARK                         _______ _______ _______ _____ _____    ______ ____
ROOT
ATOM      1  N   UNL     1       3.343   4.804  18.839  0.00  0.00    +0.000 N 
ENDROOT
BRANCH   1   2
ATOM      2  C   UNL     1       2.977   6.197  19.050  0.00  0.00    +0.000 A 
ATOM      3  S   UNL     1       2.201   6.593  20.513  0.00  0.00    +0.000 S 
ATOM      4  C   UNL     1       1.651   8.101  19.918  0.00  0.00    +0.000 A 
ATOM      5  C   UNL     1       0.823   9.012  20.606  0.00  0.00    +0.000 A 
ATOM      6  C   UNL     1       0.423  10.188  19.975  0.00  0.00    +0.000 A 
ATOM      7  C   UNL     1       0.840  10.458  18.682  0.00  0.00    +0.000 A 
ATOM      8  C   UNL     1       1.683   9.560  18.009  0.00  0.00    +0.000 A 
ATOM      9  C   UNL     1       2.116   8.348  18.625  0.00  0.00    +0.000 A 
ATOM     10  C   UNL     1       2.986   7.265  18.153  0.00  0.00    +0.000 A 
ATOM     11  C   UNL     1       3.751   7.362  16.863  0.00  0.00    +0.000 C 
ENDBRANCH   1   2
BRANCH   1  12
ATOM     12  S   UNL     1       5.024   4.467  18.908  0.00  0.00    +0.000 S 
ATOM     13  O   UNL     1       5.240   3.067  19.214  0.00  0.00    +0.000 OA
ATOM     14  O   UNL     1       5.634   5.506  19.718  0.00  0.00    +0.000 OA
BRANCH  12  18
ATOM     15  C   UNL     1       6.737   4.918  14.609  0.00  0.00    +0.000 A 
ATOM     16  C   UNL     1       5.585   4.154  14.838  0.00  0.00    +0.000 A 
ATOM     17  C   UNL     1       5.052   4.033  16.138  0.00  0.00    +0.000 A 
ATOM     18  C   UNL     1       5.667   4.679  17.224  0.00  0.00    +0.000 A 
ATOM     19  C   UNL     1       6.747   5.536  16.982  0.00  0.00    +0.000 A 
ATOM     20  C   UNL     1       7.286   5.641  15.682  0.00  0.00    +0.000 A 
BRANCH  15  21
ATOM     21  C   UNL     1       7.433   4.974  13.281  0.00  0.00    +0.000 C 
ATOM     22  O   UNL     1       8.532   5.462  13.118  0.00  0.00    +0.000 OA
BRANCH  21  24
ATOM     23  C   UNL     1       7.304   3.111  11.843  0.00  0.00    +0.000 C 
ATOM     24  O   UNL     1       6.702   4.318  12.330  0.00  0.00    +0.000 OA
ENDBRANCH  21  24
ENDBRANCH  15  21
ENDBRANCH  12  18
ENDBRANCH   1  12
BRANCH   1  25
ATOM     25  C   UNL     1       2.490   4.062  17.867  0.00  0.00    +0.000 C 
BRANCH  25  26
ATOM     26  C   UNL     1       1.067   3.794  18.349  0.00  0.00    +0.000 C 
BRANCH  26  27
ATOM     27  C   UNL     1       0.914   2.686  19.357  0.00  0.00    +0.000 C 
ATOM     28  C   UNL     1       2.008   2.185  20.266  0.00  0.00    +0.000 C 
ATOM     29  C   UNL     1       0.908   3.044  20.823  0.00  0.00    +0.000 C 
ENDBRANCH  26  27
ENDBRANCH  25  26
ENDBRANCH   1  25
TORSDOF 8
ENDMDL
MODEL 3
REMARK VINA RESULT:      -7.9      5.699     10.905
REMARK  Name = 
REMARK  10 active torsions:
REMARK  status: ('A' for Active; 'I' for Inactive)
REMARK    1  A    between atoms: C_1  and  O_2
REMARK    2  A    between atoms: O_2  and  C_3
REMARK    3  A    between atoms: C_3  and  C_5
REMARK    4  A    between atoms: C_8  and  S_9
REMARK    5  A    between atoms: S_9  and  N_12
REMARK    6  A    between atoms: N_12  and  C_13
REMARK    7  A    between atoms: N_12  and  C_18
REMARK    8  A    between atoms: C_13  and  C_14
REMARK    9  A    between atoms: C_14  and  C_15
REMARK   10  A    between atoms: C_26  and  C_27
REMARK                            x       y       z     vdW  Elec       q    Type
REMARK                         _______ _______ _______ _____ _____    ______ ____
ROOT
ATOM      1  N   UNL     1       0.029  10.751  19.087  0.00  0.00    +0.000 N 
ENDROOT
BRANCH   1   2
ATOM      2  C   UNL     1       1.038   9.705  19.178  0.00  0.00    +0.000 A 
ATOM      3  S   UNL     1       2.119   9.540  17.873  0.00  0.00    +0.000 S 
ATOM      4  C   UNL     1       2.608   7.973  18.360  0.00  0.00    +0.000 A 
ATOM      5  C   UNL     1       3.498   7.128  17.664  0.00  0.00    +0.000 A 
ATOM      6  C   UNL     1       3.772   5.858  18.166  0.00  0.00    +0.000 A 
ATOM      7  C   UNL     1       3.175   5.432  19.340  0.00  0.00    +0.000 A 
ATOM      8  C   UNL     1       2.308   6.283  20.042  0.00  0.00    +0.000 A 
ATOM      9  C   UNL     1       2.007   7.593  19.560  0.00  0.00    +0.000 A 
ATOM     10  C   UNL     1       1.158   8.663  20.097  0.00  0.00    +0.000 A 
ATOM     11  C   UNL     1       0.530   8.575  21.460  0.00  0.00    +0.000 C 
ENDBRANCH   1   2
BRANCH   1  12
ATOM     12  S   UNL     1       0.321  12.139  20.055  0.00  0.00    +0.000 S 
ATOM     13  O   UNL     1       0.270  13.335  19.238  0.00  0.00    +0.000 OA
ATOM     14  O   UNL     1       1.483  11.850  20.874  0.00  0.00    +0.000 OA
BRANCH  12  18
ATOM     15  C   UNL     1      -3.243  12.616  23.003  0.00  0.00    +0.000 A 
ATOM     16  C   UNL     1      -3.284  13.213  21.736  0.00  0.00    +0.000 A 
ATOM     17  C   UNL     1      -2.213  13.052  20.833  0.00  0.00    +0.000 A 
ATOM     18  C   UNL     1      -1.089  12.288  21.188  0.00  0.00    +0.000 A 
ATOM     19  C   UNL     1      -1.096  11.594  22.404  0.00  0.00    +0.000 A 
ATOM     20  C   UNL     1      -2.162  11.771  23.310  0.00  0.00    +0.000 A 
BRANCH  15  21
ATOM     21  C   UNL     1      -4.280  12.861  24.059  0.00  0.00    +0.000 C 
ATOM     22  O   UNL     1      -4.818  11.975  24.690  0.00  0.00    +0.000 OA
BRANCH  21  24
ATOM     23  C   UNL     1      -3.371  14.833  24.973  0.00  0.00    +0.000 C 
ATOM     24  O   UNL     1      -4.445  14.202  24.263  0.00  0.00    +0.000 OA
ENDBRANCH  21  24
ENDBRANCH  15  21
ENDBRANCH  12  18
ENDBRANCH   1  12
BRANCH   1  25
ATOM     25  C   UNL     1      -1.370  10.273  18.901  0.00  0.00    +0.000 C 
BRANCH  25  26
ATOM     26  C   UNL     1      -1.742   9.946  17.457  0.00  0.00    +0.000 C 
BRANCH  26  27
ATOM     27  C   UNL     1      -2.482  11.024  16.712  0.00  0.00    +0.000 C 
ATOM     28  C   UNL     1      -3.096  10.867  15.344  0.00  0.00    +0.000 C 
ATOM     29  C   UNL     1      -3.977  10.896  16.560  0.00  0.00    +0.000 C 
ENDBRANCH  26  27
ENDBRANCH  25  26
ENDBRANCH   1  25
TORSDOF 8
ENDMDL
MODEL 4
REMARK VINA RESULT:      -7.9      5.738     10.835
REMARK  Name = 
REMARK  10 active torsions:
REMARK  status: ('A' for Active; 'I' for Inactive)
REMARK    1  A    between atoms: C_1  and  O_2
REMARK    2  A    between atoms: O_2  and  C_3
REMARK    3  A    between atoms: C_3  and  C_5
REMARK    4  A    between atoms: C_8  and  S_9
REMARK    5  A    between atoms: S_9  and  N_12
REMARK    6  A    between atoms: N_12  and  C_13
REMARK    7  A    between atoms: N_12  and  C_18
REMARK    8  A    between atoms: C_13  and  C_14
REMARK    9  A    between atoms: C_14  and  C_15
REMARK   10  A    between atoms: C_26  and  C_27
REMARK                            x       y       z     vdW  Elec       q    Type
REMARK                         _______ _______ _______ _____ _____    ______ ____
ROOT
ATOM      1  N   UNL     1       0.048  10.987  19.110  0.00  0.00    +0.000 N 
ENDROOT
BRANCH   1   2
ATOM      2  C   UNL     1       1.026   9.911  19.185  0.00  0.00    +0.000 A 
ATOM      3  S   UNL     1       2.119   9.751  17.888  0.00  0.00    +0.000 S 
ATOM      4  C   UNL     1       2.558   8.158  18.339  0.00  0.00    +0.000 A 
ATOM      5  C   UNL     1       3.434   7.308  17.631  0.00  0.00    +0.000 A 
ATOM      6  C   UNL     1       3.667   6.018  18.102  0.00  0.00    +0.000 A 
ATOM      7  C   UNL     1       3.043   5.577  19.257  0.00  0.00    +0.000 A 
ATOM      8  C   UNL     1       2.191   6.433  19.972  0.00  0.00    +0.000 A 
ATOM      9  C   UNL     1       1.932   7.763  19.521  0.00  0.00    +0.000 A 
ATOM     10  C   UNL     1       1.106   8.842  20.077  0.00  0.00    +0.000 A 
ATOM     11  C   UNL     1       0.459   8.735  21.429  0.00  0.00    +0.000 C 
ENDBRANCH   1   2
BRANCH   1  12
ATOM     12  S   UNL     1       0.359  12.334  20.127  0.00  0.00    +0.000 S 
ATOM     13  O   UNL     1       0.261  13.564  19.368  0.00  0.00    +0.000 OA
ATOM     14  O   UNL     1       1.555  12.026  20.889  0.00  0.00    +0.000 OA
BRANCH  12  18
ATOM     15  C   UNL     1      -3.191  12.445  23.128  0.00  0.00    +0.000 A 
ATOM     16  C   UNL     1      -2.048  11.684  23.408  0.00  0.00    +0.000 A 
ATOM     17  C   UNL     1      -0.962  11.666  22.508  0.00  0.00    +0.000 A 
ATOM     18  C   UNL     1      -1.008  12.412  21.319  0.00  0.00    +0.000 A 
ATOM     19  C   UNL     1      -2.096  13.263  21.092  0.00  0.00    +0.000 A 
ATOM     20  C   UNL     1      -3.187  13.266  21.986  0.00  0.00    +0.000 A 
BRANCH  15  21
ATOM     21  C   UNL     1      -4.433  12.398  23.969  0.00  0.00    +0.000 C 
ATOM     22  O   UNL     1      -4.423  12.253  25.173  0.00  0.00    +0.000 OA
BRANCH  21  24
ATOM     23  C   UNL     1      -6.782  12.586  23.915  0.00  0.00    +0.000 C 
ATOM     24  O   UNL     1      -5.538  12.640  23.202  0.00  0.00    +0.000 OA
ENDBRANCH  21  24
ENDBRANCH  15  21
ENDBRANCH  12  18
ENDBRANCH   1  12
BRANCH   1  25
ATOM     25  C   UNL     1      -1.359  10.553  18.884  0.00  0.00    +0.000 C 
BRANCH  25  26
ATOM     26  C   UNL     1      -1.615   9.914  17.521  0.00  0.00    +0.000 C 
BRANCH  26  27
ATOM     27  C   UNL     1      -2.895  10.318  16.839  0.00  0.00    +0.000 C 
ATOM     28  C   UNL     1      -2.982  11.084  15.543  0.00  0.00    +0.000 C 
ATOM     29  C   UNL     1      -3.283   9.612  15.564  0.00  0.00    +0.000 C 
ENDBRANCH  26  27
ENDBRANCH  25  26
ENDBRANCH   1  25
TORSDOF 8
ENDMDL
MODEL 5
REMARK VINA RESULT:      -7.6      1.092      1.513
REMARK  Name = 
REMARK  10 active torsions:
REMARK  status: ('A' for Active; 'I' for Inactive)
REMARK    1  A    between atoms: C_1  and  O_2
REMARK    2  A    between atoms: O_2  and  C_3
REMARK    3  A    between atoms: C_3  and  C_5
REMARK    4  A    between atoms: C_8  and  S_9
REMARK    5  A    between atoms: S_9  and  N_12
REMARK    6  A    between atoms: N_12  and  C_13
REMARK    7  A    between atoms: N_12  and  C_18
REMARK    8  A    between atoms: C_13  and  C_14
REMARK    9  A    between atoms: C_14  and  C_15
REMARK   10  A    between atoms: C_26  and  C_27
REMARK                            x       y       z     vdW  Elec       q    Type
REMARK                         _______ _______ _______ _____ _____    ______ ____
ROOT
ATOM      1  N   UNL     1       3.190   5.140  18.837  0.00  0.00    +0.000 N 
ENDROOT
BRANCH   1   2
ATOM      2  C   UNL     1       2.710   6.413  19.354  0.00  0.00    +0.000 A 
ATOM      3  S   UNL     1       1.995   6.414  20.900  0.00  0.00    +0.000 S 
ATOM      4  C   UNL     1       1.270   7.947  20.662  0.00  0.00    +0.000 A 
ATOM      5  C   UNL     1       0.406   8.604  21.563  0.00  0.00    +0.000 A 
ATOM      6  C   UNL     1      -0.141   9.836  21.213  0.00  0.00    +0.000 A 
ATOM      7  C   UNL     1       0.165  10.410  19.990  0.00  0.00    +0.000 A 
ATOM      8  C   UNL     1       1.044   9.764  19.107  0.00  0.00    +0.000 A 
ATOM      9  C   UNL     1       1.626   8.502  19.433  0.00  0.00    +0.000 A 
ATOM     10  C   UNL     1       2.562   7.638  18.705  0.00  0.00    +0.000 A 
ATOM     11  C   UNL     1       3.231   8.080  17.433  0.00  0.00    +0.000 C 
ENDBRANCH   1   2
BRANCH   1  12
ATOM     12  S   UNL     1       4.875   4.865  19.011  0.00  0.00    +0.000 S 
ATOM     13  O   UNL     1       5.114   3.510  19.468  0.00  0.00    +0.000 OA
ATOM     14  O   UNL     1       5.420   5.998  19.737  0.00  0.00    +0.000 OA
BRANCH  12  18
ATOM     15  C   UNL     1       6.633   4.935  14.707  0.00  0.00    +0.000 A 
ATOM     16  C   UNL     1       5.518   5.720  15.033  0.00  0.00    +0.000 A 
ATOM     17  C   UNL     1       4.997   5.715  16.343  0.00  0.00    +0.000 A 
ATOM     18  C   UNL     1       5.588   4.926  17.344  0.00  0.00    +0.000 A 
ATOM     19  C   UNL     1       6.769   4.233  17.053  0.00  0.00    +0.000 A 
ATOM     20  C   UNL     1       7.277   4.228  15.737  0.00  0.00    +0.000 A 
BRANCH  15  21
ATOM     21  C   UNL     1       7.150   4.786  13.307  0.00  0.00    +0.000 C 
ATOM     22  O   UNL     1       7.874   5.597  12.768  0.00  0.00    +0.000 OA
BRANCH  21  24
ATOM     23  C   UNL     1       5.422   3.538  12.301  0.00  0.00    +0.000 C 
ATOM     24  O   UNL     1       6.772   3.581  12.784  0.00  0.00    +0.000 OA
ENDBRANCH  21  24
ENDBRANCH  15  21
ENDBRANCH  12  18
ENDBRANCH   1  12
BRANCH   1  25
ATOM     25  C   UNL     1       2.493   4.645  17.616  0.00  0.00    +0.000 C 
BRANCH  25  26
ATOM     26  C   UNL     1       2.352   3.127  17.539  0.00  0.00    +0.000 C 
BRANCH  26  27
ATOM     27  C   UNL     1       1.892   2.447  18.801  0.00  0.00    +0.000 C 
ATOM     28  C   UNL     1       0.885   3.010  19.771  0.00  0.00    +0.000 C 
ATOM     29  C   UNL     1       0.491   1.891  18.849  0.00  0.00    +0.000 C 
ENDBRANCH  26  27
ENDBRANCH  25  26
ENDBRANCH   1  25
TORSDOF 8
ENDMDL
MODEL 6
REMARK VINA RESULT:      -7.6      5.811     10.937
REMARK  Name = 
REMARK  10 active torsions:
REMARK  status: ('A' for Active; 'I' for Inactive)
REMARK    1  A    between atoms: C_1  and  O_2
REMARK    2  A    between atoms: O_2  and  C_3
REMARK    3  A    between atoms: C_3  and  C_5
REMARK    4  A    between atoms: C_8  and  S_9
REMARK    5  A    between atoms: S_9  and  N_12
REMARK    6  A    between atoms: N_12  and  C_13
REMARK    7  A    between atoms: N_12  and  C_18
REMARK    8  A    between atoms: C_13  and  C_14
REMARK    9  A    between atoms: C_14  and  C_15
REMARK   10  A    between atoms: C_26  and  C_27
REMARK                            x       y       z     vdW  Elec       q    Type
REMARK                         _______ _______ _______ _____ _____    ______ ____
ROOT
ATOM      1  N   UNL     1       0.107  10.723  19.250  0.00  0.00    +0.000 N 
ENDROOT
BRANCH   1   2
ATOM      2  C   UNL     1       1.033   9.609  19.399  0.00  0.00    +0.000 A 
ATOM      3  S   UNL     1       2.097   9.295  18.107  0.00  0.00    +0.000 S 
ATOM      4  C   UNL     1       2.466   7.722  18.676  0.00  0.00    +0.000 A 
ATOM      5  C   UNL     1       3.288   6.778  18.028  0.00  0.00    +0.000 A 
ATOM      6  C   UNL     1       3.466   5.517  18.595  0.00  0.00    +0.000 A 
ATOM      7  C   UNL     1       2.838   5.199  19.788  0.00  0.00    +0.000 A 
ATOM      8  C   UNL     1       2.039   6.149  20.442  0.00  0.00    +0.000 A 
ATOM      9  C   UNL     1       1.838   7.452  19.892  0.00  0.00    +0.000 A 
ATOM     10  C   UNL     1       1.073   8.609  20.370  0.00  0.00    +0.000 A 
ATOM     11  C   UNL     1       0.442   8.640  21.734  0.00  0.00    +0.000 C 
ENDBRANCH   1   2
BRANCH   1  12
ATOM     12  S   UNL     1       0.416  12.075  20.261  0.00  0.00    +0.000 S 
ATOM     13  O   UNL     1       0.612  13.264  19.456  0.00  0.00    +0.000 OA
ATOM     14  O   UNL     1       1.416  11.663  21.230  0.00  0.00    +0.000 OA
BRANCH  12  18
ATOM     15  C   UNL     1      -3.442  12.968  22.697  0.00  0.00    +0.000 A 
ATOM     16  C   UNL     1      -3.245  13.553  21.438  0.00  0.00    +0.000 A 
ATOM     17  C   UNL     1      -2.085  13.266  20.689  0.00  0.00    +0.000 A 
ATOM     18  C   UNL     1      -1.109  12.389  21.192  0.00  0.00    +0.000 A 
ATOM     19  C   UNL     1      -1.357  11.714  22.393  0.00  0.00    +0.000 A 
ATOM     20  C   UNL     1      -2.511  12.015  23.146  0.00  0.00    +0.000 A 
BRANCH  15  21
ATOM     21  C   UNL     1      -4.580  13.337  23.602  0.00  0.00    +0.000 C 
ATOM     22  O   UNL     1      -4.751  14.453  24.046  0.00  0.00    +0.000 OA
BRANCH  21  24
ATOM     23  C   UNL     1      -6.799  12.632  23.968  0.00  0.00    +0.000 C 
ATOM     24  O   UNL     1      -5.426  12.275  23.763  0.00  0.00    +0.000 OA
ENDBRANCH  21  24
ENDBRANCH  15  21
ENDBRANCH  12  18
ENDBRANCH   1  12
BRANCH   1  25
ATOM     25  C   UNL     1      -1.303  10.343  18.952  0.00  0.00    +0.000 C 
BRANCH  25  26
ATOM     26  C   UNL     1      -1.820  10.834  17.602  0.00  0.00    +0.000 C 
BRANCH  26  27
ATOM     27  C   UNL     1      -3.118  10.229  17.138  0.00  0.00    +0.000 C 
ATOM     28  C   UNL     1      -4.319  11.009  16.669  0.00  0.00    +0.000 C 
ATOM     29  C   UNL     1      -3.457  10.292  15.669  0.00  0.00    +0.000 C 
ENDBRANCH  26  27
ENDBRANCH  25  26
ENDBRANCH   1  25
TORSDOF 8
ENDMDL
MODEL 7
REMARK VINA RESULT:      -7.6      5.786     10.818
REMARK  Name = 
REMARK  10 active torsions:
REMARK  status: ('A' for Active; 'I' for Inactive)
REMARK    1  A    between atoms: C_1  and  O_2
REMARK    2  A    between atoms: O_2  and  C_3
REMARK    3  A    between atoms: C_3  and  C_5
REMARK    4  A    between atoms: C_8  and  S_9
REMARK    5  A    between atoms: S_9  and  N_12
REMARK    6  A    between atoms: N_12  and  C_13
REMARK    7  A    between atoms: N_12  and  C_18
REMARK    8  A    between atoms: C_13  and  C_14
REMARK    9  A    between atoms: C_14  and  C_15
REMARK   10  A    between atoms: C_26  and  C_27
REMARK                            x       y       z     vdW  Elec       q    Type
REMARK                         _______ _______ _______ _____ _____    ______ ____
ROOT
ATOM      1  N   UNL     1       0.030  10.768  19.126  0.00  0.00    +0.000 N 
ENDROOT
BRANCH   1   2
ATOM      2  C   UNL     1       1.011   9.701  19.262  0.00  0.00    +0.000 A 
ATOM      3  S   UNL     1       2.073   9.440  17.957  0.00  0.00    +0.000 S 
ATOM      4  C   UNL     1       2.526   7.887  18.520  0.00  0.00    +0.000 A 
ATOM      5  C   UNL     1       3.386   6.984  17.860  0.00  0.00    +0.000 A 
ATOM      6  C   UNL     1       3.632   5.734  18.424  0.00  0.00    +0.000 A 
ATOM      7  C   UNL     1       3.036   5.385  19.625  0.00  0.00    +0.000 A 
ATOM      8  C   UNL     1       2.200   6.295  20.290  0.00  0.00    +0.000 A 
ATOM      9  C   UNL     1       1.928   7.586  19.744  0.00  0.00    +0.000 A 
ATOM     10  C   UNL     1       1.113   8.704  20.232  0.00  0.00    +0.000 A 
ATOM     11  C   UNL     1       0.499   8.704  21.604  0.00  0.00    +0.000 C 
ENDBRANCH   1   2
BRANCH   1  12
ATOM     12  S   UNL     1       0.344  12.178  20.054  0.00  0.00    +0.000 S 
ATOM     13  O   UNL     1       0.512  13.322  19.180  0.00  0.00    +0.000 OA
ATOM     14  O   UNL     1       1.367  11.830  21.024  0.00  0.00    +0.000 OA
BRANCH  12  18
ATOM     15  C   UNL     1      -3.577  12.989  22.416  0.00  0.00    +0.000 A 
ATOM     16  C   UNL     1      -2.593  12.141  22.942  0.00  0.00    +0.000 A 
ATOM     17  C   UNL     1      -1.394  11.910  22.237  0.00  0.00    +0.000 A 
ATOM     18  C   UNL     1      -1.166  12.529  20.996  0.00  0.00    +0.000 A 
ATOM     19  C   UNL     1      -2.093  13.465  20.523  0.00  0.00    +0.000 A 
ATOM     20  C   UNL     1      -3.298  13.681  21.224  0.00  0.00    +0.000 A 
BRANCH  15  21
ATOM     21  C   UNL     1      -4.928  13.166  23.045  0.00  0.00    +0.000 C 
ATOM     22  O   UNL     1      -5.237  14.133  23.710  0.00  0.00    +0.000 OA
BRANCH  21  24
ATOM     23  C   UNL     1      -6.660  12.470  21.607  0.00  0.00    +0.000 C 
ATOM     24  O   UNL     1      -5.763  12.149  22.678  0.00  0.00    +0.000 OA
ENDBRANCH  21  24
ENDBRANCH  15  21
ENDBRANCH  12  18
ENDBRANCH   1  12
BRANCH   1  25
ATOM     25  C   UNL     1      -1.379  10.318  18.939  0.00  0.00    +0.000 C 
BRANCH  25  26
ATOM     26  C   UNL     1      -1.917  10.491  17.521  0.00  0.00    +0.000 C 
BRANCH  26  27
ATOM     27  C   UNL     1      -3.396  10.269  17.351  0.00  0.00    +0.000 C 
ATOM     28  C   UNL     1      -4.477  11.075  18.024  0.00  0.00    +0.000 C 
ATOM     29  C   UNL     1      -4.189  11.283  16.565  0.00  0.00    +0.000 C 
ENDBRANCH  26  27
ENDBRANCH  25  26
ENDBRANCH   1  25
TORSDOF 8
ENDMDL
MODEL 8
REMARK VINA RESULT:      -7.5      4.369      7.648
REMARK  Name = 
REMARK  10 active torsions:
REMARK  status: ('A' for Active; 'I' for Inactive)
REMARK    1  A    between atoms: C_1  and  O_2
REMARK    2  A    between atoms: O_2  and  C_3
REMARK    3  A    between atoms: C_3  and  C_5
REMARK    4  A    between atoms: C_8  and  S_9
REMARK    5  A    between atoms: S_9  and  N_12
REMARK    6  A    between atoms: N_12  and  C_13
REMARK    7  A    between atoms: N_12  and  C_18
REMARK    8  A    between atoms: C_13  and  C_14
REMARK    9  A    between atoms: C_14  and  C_15
REMARK   10  A    between atoms: C_26  and  C_27
REMARK                            x       y       z     vdW  Elec       q    Type
REMARK                         _______ _______ _______ _____ _____    ______ ____
ROOT
ATOM      1  N   UNL     1       0.227  11.399  19.537  0.00  0.00    +0.000 N 
ENDROOT
BRANCH   1   2
ATOM      2  C   UNL     1      -1.151  11.649  19.137  0.00  0.00    +0.000 A 
ATOM      3  S   UNL     1      -2.031  12.800  20.033  0.00  0.00    +0.000 S 
ATOM      4  C   UNL     1      -3.536  12.251  19.427  0.00  0.00    +0.000 A 
ATOM      5  C   UNL     1      -4.807  12.728  19.810  0.00  0.00    +0.000 A 
ATOM      6  C   UNL     1      -5.950  12.154  19.257  0.00  0.00    +0.000 A 
ATOM      7  C   UNL     1      -5.835  11.126  18.336  0.00  0.00    +0.000 A 
ATOM      8  C   UNL     1      -4.568  10.670  17.940  0.00  0.00    +0.000 A 
ATOM      9  C   UNL     1      -3.375  11.237  18.483  0.00  0.00    +0.000 A 
ATOM     10  C   UNL     1      -1.956  10.954  18.236  0.00  0.00    +0.000 A 
ATOM     11  C   UNL     1      -1.507  10.024  17.144  0.00  0.00    +0.000 C 
ENDBRANCH   1   2
BRANCH   1  12
ATOM     12  S   UNL     1       0.443  10.135  20.677  0.00  0.00    +0.000 S 
ATOM     13  O   UNL     1      -0.836   9.540  21.009  0.00  0.00    +0.000 OA
ATOM     14  O   UNL     1       1.316  10.644  21.718  0.00  0.00    +0.000 OA
BRANCH  12  18
ATOM     15  C   UNL     1       2.697   6.723  18.462  0.00  0.00    +0.000 A 
ATOM     16  C   UNL     1       2.449   7.945  17.821  0.00  0.00    +0.000 A 
ATOM     17  C   UNL     1       1.784   8.988  18.498  0.00  0.00    +0.000 A 
ATOM     18  C   UNL     1       1.361   8.820  19.828  0.00  0.00    +0.000 A 
ATOM     19  C   UNL     1       1.709   7.647  20.508  0.00  0.00    +0.000 A 
ATOM     20  C   UNL     1       2.360   6.601  19.822  0.00  0.00    +0.000 A 
BRANCH  15  21
ATOM     21  C   UNL     1       3.271   5.530  17.758  0.00  0.00    +0.000 C 
ATOM     22  O   UNL     1       4.435   5.441  17.427  0.00  0.00    +0.000 OA
BRANCH  21  24
ATOM     23  C   UNL     1       2.865   3.220  17.522  0.00  0.00    +0.000 C 
ATOM     24  O   UNL     1       2.330   4.545  17.642  0.00  0.00    +0.000 OA
ENDBRANCH  21  24
ENDBRANCH  15  21
ENDBRANCH  12  18
ENDBRANCH   1  12
BRANCH   1  25
ATOM     25  C   UNL     1       1.096  12.607  19.614  0.00  0.00    +0.000 C 
BRANCH  25  26
ATOM     26  C   UNL     1       2.211  12.654  18.572  0.00  0.00    +0.000 C 
BRANCH  26  27
ATOM     27  C   UNL     1       2.595  14.025  18.086  0.00  0.00    +0.000 C 
ATOM     28  C   UNL     1       2.642  15.267  18.940  0.00  0.00    +0.000 C 
ATOM     29  C   UNL     1       3.921  14.599  18.523  0.00  0.00    +0.000 C 
ENDBRANCH  26  27
ENDBRANCH  25  26
ENDBRANCH   1  25
TORSDOF 8
ENDMDL
MODEL 9
REMARK VINA RESULT:      -7.5      1.417      2.041
REMARK  Name = 
REMARK  10 active torsions:
REMARK  status: ('A' for Active; 'I' for Inactive)
REMARK    1  A    between atoms: C_1  and  O_2
REMARK    2  A    between atoms: O_2  and  C_3
REMARK    3  A    between atoms: C_3  and  C_5
REMARK    4  A    between atoms: C_8  and  S_9
REMARK    5  A    between atoms: S_9  and  N_12
REMARK    6  A    between atoms: N_12  and  C_13
REMARK    7  A    between atoms: N_12  and  C_18
REMARK    8  A    between atoms: C_13  and  C_14
REMARK    9  A    between atoms: C_14  and  C_15
REMARK   10  A    between atoms: C_26  and  C_27
REMARK                            x       y       z     vdW  Elec       q    Type
REMARK                         _______ _______ _______ _____ _____    ______ ____
ROOT
ATOM      1  N   UNL     1       4.659   4.842  18.829  0.00  0.00    +0.000 N 
ENDROOT
BRANCH   1   2
ATOM      2  C   UNL     1       3.604   5.845  18.789  0.00  0.00    +0.000 A 
ATOM      3  S   UNL     1       3.606   6.935  17.481  0.00  0.00    +0.000 S 
ATOM      4  C   UNL     1       2.548   8.025  18.272  0.00  0.00    +0.000 A 
ATOM      5  C   UNL     1       2.131   9.280  17.781  0.00  0.00    +0.000 A 
ATOM      6  C   UNL     1       1.295  10.078  18.558  0.00  0.00    +0.000 A 
ATOM      7  C   UNL     1       0.876   9.638  19.803  0.00  0.00    +0.000 A 
ATOM      8  C   UNL     1       1.274   8.379  20.279  0.00  0.00    +0.000 A 
ATOM      9  C   UNL     1       2.127   7.533  19.508  0.00  0.00    +0.000 A 
ATOM     10  C   UNL     1       2.672   6.195  19.766  0.00  0.00    +0.000 A 
ATOM     11  C   UNL     1       2.239   5.372  20.947  0.00  0.00    +0.000 C 
ENDBRANCH   1   2
BRANCH   1  12
ATOM     12  S   UNL     1       6.202   5.377  18.302  0.00  0.00    +0.000 S 
ATOM     13  O   UNL     1       7.245   4.650  18.997  0.00  0.00    +0.000 OA
ATOM     14  O   UNL     1       6.177   6.829  18.314  0.00  0.00    +0.000 OA
BRANCH  12  18
ATOM     15  C   UNL     1       6.526   4.162  13.826  0.00  0.00    +0.000 A 
ATOM     16  C   UNL     1       7.261   5.247  14.322  0.00  0.00    +0.000 A 
ATOM     17  C   UNL     1       7.179   5.604  15.684  0.00  0.00    +0.000 A 
ATOM     18  C   UNL     1       6.362   4.876  16.565  0.00  0.00    +0.000 A 
ATOM     19  C   UNL     1       5.719   3.723  16.100  0.00  0.00    +0.000 A 
ATOM     20  C   UNL     1       5.791   3.379  14.734  0.00  0.00    +0.000 A 
BRANCH  15  21
ATOM     21  C   UNL     1       6.458   3.816  12.367  0.00  0.00    +0.000 C 
ATOM     22  O   UNL     1       7.296   4.152  11.558  0.00  0.00    +0.000 OA
BRANCH  21  24
ATOM     23  C   UNL     1       5.696   1.830  11.352  0.00  0.00    +0.000 C 
ATOM     24  O   UNL     1       5.388   3.002  12.119  0.00  0.00    +0.000 OA
ENDBRANCH  21  24
ENDBRANCH  15  21
ENDBRANCH  12  18
ENDBRANCH   1  12
BRANCH   1  25
ATOM     25  C   UNL     1       4.225   3.450  18.519  0.00  0.00    +0.000 C 
BRANCH  25  26
ATOM     26  C   UNL     1       2.913   3.353  17.743  0.00  0.00    +0.000 C 
BRANCH  26  27
ATOM     27  C   UNL     1       1.948   2.301  18.220  0.00  0.00    +0.000 C 
ATOM     28  C   UNL     1       1.603   2.030  19.662  0.00  0.00    +0.000 C 
ATOM     29  C   UNL     1       0.619   2.745  18.780  0.00  0.00    +0.000 C 
ENDBRANCH  26  27
ENDBRANCH  25  26
ENDBRANCH   1  25
TORSDOF 8
ENDMDL
