MODEL 1
REMARK VINA RESULT:      -7.7      0.000      0.000
REMARK  Name = 
REMARK  6 active torsions:
REMARK  status: ('A' for Active; 'I' for Inactive)
REMARK    1  A    between atoms: C_1  and  C_2
REMARK    2  A    between atoms: C_2  and  C_3
REMARK    3  A    between atoms: C_6  and  N_7
REMARK    4  A    between atoms: N_7  and  C_8
REMARK    5  A    between atoms: C_10  and  C_11
REMARK    6  A    between atoms: C_15  and  C_16
REMARK                            x       y       z     vdW  Elec       q    Type
REMARK                         _______ _______ _______ _____ _____    ______ ____
ROOT
ATOM      1  C   UNL     1       5.048   6.599  16.985  0.00  0.00    +0.000 A 
ATOM      2  C   UNL     1       5.882   7.324  17.759  0.00  0.00    +0.000 A 
ATOM      3  C   UNL     1       7.336   7.275  17.445  0.00  0.00    +0.000 A 
ATOM      4  C   UNL     1       8.228   8.161  18.279  0.00  0.00    +0.000 C 
ATOM      5  N   UNL     1       7.877   6.551  16.507  0.00  0.00    +0.000 NA
ATOM      6  C   UNL     1       7.021   5.792  15.759  0.00  0.00    +0.000 A 
ATOM      7  N   UNL     1       7.303   4.994  14.756  0.00  0.00    +0.000 NA
ATOM      8  C   UNL     1       6.085   4.521  14.363  0.00  0.00    +0.000 A 
ATOM      9  C   UNL     1       5.957   3.584  13.225  0.00  0.00    +0.000 C 
ATOM     10  N   UNL     1       5.036   4.970  15.065  0.00  0.00    +0.000 NA
ATOM     11  N   UNL     1       5.634   5.796  15.972  0.00  0.00    +0.000 N 
ENDROOT
BRANCH   1  12
ATOM     12  N   UNL     1       3.656   6.647  17.156  0.00  0.00    +0.000 N 
ATOM     13  H   UNL     1       3.336   7.605  17.325  0.00  0.00    +0.000 HD
BRANCH  12  17
ATOM     14  C   UNL     1       1.638   3.986  19.815  0.00  0.00    +0.000 A 
ATOM     15  C   UNL     1       2.309   5.108  20.311  0.00  0.00    +0.000 A 
ATOM     16  C   UNL     1       2.968   5.985  19.437  0.00  0.00    +0.000 A 
ATOM     17  C   UNL     1       2.992   5.753  18.054  0.00  0.00    +0.000 A 
ATOM     18  C   UNL     1       2.286   4.656  17.563  0.00  0.00    +0.000 A 
ATOM     19  C   UNL     1       1.618   3.775  18.435  0.00  0.00    +0.000 A 
BRANCH  14  21
ATOM     20  C   UNL     1       1.819   2.589  21.899  0.00  0.00    +0.000 C 
ATOM     21  C   UNL     1       0.936   3.026  20.741  0.00  0.00    +0.000 C 
ENDBRANCH  14  21
ENDBRANCH  12  17
ENDBRANCH   1  12
TORSDOF 3
ENDMDL
MODEL 2
REMARK VINA RESULT:      -7.7      1.689      2.125
REMARK  Name = 
REMARK  6 active torsions:
REMARK  status: ('A' for Active; 'I' for Inactive)
REMARK    1  A    between atoms: C_1  and  C_2
REMARK    2  A    between atoms: C_2  and  C_3
REMARK    3  A    between atoms: C_6  and  N_7
REMARK    4  A    between atoms: N_7  and  C_8
REMARK    5  A    between atoms: C_10  and  C_11
REMARK    6  A    between atoms: C_15  and  C_16
REMARK                            x       y       z     vdW  Elec       q    Type
REMARK                         _______ _______ _______ _____ _____    ______ ____
ROOT
ATOM      1  C   UNL     1       5.901   3.972  16.455  0.00  0.00    +0.000 A 
ATOM      2  C   UNL     1       6.300   4.764  17.472  0.00  0.00    +0.000 A 
ATOM      3  C   UNL     1       7.204   5.901  17.150  0.00  0.00    +0.000 A 
ATOM      4  C   UNL     1       7.564   6.813  18.297  0.00  0.00    +0.000 C 
ATOM      5  N   UNL     1       7.681   6.168  15.967  0.00  0.00    +0.000 NA
ATOM      6  C   UNL     1       7.300   5.331  14.957  0.00  0.00    +0.000 A 
ATOM      7  N   UNL     1       7.623   5.385  13.687  0.00  0.00    +0.000 NA
ATOM      8  C   UNL     1       6.945   4.339  13.132  0.00  0.00    +0.000 A 
ATOM      9  C   UNL     1       7.026   4.055  11.683  0.00  0.00    +0.000 C 
ATOM     10  N   UNL     1       6.208   3.612  13.982  0.00  0.00    +0.000 NA
ATOM     11  N   UNL     1       6.430   4.249  15.168  0.00  0.00    +0.000 N 
ENDROOT
BRANCH   1  12
ATOM     12  N   UNL     1       4.986   2.926  16.651  0.00  0.00    +0.000 N 
ATOM     13  H   UNL     1       4.595   2.603  15.761  0.00  0.00    +0.000 HD
BRANCH  12  17
ATOM     14  C   UNL     1       1.861   3.200  19.547  0.00  0.00    +0.000 A 
ATOM     15  C   UNL     1       1.846   4.013  18.411  0.00  0.00    +0.000 A 
ATOM     16  C   UNL     1       2.870   3.920  17.456  0.00  0.00    +0.000 A 
ATOM     17  C   UNL     1       3.942   3.032  17.623  0.00  0.00    +0.000 A 
ATOM     18  C   UNL     1       3.929   2.194  18.738  0.00  0.00    +0.000 A 
ATOM     19  C   UNL     1       2.901   2.278  19.696  0.00  0.00    +0.000 A 
BRANCH  14  21
ATOM     20  C   UNL     1       1.212   2.732  21.932  0.00  0.00    +0.000 C 
ATOM     21  C   UNL     1       0.776   3.296  20.589  0.00  0.00    +0.000 C 
ENDBRANCH  14  21
ENDBRANCH  12  17
ENDBRANCH   1  12
TORSDOF 3
ENDMDL
MODEL 3
REMARK VINA RESULT:      -7.7      0.047      1.073
REMARK  Name = 
REMARK  6 active torsions:
REMARK  status: ('A' for Active; 'I' for Inactive)
REMARK    1  A    between atoms: C_1  and  C_2
REMARK    2  A    between atoms: C_2  and  C_3
REMARK    3  A    between atoms: C_6  and  N_7
REMARK    4  A    between atoms: N_7  and  C_8
REMARK    5  A    between atoms: C_10  and  C_11
REMARK    6  A    between atoms: C_15  and  C_16
REMARK                            x       y       z     vdW  Elec       q    Type
REMARK                         _______ _______ _______ _____ _____    ______ ____
ROOT
ATOM      1  C   UNL     1       5.046   6.608  16.969  0.00  0.00    +0.000 A 
ATOM      2  C   UNL     1       5.880   7.324  17.751  0.00  0.00    +0.000 A 
ATOM      3  C   UNL     1       7.335   7.267  17.446  0.00  0.00    +0.000 A 
ATOM      4  C   UNL     1       8.229   8.142  18.290  0.00  0.00    +0.000 C 
ATOM      5  N   UNL     1       7.878   6.543  16.508  0.00  0.00    +0.000 NA
ATOM      6  C   UNL     1       7.022   5.792  15.752  0.00  0.00    +0.000 A 
ATOM      7  N   UNL     1       7.305   4.997  14.748  0.00  0.00    +0.000 NA
ATOM      8  C   UNL     1       6.086   4.534  14.345  0.00  0.00    +0.000 A 
ATOM      9  C   UNL     1       5.959   3.603  13.202  0.00  0.00    +0.000 C 
ATOM     10  N   UNL     1       5.035   4.987  15.042  0.00  0.00    +0.000 NA
ATOM     11  N   UNL     1       5.633   5.806  15.956  0.00  0.00    +0.000 N 
ENDROOT
BRANCH   1  12
ATOM     12  N   UNL     1       3.654   6.665  17.131  0.00  0.00    +0.000 N 
ATOM     13  H   UNL     1       3.339   7.624  17.307  0.00  0.00    +0.000 HD
BRANCH  12  17
ATOM     14  C   UNL     1       1.670   3.987  19.798  0.00  0.00    +0.000 A 
ATOM     15  C   UNL     1       1.720   3.713  18.429  0.00  0.00    +0.000 A 
ATOM     16  C   UNL     1       2.376   4.590  17.553  0.00  0.00    +0.000 A 
ATOM     17  C   UNL     1       2.977   5.769  18.017  0.00  0.00    +0.000 A 
ATOM     18  C   UNL     1       2.960   6.014  19.390  0.00  0.00    +0.000 A 
ATOM     19  C   UNL     1       2.307   5.134  20.275  0.00  0.00    +0.000 A 
BRANCH  14  21
ATOM     20  C   UNL     1       1.848   2.620  21.903  0.00  0.00    +0.000 C 
ATOM     21  C   UNL     1       0.958   3.062  20.752  0.00  0.00    +0.000 C 
ENDBRANCH  14  21
ENDBRANCH  12  17
ENDBRANCH   1  12
TORSDOF 3
ENDMDL
MODEL 4
REMARK VINA RESULT:      -7.7      1.739      2.006
REMARK  Name = 
REMARK  6 active torsions:
REMARK  status: ('A' for Active; 'I' for Inactive)
REMARK    1  A    between atoms: C_1  and  C_2
REMARK    2  A    between atoms: C_2  and  C_3
REMARK    3  A    between atoms: C_6  and  N_7
REMARK    4  A    between atoms: N_7  and  C_8
REMARK    5  A    between atoms: C_10  and  C_11
REMARK    6  A    between atoms: C_15  and  C_16
REMARK                            x       y       z     vdW  Elec       q    Type
REMARK                         _______ _______ _______ _____ _____    ______ ____
ROOT
ATOM      1  C   UNL     1       5.881   3.984  16.465  0.00  0.00    +0.000 A 
ATOM      2  C   UNL     1       6.276   4.792  17.470  0.00  0.00    +0.000 A 
ATOM      3  C   UNL     1       7.181   5.924  17.133  0.00  0.00    +0.000 A 
ATOM      4  C   UNL     1       7.536   6.854  18.268  0.00  0.00    +0.000 C 
ATOM      5  N   UNL     1       7.661   6.174  15.949  0.00  0.00    +0.000 NA
ATOM      6  C   UNL     1       7.284   5.321  14.950  0.00  0.00    +0.000 A 
ATOM      7  N   UNL     1       7.611   5.356  13.680  0.00  0.00    +0.000 NA
ATOM      8  C   UNL     1       6.935   4.301  13.140  0.00  0.00    +0.000 A 
ATOM      9  C   UNL     1       7.021   3.995  11.695  0.00  0.00    +0.000 C 
ATOM     10  N   UNL     1       6.196   3.586  13.999  0.00  0.00    +0.000 NA
ATOM     11  N   UNL     1       6.414   4.242  15.175  0.00  0.00    +0.000 N 
ENDROOT
BRANCH   1  12
ATOM     12  N   UNL     1       4.966   2.941  16.674  0.00  0.00    +0.000 N 
ATOM     13  H   UNL     1       4.544   2.635  15.792  0.00  0.00    +0.000 HD
BRANCH  12  17
ATOM     14  C   UNL     1       1.944   3.266  19.671  0.00  0.00    +0.000 A 
ATOM     15  C   UNL     1       3.234   2.850  20.010  0.00  0.00    +0.000 A 
ATOM     16  C   UNL     1       4.229   2.748  19.026  0.00  0.00    +0.000 A 
ATOM     17  C   UNL     1       3.956   3.037  17.682  0.00  0.00    +0.000 A 
ATOM     18  C   UNL     1       2.678   3.492  17.358  0.00  0.00    +0.000 A 
ATOM     19  C   UNL     1       1.677   3.602  18.342  0.00  0.00    +0.000 A 
BRANCH  14  21
ATOM     20  C   UNL     1       1.214   2.627  21.992  0.00  0.00    +0.000 C 
ATOM     21  C   UNL     1       0.860   3.369  20.713  0.00  0.00    +0.000 C 
ENDBRANCH  14  21
ENDBRANCH  12  17
ENDBRANCH   1  12
TORSDOF 3
ENDMDL
MODEL 5
REMARK VINA RESULT:      -7.5      3.172      5.422
REMARK  Name = 
REMARK  6 active torsions:
REMARK  status: ('A' for Active; 'I' for Inactive)
REMARK    1  A    between atoms: C_1  and  C_2
REMARK    2  A    between atoms: C_2  and  C_3
REMARK    3  A    between atoms: C_6  and  N_7
REMARK    4  A    between atoms: N_7  and  C_8
REMARK    5  A    between atoms: C_10  and  C_11
REMARK    6  A    between atoms: C_15  and  C_16
REMARK                            x       y       z     vdW  Elec       q    Type
REMARK                         _______ _______ _______ _____ _____    ______ ____
ROOT
ATOM      1  C   UNL     1       2.881   5.267  19.153  0.00  0.00    +0.000 A 
ATOM      2  C   UNL     1       1.834   4.427  19.286  0.00  0.00    +0.000 A 
ATOM      3  C   UNL     1       1.849   3.171  18.487  0.00  0.00    +0.000 A 
ATOM      4  C   UNL     1       0.702   2.219  18.721  0.00  0.00    +0.000 C 
ATOM      5  N   UNL     1       2.773   2.836  17.632  0.00  0.00    +0.000 NA
ATOM      6  C   UNL     1       3.806   3.719  17.481  0.00  0.00    +0.000 A 
ATOM      7  N   UNL     1       4.859   3.617  16.705  0.00  0.00    +0.000 NA
ATOM      8  C   UNL     1       5.572   4.749  16.971  0.00  0.00    +0.000 A 
ATOM      9  C   UNL     1       6.864   5.017  16.302  0.00  0.00    +0.000 C 
ATOM     10  N   UNL     1       5.028   5.576  17.875  0.00  0.00    +0.000 NA
ATOM     11  N   UNL     1       3.883   4.915  18.212  0.00  0.00    +0.000 N 
ENDROOT
BRANCH   1  12
ATOM     12  N   UNL     1       2.992   6.433  19.925  0.00  0.00    +0.000 N 
ATOM     13  H   UNL     1       2.920   6.225  20.926  0.00  0.00    +0.000 HD
BRANCH  12  17
ATOM     14  C   UNL     1       0.643   9.884  19.031  0.00  0.00    +0.000 A 
ATOM     15  C   UNL     1       1.384   9.254  18.028  0.00  0.00    +0.000 A 
ATOM     16  C   UNL     1       2.152   8.117  18.321  0.00  0.00    +0.000 A 
ATOM     17  C   UNL     1       2.216   7.596  19.621  0.00  0.00    +0.000 A 
ATOM     18  C   UNL     1       1.441   8.204  20.607  0.00  0.00    +0.000 A 
ATOM     19  C   UNL     1       0.663   9.342  20.319  0.00  0.00    +0.000 A 
BRANCH  14  21
ATOM     20  C   UNL     1      -1.479  10.784  18.023  0.00  0.00    +0.000 C 
ATOM     21  C   UNL     1      -0.178  11.114  18.738  0.00  0.00    +0.000 C 
ENDBRANCH  14  21
ENDBRANCH  12  17
ENDBRANCH   1  12
TORSDOF 3
ENDMDL
MODEL 6
REMARK VINA RESULT:      -7.5      3.186      5.332
REMARK  Name = 
REMARK  6 active torsions:
REMARK  status: ('A' for Active; 'I' for Inactive)
REMARK    1  A    between atoms: C_1  and  C_2
REMARK    2  A    between atoms: C_2  and  C_3
REMARK    3  A    between atoms: C_6  and  N_7
REMARK    4  A    between atoms: N_7  and  C_8
REMARK    5  A    between atoms: C_10  and  C_11
REMARK    6  A    between atoms: C_15  and  C_16
REMARK                            x       y       z     vdW  Elec       q    Type
REMARK                         _______ _______ _______ _____ _____    ______ ____
ROOT
ATOM      1  C   UNL     1       2.905   5.328  19.102  0.00  0.00    +0.000 A 
ATOM      2  C   UNL     1       1.858   4.491  19.254  0.00  0.00    +0.000 A 
ATOM      3  C   UNL     1       1.872   3.219  18.482  0.00  0.00    +0.000 A 
ATOM      4  C   UNL     1       0.726   2.271  18.738  0.00  0.00    +0.000 C 
ATOM      5  N   UNL     1       2.796   2.865  17.634  0.00  0.00    +0.000 NA
ATOM      6  C   UNL     1       3.828   3.744  17.463  0.00  0.00    +0.000 A 
ATOM      7  N   UNL     1       4.880   3.625  16.688  0.00  0.00    +0.000 NA
ATOM      8  C   UNL     1       5.594   4.763  16.930  0.00  0.00    +0.000 A 
ATOM      9  C   UNL     1       6.885   5.016  16.254  0.00  0.00    +0.000 C 
ATOM     10  N   UNL     1       5.051   5.609  17.815  0.00  0.00    +0.000 NA
ATOM     11  N   UNL     1       3.907   4.955  18.168  0.00  0.00    +0.000 N 
ENDROOT
BRANCH   1  12
ATOM     12  N   UNL     1       3.017   6.511  19.848  0.00  0.00    +0.000 N 
ATOM     13  H   UNL     1       3.020   6.316  20.854  0.00  0.00    +0.000 HD
BRANCH  12  17
ATOM     14  C   UNL     1       0.532   9.885  19.034  0.00  0.00    +0.000 A 
ATOM     15  C   UNL     1       0.614   9.363  20.328  0.00  0.00    +0.000 A 
ATOM     16  C   UNL     1       1.435   8.258  20.597  0.00  0.00    +0.000 A 
ATOM     17  C   UNL     1       2.173   7.635  19.581  0.00  0.00    +0.000 A 
ATOM     18  C   UNL     1       2.119   8.186  18.301  0.00  0.00    +0.000 A 
ATOM     19  C   UNL     1       1.302   9.300  18.026  0.00  0.00    +0.000 A 
BRANCH  14  21
ATOM     20  C   UNL     1      -1.542  10.684  17.855  0.00  0.00    +0.000 C 
ATOM     21  C   UNL     1      -0.354  11.065  18.725  0.00  0.00    +0.000 C 
ENDBRANCH  14  21
ENDBRANCH  12  17
ENDBRANCH   1  12
TORSDOF 3
ENDMDL
MODEL 7
REMARK VINA RESULT:      -7.5      2.178      2.937
REMARK  Name = 
REMARK  6 active torsions:
REMARK  status: ('A' for Active; 'I' for Inactive)
REMARK    1  A    between atoms: C_1  and  C_2
REMARK    2  A    between atoms: C_2  and  C_3
REMARK    3  A    between atoms: C_6  and  N_7
REMARK    4  A    between atoms: N_7  and  C_8
REMARK    5  A    between atoms: C_10  and  C_11
REMARK    6  A    between atoms: C_15  and  C_16
REMARK                            x       y       z     vdW  Elec       q    Type
REMARK                         _______ _______ _______ _____ _____    ______ ____
ROOT
ATOM      1  C   UNL     1       4.944   4.991  17.865  0.00  0.00    +0.000 A 
ATOM      2  C   UNL     1       5.752   5.290  18.903  0.00  0.00    +0.000 A 
ATOM      3  C   UNL     1       7.218   5.323  18.652  0.00  0.00    +0.000 A 
ATOM      4  C   UNL     1       8.085   5.741  19.814  0.00  0.00    +0.000 C 
ATOM      5  N   UNL     1       7.791   5.041  17.516  0.00  0.00    +0.000 NA
ATOM      6  C   UNL     1       6.960   4.699  16.487  0.00  0.00    +0.000 A 
ATOM      7  N   UNL     1       7.276   4.387  15.252  0.00  0.00    +0.000 NA
ATOM      8  C   UNL     1       6.071   4.171  14.651  0.00  0.00    +0.000 A 
ATOM      9  C   UNL     1       5.982   3.805  13.221  0.00  0.00    +0.000 C 
ATOM     10  N   UNL     1       4.997   4.322  15.438  0.00  0.00    +0.000 NA
ATOM     11  N   UNL     1       5.564   4.667  16.630  0.00  0.00    +0.000 N 
ENDROOT
BRANCH   1  12
ATOM     12  N   UNL     1       3.547   5.015  17.988  0.00  0.00    +0.000 N 
ATOM     13  H   UNL     1       3.091   4.844  17.086  0.00  0.00    +0.000 HD
BRANCH  12  17
ATOM     14  C   UNL     1       1.533   8.192  20.007  0.00  0.00    +0.000 A 
ATOM     15  C   UNL     1       2.087   8.397  18.741  0.00  0.00    +0.000 A 
ATOM     16  C   UNL     1       2.744   7.352  18.075  0.00  0.00    +0.000 A 
ATOM     17  C   UNL     1       2.883   6.087  18.664  0.00  0.00    +0.000 A 
ATOM     18  C   UNL     1       2.292   5.877  19.909  0.00  0.00    +0.000 A 
ATOM     19  C   UNL     1       1.626   6.921  20.580  0.00  0.00    +0.000 A 
BRANCH  14  21
ATOM     20  C   UNL     1      -0.145   8.789  21.784  0.00  0.00    +0.000 C 
ATOM     21  C   UNL     1       0.835   9.307  20.743  0.00  0.00    +0.000 C 
ENDBRANCH  14  21
ENDBRANCH  12  17
ENDBRANCH   1  12
TORSDOF 3
ENDMDL
MODEL 8
REMARK VINA RESULT:      -7.4      2.026      2.807
REMARK  Name = 
REMARK  6 active torsions:
REMARK  status: ('A' for Active; 'I' for Inactive)
REMARK    1  A    between atoms: C_1  and  C_2
REMARK    2  A    between atoms: C_2  and  C_3
REMARK    3  A    between atoms: C_6  and  N_7
REMARK    4  A    between atoms: N_7  and  C_8
REMARK    5  A    between atoms: C_10  and  C_11
REMARK    6  A    between atoms: C_15  and  C_16
REMARK                            x       y       z     vdW  Elec       q    Type
REMARK                         _______ _______ _______ _____ _____    ______ ____
ROOT
ATOM      1  C   UNL     1       4.906   5.054  17.483  0.00  0.00    +0.000 A 
ATOM      2  C   UNL     1       5.674   5.358  18.550  0.00  0.00    +0.000 A 
ATOM      3  C   UNL     1       7.150   5.352  18.364  0.00  0.00    +0.000 A 
ATOM      4  C   UNL     1       7.974   5.776  19.555  0.00  0.00    +0.000 C 
ATOM      5  N   UNL     1       7.767   5.032  17.262  0.00  0.00    +0.000 NA
ATOM      6  C   UNL     1       6.974   4.686  16.204  0.00  0.00    +0.000 A 
ATOM      7  N   UNL     1       7.338   4.339  14.991  0.00  0.00    +0.000 NA
ATOM      8  C   UNL     1       6.155   4.137  14.342  0.00  0.00    +0.000 A 
ATOM      9  C   UNL     1       6.121   3.742  12.916  0.00  0.00    +0.000 C 
ATOM     10  N   UNL     1       5.051   4.330  15.076  0.00  0.00    +0.000 NA
ATOM     11  N   UNL     1       5.572   4.689  16.284  0.00  0.00    +0.000 N 
ENDROOT
BRANCH   1  12
ATOM     12  N   UNL     1       3.506   5.113  17.542  0.00  0.00    +0.000 N 
ATOM     13  H   UNL     1       3.100   5.267  16.614  0.00  0.00    +0.000 HD
BRANCH  12  17
ATOM     14  C   UNL     1       1.557   7.617  20.398  0.00  0.00    +0.000 A 
ATOM     15  C   UNL     1       1.760   6.261  20.668  0.00  0.00    +0.000 A 
ATOM     16  C   UNL     1       2.405   5.439  19.732  0.00  0.00    +0.000 A 
ATOM     17  C   UNL     1       2.842   5.943  18.499  0.00  0.00    +0.000 A 
ATOM     18  C   UNL     1       2.674   7.306  18.254  0.00  0.00    +0.000 A 
ATOM     19  C   UNL     1       2.032   8.137  19.192  0.00  0.00    +0.000 A 
BRANCH  14  21
ATOM     20  C   UNL     1       0.234   9.732  20.724  0.00  0.00    +0.000 C 
ATOM     21  C   UNL     1       0.854   8.512  21.386  0.00  0.00    +0.000 C 
ENDBRANCH  14  21
ENDBRANCH  12  17
ENDBRANCH   1  12
TORSDOF 3
ENDMDL
MODEL 9
REMARK VINA RESULT:      -7.4      3.204      5.187
REMARK  Name = 
REMARK  6 active torsions:
REMARK  status: ('A' for Active; 'I' for Inactive)
REMARK    1  A    between atoms: C_1  and  C_2
REMARK    2  A    between atoms: C_2  and  C_3
REMARK    3  A    between atoms: C_6  and  N_7
REMARK    4  A    between atoms: N_7  and  C_8
REMARK    5  A    between atoms: C_10  and  C_11
REMARK    6  A    between atoms: C_15  and  C_16
REMARK                            x       y       z     vdW  Elec       q    Type
REMARK                         _______ _______ _______ _____ _____    ______ ____
ROOT
ATOM      1  C   UNL     1       3.081   5.944  18.143  0.00  0.00    +0.000 A 
ATOM      2  C   UNL     1       2.130   4.988  18.093  0.00  0.00    +0.000 A 
ATOM      3  C   UNL     1       2.528   3.597  18.442  0.00  0.00    +0.000 A 
ATOM      4  C   UNL     1       1.422   2.570  18.455  0.00  0.00    +0.000 C 
ATOM      5  N   UNL     1       3.735   3.217  18.750  0.00  0.00    +0.000 NA
ATOM      6  C   UNL     1       4.693   4.191  18.755  0.00  0.00    +0.000 A 
ATOM      7  N   UNL     1       5.969   4.078  19.040  0.00  0.00    +0.000 NA
ATOM      8  C   UNL     1       6.444   5.352  18.923  0.00  0.00    +0.000 A 
ATOM      9  C   UNL     1       7.865   5.668  19.183  0.00  0.00    +0.000 C 
ATOM     10  N   UNL     1       5.539   6.276  18.571  0.00  0.00    +0.000 NA
ATOM     11  N   UNL     1       4.401   5.533  18.462  0.00  0.00    +0.000 N 
ENDROOT
BRANCH   1  12
ATOM     12  N   UNL     1       2.781   7.294  17.909  0.00  0.00    +0.000 N 
ATOM     13  H   UNL     1       3.616   7.816  17.626  0.00  0.00    +0.000 HD
BRANCH  12  17
ATOM     14  C   UNL     1       0.533   9.547  20.753  0.00  0.00    +0.000 A 
ATOM     15  C   UNL     1       0.615   9.969  19.423  0.00  0.00    +0.000 A 
ATOM     16  C   UNL     1       1.349   9.225  18.487  0.00  0.00    +0.000 A 
ATOM     17  C   UNL     1       2.035   8.060  18.859  0.00  0.00    +0.000 A 
ATOM     18  C   UNL     1       1.914   7.623  20.177  0.00  0.00    +0.000 A 
ATOM     19  C   UNL     1       1.173   8.362  21.121  0.00  0.00    +0.000 A 
BRANCH  14  21
ATOM     20  C   UNL     1      -0.256   9.668  23.139  0.00  0.00    +0.000 C 
ATOM     21  C   UNL     1      -0.241  10.340  21.775  0.00  0.00    +0.000 C 
ENDBRANCH  14  21
ENDBRANCH  12  17
ENDBRANCH   1  12
TORSDOF 3
ENDMDL
