MODEL 1
REMARK VINA RESULT:      -6.9      0.000      0.000
REMARK  Name = 
REMARK  8 active torsions:
REMARK  status: ('A' for Active; 'I' for Inactive)
REMARK    1  A    between atoms: C_1  and  C_2
REMARK    2  A    between atoms: C_2  and  C_4
REMARK    3  A    between atoms: C_4  and  C_5
REMARK    4  A    between atoms: C_8  and  O_9
REMARK    5  A    between atoms: O_9  and  C_10
REMARK    6  A    between atoms: C_10  and  C_11
REMARK    7  A    between atoms: C_11  and  C_12
REMARK    8  A    between atoms: C_12  and  C_13
REMARK                            x       y       z     vdW  Elec       q    Type
REMARK                         _______ _______ _______ _____ _____    ______ ____
ROOT
ATOM      1  C   UNL     1       5.821   5.977  17.645  0.00  0.00    +0.000 A 
ATOM      2  C   UNL     1       4.837   6.802  17.097  0.00  0.00    +0.000 A 
ATOM      3  C   UNL     1       3.578   6.900  17.694  0.00  0.00    +0.000 A 
ATOM      4  C   UNL     1       3.301   6.218  18.882  0.00  0.00    +0.000 A 
ATOM      5  C   UNL     1       4.317   5.480  19.492  0.00  0.00    +0.000 A 
ATOM      6  C   UNL     1       5.567   5.350  18.874  0.00  0.00    +0.000 A 
ENDROOT
BRANCH   1   7
ATOM      7  C   UNL     1       7.115   5.759  16.905  0.00  0.00    +0.000 C 
BRANCH   7   9
ATOM      8  C   UNL     1       6.014   3.851  15.571  0.00  0.00    +0.000 C 
ATOM      9  C   UNL     1       6.939   5.032  15.591  0.00  0.00    +0.000 C 
ATOM     10  O   UNL     1       7.543   5.389  14.572  0.00  0.00    +0.000 OA
ENDBRANCH   7   9
ENDBRANCH   1   7
BRANCH   4  11
ATOM     11  O   UNL     1       2.085   6.205  19.522  0.00  0.00    +0.000 OA
BRANCH  11  12
ATOM     12  C   UNL     1       2.006   5.320  20.642  0.00  0.00    +0.000 C 
BRANCH  12  13
ATOM     13  C   UNL     1       0.945   4.253  20.420  0.00  0.00    +0.000 C 
BRANCH  13  14
ATOM     14  C   UNL     1       1.495   2.897  20.857  0.00  0.00    +0.000 C 
BRANCH  14  15
ATOM     15  C   UNL     1       2.588   2.410  19.977  0.00  0.00    +0.000 A 
ATOM     16  C   UNL     1       3.907   2.162  20.289  0.00  0.00    +0.000 A 
ATOM     17  N   UNL     1       4.475   1.745  19.117  0.00  0.00    +0.000 N 
ATOM     18  C   UNL     1       3.502   1.759  18.160  0.00  0.00    +0.000 A 
ATOM     19  N   UNL     1       2.353   2.157  18.650  0.00  0.00    +0.000 NA
ATOM     20  H   UNL     1       5.438   1.476  18.979  0.00  0.00    +0.000 HD
ENDBRANCH  14  15
ENDBRANCH  13  14
ENDBRANCH  12  13
ENDBRANCH  11  12
ENDBRANCH   4  11
TORSDOF 7
ENDMDL
MODEL 2
REMARK VINA RESULT:      -6.8      0.923      1.199
REMARK  Name = 
REMARK  8 active torsions:
REMARK  status: ('A' for Active; 'I' for Inactive)
REMARK    1  A    between atoms: C_1  and  C_2
REMARK    2  A    between atoms: C_2  and  C_4
REMARK    3  A    between atoms: C_4  and  C_5
REMARK    4  A    between atoms: C_8  and  O_9
REMARK    5  A    between atoms: O_9  and  C_10
REMARK    6  A    between atoms: C_10  and  C_11
REMARK    7  A    between atoms: C_11  and  C_12
REMARK    8  A    between atoms: C_12  and  C_13
REMARK                            x       y       z     vdW  Elec       q    Type
REMARK                         _______ _______ _______ _____ _____    ______ ____
ROOT
ATOM      1  C   UNL     1       6.090   5.198  17.207  0.00  0.00    +0.000 A 
ATOM      2  C   UNL     1       5.288   6.201  16.661  0.00  0.00    +0.000 A 
ATOM      3  C   UNL     1       4.122   6.612  17.312  0.00  0.00    +0.000 A 
ATOM      4  C   UNL     1       3.769   6.066  18.549  0.00  0.00    +0.000 A 
ATOM      5  C   UNL     1       4.626   5.142  19.150  0.00  0.00    +0.000 A 
ATOM      6  C   UNL     1       5.775   4.701  18.481  0.00  0.00    +0.000 A 
ENDROOT
BRANCH   1   7
ATOM      7  C   UNL     1       7.254   4.656  16.419  0.00  0.00    +0.000 C 
BRANCH   7   9
ATOM      8  C   UNL     1       6.071   3.877  14.268  0.00  0.00    +0.000 C 
ATOM      9  C   UNL     1       7.074   4.780  14.923  0.00  0.00    +0.000 C 
ATOM     10  O   UNL     1       7.737   5.587  14.260  0.00  0.00    +0.000 OA
ENDBRANCH   7   9
ENDBRANCH   1   7
BRANCH   4  11
ATOM     11  O   UNL     1       2.623   6.360  19.247  0.00  0.00    +0.000 OA
BRANCH  11  12
ATOM     12  C   UNL     1       2.451   5.621  20.458  0.00  0.00    +0.000 C 
BRANCH  12  13
ATOM     13  C   UNL     1       1.100   4.923  20.483  0.00  0.00    +0.000 C 
BRANCH  13  14
ATOM     14  C   UNL     1       1.306   3.432  20.743  0.00  0.00    +0.000 C 
BRANCH  14  15
ATOM     15  C   UNL     1       1.969   2.739  19.608  0.00  0.00    +0.000 A 
ATOM     16  C   UNL     1       1.550   2.619  18.301  0.00  0.00    +0.000 A 
ATOM     17  N   UNL     1       2.519   1.877  17.686  0.00  0.00    +0.000 N 
ATOM     18  C   UNL     1       3.466   1.577  18.623  0.00  0.00    +0.000 A 
ATOM     19  N   UNL     1       3.159   2.083  19.793  0.00  0.00    +0.000 NA
ATOM     20  H   UNL     1       2.537   1.597  16.715  0.00  0.00    +0.000 HD
ENDBRANCH  14  15
ENDBRANCH  13  14
ENDBRANCH  12  13
ENDBRANCH  11  12
ENDBRANCH   4  11
TORSDOF 7
ENDMDL
MODEL 3
REMARK VINA RESULT:      -6.6      1.216      1.705
REMARK  Name = 
REMARK  8 active torsions:
REMARK  status: ('A' for Active; 'I' for Inactive)
REMARK    1  A    between atoms: C_1  and  C_2
REMARK    2  A    between atoms: C_2  and  C_4
REMARK    3  A    between atoms: C_4  and  C_5
REMARK    4  A    between atoms: C_8  and  O_9
REMARK    5  A    between atoms: O_9  and  C_10
REMARK    6  A    between atoms: C_10  and  C_11
REMARK    7  A    between atoms: C_11  and  C_12
REMARK    8  A    between atoms: C_12  and  C_13
REMARK                            x       y       z     vdW  Elec       q    Type
REMARK                         _______ _______ _______ _____ _____    ______ ____
ROOT
ATOM      1  C   UNL     1       5.270   4.395  17.107  0.00  0.00    +0.000 A 
ATOM      2  C   UNL     1       5.692   4.840  18.361  0.00  0.00    +0.000 A 
ATOM      3  C   UNL     1       4.797   5.473  19.228  0.00  0.00    +0.000 A 
ATOM      4  C   UNL     1       3.452   5.622  18.876  0.00  0.00    +0.000 A 
ATOM      5  C   UNL     1       3.005   5.081  17.670  0.00  0.00    +0.000 A 
ATOM      6  C   UNL     1       3.908   4.479  16.784  0.00  0.00    +0.000 A 
ENDROOT
BRANCH   1   7
ATOM      7  C   UNL     1       6.278   3.859  16.123  0.00  0.00    +0.000 C 
BRANCH   7   9
ATOM      8  C   UNL     1       6.106   3.857  13.554  0.00  0.00    +0.000 C 
ATOM      9  C   UNL     1       6.315   4.629  14.823  0.00  0.00    +0.000 C 
ATOM     10  O   UNL     1       6.522   5.849  14.803  0.00  0.00    +0.000 OA
ENDBRANCH   7   9
ENDBRANCH   1   7
BRANCH   4  11
ATOM     11  O   UNL     1       2.505   6.272  19.629  0.00  0.00    +0.000 OA
BRANCH  11  12
ATOM     12  C   UNL     1       2.087   5.572  20.803  0.00  0.00    +0.000 C 
BRANCH  12  13
ATOM     13  C   UNL     1       0.967   4.594  20.485  0.00  0.00    +0.000 C 
BRANCH  13  14
ATOM     14  C   UNL     1       1.350   3.205  20.993  0.00  0.00    +0.000 C 
BRANCH  14  15
ATOM     15  C   UNL     1       2.260   2.485  20.066  0.00  0.00    +0.000 A 
ATOM     16  C   UNL     1       1.965   1.856  18.876  0.00  0.00    +0.000 A 
ATOM     17  N   UNL     1       3.157   1.348  18.440  0.00  0.00    +0.000 N 
ATOM     18  C   UNL     1       4.108   1.676  19.363  0.00  0.00    +0.000 A 
ATOM     19  N   UNL     1       3.594   2.362  20.357  0.00  0.00    +0.000 NA
ATOM     20  H   UNL     1       3.312   0.824  17.591  0.00  0.00    +0.000 HD
ENDBRANCH  14  15
ENDBRANCH  13  14
ENDBRANCH  12  13
ENDBRANCH  11  12
ENDBRANCH   4  11
TORSDOF 7
ENDMDL
MODEL 4
REMARK VINA RESULT:      -6.5      2.548      5.930
REMARK  Name = 
REMARK  8 active torsions:
REMARK  status: ('A' for Active; 'I' for Inactive)
REMARK    1  A    between atoms: C_1  and  C_2
REMARK    2  A    between atoms: C_2  and  C_4
REMARK    3  A    between atoms: C_4  and  C_5
REMARK    4  A    between atoms: C_8  and  O_9
REMARK    5  A    between atoms: O_9  and  C_10
REMARK    6  A    between atoms: C_10  and  C_11
REMARK    7  A    between atoms: C_11  and  C_12
REMARK    8  A    between atoms: C_12  and  C_13
REMARK                            x       y       z     vdW  Elec       q    Type
REMARK                         _______ _______ _______ _____ _____    ______ ____
ROOT
ATOM      1  C   UNL     1       1.485   4.372  19.631  0.00  0.00    +0.000 A 
ATOM      2  C   UNL     1       1.817   5.514  20.362  0.00  0.00    +0.000 A 
ATOM      3  C   UNL     1       2.543   6.550  19.769  0.00  0.00    +0.000 A 
ATOM      4  C   UNL     1       2.899   6.486  18.419  0.00  0.00    +0.000 A 
ATOM      5  C   UNL     1       2.473   5.397  17.658  0.00  0.00    +0.000 A 
ATOM      6  C   UNL     1       1.779   4.339  18.260  0.00  0.00    +0.000 A 
ENDROOT
BRANCH   1   7
ATOM      7  C   UNL     1       0.843   3.198  20.324  0.00  0.00    +0.000 C 
BRANCH   7   9
ATOM      8  C   UNL     1       3.112   2.364  21.210  0.00  0.00    +0.000 C 
ATOM      9  C   UNL     1       1.665   2.658  21.473  0.00  0.00    +0.000 C 
ATOM     10  O   UNL     1       1.161   2.454  22.584  0.00  0.00    +0.000 OA
ENDBRANCH   7   9
ENDBRANCH   1   7
BRANCH   4  11
ATOM     11  O   UNL     1       3.653   7.422  17.754  0.00  0.00    +0.000 OA
BRANCH  11  12
ATOM     12  C   UNL     1       4.709   6.885  16.954  0.00  0.00    +0.000 C 
BRANCH  12  13
ATOM     13  C   UNL     1       5.741   6.176  17.818  0.00  0.00    +0.000 C 
BRANCH  13  14
ATOM     14  C   UNL     1       7.025   5.982  17.015  0.00  0.00    +0.000 C 
BRANCH  14  15
ATOM     15  C   UNL     1       6.828   5.126  15.817  0.00  0.00    +0.000 A 
ATOM     16  C   UNL     1       6.181   3.914  15.714  0.00  0.00    +0.000 A 
ATOM     17  N   UNL     1       6.303   3.558  14.400  0.00  0.00    +0.000 N 
ATOM     18  C   UNL     1       7.009   4.542  13.770  0.00  0.00    +0.000 A 
ATOM     19  N   UNL     1       7.340   5.501  14.601  0.00  0.00    +0.000 NA
ATOM     20  H   UNL     1       5.941   2.720  13.968  0.00  0.00    +0.000 HD
ENDBRANCH  14  15
ENDBRANCH  13  14
ENDBRANCH  12  13
ENDBRANCH  11  12
ENDBRANCH   4  11
TORSDOF 7
ENDMDL
MODEL 5
REMARK VINA RESULT:      -6.5      1.010      1.689
REMARK  Name = 
REMARK  8 active torsions:
REMARK  status: ('A' for Active; 'I' for Inactive)
REMARK    1  A    between atoms: C_1  and  C_2
REMARK    2  A    between atoms: C_2  and  C_4
REMARK    3  A    between atoms: C_4  and  C_5
REMARK    4  A    between atoms: C_8  and  O_9
REMARK    5  A    between atoms: O_9  and  C_10
REMARK    6  A    between atoms: C_10  and  C_11
REMARK    7  A    between atoms: C_11  and  C_12
REMARK    8  A    between atoms: C_12  and  C_13
REMARK                            x       y       z     vdW  Elec       q    Type
REMARK                         _______ _______ _______ _____ _____    ______ ____
ROOT
ATOM      1  C   UNL     1       5.464   6.061  17.569  0.00  0.00    +0.000 A 
ATOM      2  C   UNL     1       5.539   5.314  18.746  0.00  0.00    +0.000 A 
ATOM      3  C   UNL     1       4.484   5.324  19.662  0.00  0.00    +0.000 A 
ATOM      4  C   UNL     1       3.313   6.037  19.389  0.00  0.00    +0.000 A 
ATOM      5  C   UNL     1       3.192   6.695  18.164  0.00  0.00    +0.000 A 
ATOM      6  C   UNL     1       4.264   6.717  17.262  0.00  0.00    +0.000 A 
ENDROOT
BRANCH   1   7
ATOM      7  C   UNL     1       6.669   6.166  16.670  0.00  0.00    +0.000 C 
BRANCH   7   9
ATOM      8  C   UNL     1       6.613   4.264  14.934  0.00  0.00    +0.000 C 
ATOM      9  C   UNL     1       7.186   4.824  16.202  0.00  0.00    +0.000 C 
ATOM     10  O   UNL     1       8.041   4.205  16.847  0.00  0.00    +0.000 OA
ENDBRANCH   7   9
ENDBRANCH   1   7
BRANCH   4  11
ATOM     11  O   UNL     1       2.241   6.155  20.240  0.00  0.00    +0.000 OA
BRANCH  11  12
ATOM     12  C   UNL     1       1.438   4.979  20.360  0.00  0.00    +0.000 C 
BRANCH  12  13
ATOM     13  C   UNL     1       1.991   4.047  21.427  0.00  0.00    +0.000 C 
BRANCH  13  14
ATOM     14  C   UNL     1       1.690   2.601  21.039  0.00  0.00    +0.000 C 
BRANCH  14  15
ATOM     15  C   UNL     1       2.164   2.262  19.672  0.00  0.00    +0.000 A 
ATOM     16  C   UNL     1       1.437   2.140  18.508  0.00  0.00    +0.000 A 
ATOM     17  N   UNL     1       2.354   1.804  17.552  0.00  0.00    +0.000 N 
ATOM     18  C   UNL     1       3.575   1.733  18.159  0.00  0.00    +0.000 A 
ATOM     19  N   UNL     1       3.490   2.004  19.440  0.00  0.00    +0.000 NA
ATOM     20  H   UNL     1       2.169   1.637  16.574  0.00  0.00    +0.000 HD
ENDBRANCH  14  15
ENDBRANCH  13  14
ENDBRANCH  12  13
ENDBRANCH  11  12
ENDBRANCH   4  11
TORSDOF 7
ENDMDL
MODEL 6
REMARK VINA RESULT:      -6.3      2.062      3.078
REMARK  Name = 
REMARK  8 active torsions:
REMARK  status: ('A' for Active; 'I' for Inactive)
REMARK    1  A    between atoms: C_1  and  C_2
REMARK    2  A    between atoms: C_2  and  C_4
REMARK    3  A    between atoms: C_4  and  C_5
REMARK    4  A    between atoms: C_8  and  O_9
REMARK    5  A    between atoms: O_9  and  C_10
REMARK    6  A    between atoms: C_10  and  C_11
REMARK    7  A    between atoms: C_11  and  C_12
REMARK    8  A    between atoms: C_12  and  C_13
REMARK                            x       y       z     vdW  Elec       q    Type
REMARK                         _______ _______ _______ _____ _____    ______ ____
ROOT
ATOM      1  C   UNL     1       5.376   4.790  16.663  0.00  0.00    +0.000 A 
ATOM      2  C   UNL     1       5.973   5.304  17.816  0.00  0.00    +0.000 A 
ATOM      3  C   UNL     1       5.728   4.721  19.062  0.00  0.00    +0.000 A 
ATOM      4  C   UNL     1       4.928   3.580  19.168  0.00  0.00    +0.000 A 
ATOM      5  C   UNL     1       4.420   3.000  18.004  0.00  0.00    +0.000 A 
ATOM      6  C   UNL     1       4.632   3.605  16.759  0.00  0.00    +0.000 A 
ENDROOT
BRANCH   1   7
ATOM      7  C   UNL     1       5.522   5.522  15.354  0.00  0.00    +0.000 C 
BRANCH   7   9
ATOM      8  C   UNL     1       6.248   3.906  13.484  0.00  0.00    +0.000 C 
ATOM      9  C   UNL     1       6.622   4.967  14.477  0.00  0.00    +0.000 C 
ATOM     10  O   UNL     1       7.789   5.363  14.582  0.00  0.00    +0.000 OA
ENDBRANCH   7   9
ENDBRANCH   1   7
BRANCH   4  11
ATOM     11  O   UNL     1       4.584   2.961  20.344  0.00  0.00    +0.000 OA
BRANCH  11  12
ATOM     12  C   UNL     1       3.276   2.383  20.359  0.00  0.00    +0.000 C 
BRANCH  12  13
ATOM     13  C   UNL     1       2.382   3.083  21.371  0.00  0.00    +0.000 C 
BRANCH  13  14
ATOM     14  C   UNL     1       1.240   3.783  20.636  0.00  0.00    +0.000 C 
BRANCH  14  15
ATOM     15  C   UNL     1       1.715   4.857  19.727  0.00  0.00    +0.000 A 
ATOM     16  C   UNL     1       1.636   4.929  18.353  0.00  0.00    +0.000 A 
ATOM     17  N   UNL     1       2.231   6.114  18.025  0.00  0.00    +0.000 N 
ATOM     18  C   UNL     1       2.645   6.702  19.186  0.00  0.00    +0.000 A 
ATOM     19  N   UNL     1       2.348   5.965  20.229  0.00  0.00    +0.000 NA
ATOM     20  H   UNL     1       2.349   6.491  17.096  0.00  0.00    +0.000 HD
ENDBRANCH  14  15
ENDBRANCH  13  14
ENDBRANCH  12  13
ENDBRANCH  11  12
ENDBRANCH   4  11
TORSDOF 7
ENDMDL
MODEL 7
REMARK VINA RESULT:      -6.3      1.381      1.872
REMARK  Name = 
REMARK  8 active torsions:
REMARK  status: ('A' for Active; 'I' for Inactive)
REMARK    1  A    between atoms: C_1  and  C_2
REMARK    2  A    between atoms: C_2  and  C_4
REMARK    3  A    between atoms: C_4  and  C_5
REMARK    4  A    between atoms: C_8  and  O_9
REMARK    5  A    between atoms: O_9  and  C_10
REMARK    6  A    between atoms: C_10  and  C_11
REMARK    7  A    between atoms: C_11  and  C_12
REMARK    8  A    between atoms: C_12  and  C_13
REMARK                            x       y       z     vdW  Elec       q    Type
REMARK                         _______ _______ _______ _____ _____    ______ ____
ROOT
ATOM      1  C   UNL     1       4.633   6.356  17.649  0.00  0.00    +0.000 A 
ATOM      2  C   UNL     1       3.457   7.105  17.717  0.00  0.00    +0.000 A 
ATOM      3  C   UNL     1       2.544   6.901  18.755  0.00  0.00    +0.000 A 
ATOM      4  C   UNL     1       2.820   5.985  19.774  0.00  0.00    +0.000 A 
ATOM      5  C   UNL     1       4.044   5.315  19.768  0.00  0.00    +0.000 A 
ATOM      6  C   UNL     1       4.943   5.489  18.707  0.00  0.00    +0.000 A 
ENDROOT
BRANCH   1   7
ATOM      7  C   UNL     1       5.528   6.473  16.442  0.00  0.00    +0.000 C 
BRANCH   7   9
ATOM      8  C   UNL     1       7.666   7.464  17.480  0.00  0.00    +0.000 C 
ATOM      9  C   UNL     1       6.997   6.325  16.770  0.00  0.00    +0.000 C 
ATOM     10  O   UNL     1       7.627   5.309  16.453  0.00  0.00    +0.000 OA
ENDBRANCH   7   9
ENDBRANCH   1   7
BRANCH   4  11
ATOM     11  O   UNL     1       1.972   5.673  20.808  0.00  0.00    +0.000 OA
BRANCH  11  12
ATOM     12  C   UNL     1       1.717   4.276  20.975  0.00  0.00    +0.000 C 
BRANCH  12  13
ATOM     13  C   UNL     1       0.539   3.831  20.123  0.00  0.00    +0.000 C 
BRANCH  13  14
ATOM     14  C   UNL     1       0.855   2.478  19.490  0.00  0.00    +0.000 C 
BRANCH  14  15
ATOM     15  C   UNL     1       2.010   2.536  18.557  0.00  0.00    +0.000 A 
ATOM     16  C   UNL     1       2.178   3.314  17.433  0.00  0.00    +0.000 A 
ATOM     17  N   UNL     1       3.406   2.967  16.943  0.00  0.00    +0.000 N 
ATOM     18  C   UNL     1       3.923   2.009  17.767  0.00  0.00    +0.000 A 
ATOM     19  N   UNL     1       3.101   1.728  18.749  0.00  0.00    +0.000 NA
ATOM     20  H   UNL     1       3.854   3.346  16.121  0.00  0.00    +0.000 HD
ENDBRANCH  14  15
ENDBRANCH  13  14
ENDBRANCH  12  13
ENDBRANCH  11  12
ENDBRANCH   4  11
TORSDOF 7
ENDMDL
MODEL 8
REMARK VINA RESULT:      -6.2      0.757      1.321
REMARK  Name = 
REMARK  8 active torsions:
REMARK  status: ('A' for Active; 'I' for Inactive)
REMARK    1  A    between atoms: C_1  and  C_2
REMARK    2  A    between atoms: C_2  and  C_4
REMARK    3  A    between atoms: C_4  and  C_5
REMARK    4  A    between atoms: C_8  and  O_9
REMARK    5  A    between atoms: O_9  and  C_10
REMARK    6  A    between atoms: C_10  and  C_11
REMARK    7  A    between atoms: C_11  and  C_12
REMARK    8  A    between atoms: C_12  and  C_13
REMARK                            x       y       z     vdW  Elec       q    Type
REMARK                         _______ _______ _______ _____ _____    ______ ____
ROOT
ATOM      1  C   UNL     1       5.239   6.132  17.396  0.00  0.00    +0.000 A 
ATOM      2  C   UNL     1       5.331   5.345  18.545  0.00  0.00    +0.000 A 
ATOM      3  C   UNL     1       4.341   5.407  19.529  0.00  0.00    +0.000 A 
ATOM      4  C   UNL     1       3.214   6.214  19.353  0.00  0.00    +0.000 A 
ATOM      5  C   UNL     1       3.066   6.918  18.156  0.00  0.00    +0.000 A 
ATOM      6  C   UNL     1       4.076   6.886  17.186  0.00  0.00    +0.000 A 
ENDROOT
BRANCH   1   7
ATOM      7  C   UNL     1       6.388   6.173  16.421  0.00  0.00    +0.000 C 
BRANCH   7   9
ATOM      8  C   UNL     1       6.051   3.954  15.158  0.00  0.00    +0.000 C 
ATOM      9  C   UNL     1       6.908   4.802  16.050  0.00  0.00    +0.000 C 
ATOM     10  O   UNL     1       7.993   4.389  16.477  0.00  0.00    +0.000 OA
ENDBRANCH   7   9
ENDBRANCH   1   7
BRANCH   4  11
ATOM     11  O   UNL     1       2.212   6.387  20.276  0.00  0.00    +0.000 OA
BRANCH  11  12
ATOM     12  C   UNL     1       1.253   5.328  20.328  0.00  0.00    +0.000 C 
BRANCH  12  13
ATOM     13  C   UNL     1       1.728   4.207  21.239  0.00  0.00    +0.000 C 
BRANCH  13  14
ATOM     14  C   UNL     1       1.419   2.861  20.588  0.00  0.00    +0.000 C 
BRANCH  14  15
ATOM     15  C   UNL     1       2.556   2.334  19.790  0.00  0.00    +0.000 A 
ATOM     16  C   UNL     1       3.854   2.094  20.185  0.00  0.00    +0.000 A 
ATOM     17  N   UNL     1       4.484   1.627  19.065  0.00  0.00    +0.000 N 
ATOM     18  C   UNL     1       3.566   1.606  18.054  0.00  0.00    +0.000 A 
ATOM     19  N   UNL     1       2.394   2.029  18.463  0.00  0.00    +0.000 NA
ATOM     20  H   UNL     1       5.452   1.349  18.991  0.00  0.00    +0.000 HD
ENDBRANCH  14  15
ENDBRANCH  13  14
ENDBRANCH  12  13
ENDBRANCH  11  12
ENDBRANCH   4  11
TORSDOF 7
ENDMDL
MODEL 9
REMARK VINA RESULT:      -6.2      1.315      1.796
REMARK  Name = 
REMARK  8 active torsions:
REMARK  status: ('A' for Active; 'I' for Inactive)
REMARK    1  A    between atoms: C_1  and  C_2
REMARK    2  A    between atoms: C_2  and  C_4
REMARK    3  A    between atoms: C_4  and  C_5
REMARK    4  A    between atoms: C_8  and  O_9
REMARK    5  A    between atoms: O_9  and  C_10
REMARK    6  A    between atoms: C_10  and  C_11
REMARK    7  A    between atoms: C_11  and  C_12
REMARK    8  A    between atoms: C_12  and  C_13
REMARK                            x       y       z     vdW  Elec       q    Type
REMARK                         _______ _______ _______ _____ _____    ______ ____
ROOT
ATOM      1  C   UNL     1       5.474   4.946  15.557  0.00  0.00    +0.000 A 
ATOM      2  C   UNL     1       4.984   6.241  15.735  0.00  0.00    +0.000 A 
ATOM      3  C   UNL     1       4.495   6.651  16.978  0.00  0.00    +0.000 A 
ATOM      4  C   UNL     1       4.540   5.790  18.078  0.00  0.00    +0.000 A 
ATOM      5  C   UNL     1       5.129   4.533  17.930  0.00  0.00    +0.000 A 
ATOM      6  C   UNL     1       5.586   4.107  16.675  0.00  0.00    +0.000 A 
ENDROOT
BRANCH   1   7
ATOM      7  C   UNL     1       5.850   4.470  14.178  0.00  0.00    +0.000 C 
BRANCH   7   9
ATOM      8  C   UNL     1       7.525   4.825  12.254  0.00  0.00    +0.000 C 
ATOM      9  C   UNL     1       7.185   4.999  13.704  0.00  0.00    +0.000 C 
ATOM     10  O   UNL     1       7.974   5.544  14.486  0.00  0.00    +0.000 OA
ENDBRANCH   7   9
ENDBRANCH   1   7
BRANCH   4  11
ATOM     11  O   UNL     1       4.040   6.073  19.325  0.00  0.00    +0.000 OA
BRANCH  11  12
ATOM     12  C   UNL     1       2.621   5.948  19.447  0.00  0.00    +0.000 C 
BRANCH  12  13
ATOM     13  C   UNL     1       2.249   5.147  20.685  0.00  0.00    +0.000 C 
BRANCH  13  14
ATOM     14  C   UNL     1       1.618   3.823  20.258  0.00  0.00    +0.000 C 
BRANCH  14  15
ATOM     15  C   UNL     1       2.621   2.841  19.770  0.00  0.00    +0.000 A 
ATOM     16  C   UNL     1       3.815   2.462  20.343  0.00  0.00    +0.000 A 
ATOM     17  N   UNL     1       4.347   1.545  19.481  0.00  0.00    +0.000 N 
ATOM     18  C   UNL     1       3.477   1.407  18.438  0.00  0.00    +0.000 A 
ATOM     19  N   UNL     1       2.427   2.178  18.584  0.00  0.00    +0.000 NA
ATOM     20  H   UNL     1       5.223   1.055  19.590  0.00  0.00    +0.000 HD
ENDBRANCH  14  15
ENDBRANCH  13  14
ENDBRANCH  12  13
ENDBRANCH  11  12
ENDBRANCH   4  11
TORSDOF 7
ENDMDL
