MODEL 1
REMARK VINA RESULT:      -8.7      0.000      0.000
REMARK  Name = 
REMARK  6 active torsions:
REMARK  status: ('A' for Active; 'I' for Inactive)
REMARK    1  A    between atoms: N_1  and  C_2
REMARK    2  A    between atoms: C_2  and  C_3
REMARK    3  A    between atoms: C_3  and  C_4
REMARK    4  A    between atoms: C_4  and  N_5
REMARK    5  A    between atoms: C_11  and  N_12
REMARK    6  A    between atoms: C_23  and  O_24
REMARK                            x       y       z     vdW  Elec       q    Type
REMARK                         _______ _______ _______ _____ _____    ______ ____
ROOT
ATOM      1  N   UNL     1       2.829   5.484  19.826  0.00  0.00    +0.000 N 
ATOM      2  C   UNL     1       2.434   6.776  19.470  0.00  0.00    +0.000 A 
ATOM      3  C   UNL     1       2.875   7.329  18.322  0.00  0.00    +0.000 A 
ATOM      4  C   UNL     1       3.821   6.674  17.444  0.00  0.00    +0.000 A 
ATOM      5  C   UNL     1       4.419   7.342  16.367  0.00  0.00    +0.000 A 
ATOM      6  C   UNL     1       5.336   6.691  15.547  0.00  0.00    +0.000 A 
ATOM      7  C   UNL     1       5.632   5.346  15.781  0.00  0.00    +0.000 A 
ATOM      8  C   UNL     1       5.052   4.663  16.864  0.00  0.00    +0.000 A 
ATOM      9  C   UNL     1       4.164   5.345  17.713  0.00  0.00    +0.000 A 
ATOM     10  C   UNL     1       3.620   4.693  18.940  0.00  0.00    +0.000 A 
ATOM     11  O   UNL     1       3.911   3.517  19.155  0.00  0.00    +0.000 OA
ATOM     12  C   UNL     1       2.259   8.652  18.138  0.00  0.00    +0.000 C 
ATOM     13  O   UNL     1       2.372   9.418  17.202  0.00  0.00    +0.000 OA
ATOM     14  C   UNL     1       1.449   8.882  19.308  0.00  0.00    +0.000 A 
ATOM     15  C   UNL     1       0.726  10.038  19.564  0.00  0.00    +0.000 A 
ATOM     16  C   UNL     1       0.035  10.073  20.755  0.00  0.00    +0.000 A 
ATOM     17  C   UNL     1       0.082   8.987  21.633  0.00  0.00    +0.000 A 
ATOM     18  C   UNL     1       0.833   7.831  21.327  0.00  0.00    +0.000 A 
ATOM     19  C   UNL     1       1.543   7.758  20.136  0.00  0.00    +0.000 A 
ENDROOT
BRANCH   7  20
ATOM     20  N   UNL     1       6.570   4.665  14.880  0.00  0.00    +0.000 N 
ATOM     21  O   UNL     1       6.218   3.580  14.391  0.00  0.00    +0.000 OA
ATOM     22  O   UNL     1       7.659   5.212  14.667  0.00  0.00    +0.000 OA
ENDBRANCH   7  20
BRANCH  16  23
ATOM     23  O   UNL     1      -0.699  11.163  21.113  0.00  0.00    +0.000 OA
ATOM     24  H   UNL     1      -0.103  11.839  21.479  0.00  0.00    +0.000 HD
ENDBRANCH  16  23
BRANCH   1  25
ATOM     25  C   UNL     1       2.454   4.840  21.084  0.00  0.00    +0.000 C 
BRANCH  25  26
ATOM     26  C   UNL     1       1.258   3.876  20.982  0.00  0.00    +0.000 C 
BRANCH  26  27
ATOM     27  C   UNL     1       1.488   2.490  21.580  0.00  0.00    +0.000 C 
BRANCH  27  28
ATOM     28  N   UNL     1       2.893   2.254  21.889  0.00  0.00    +0.000 NA
ATOM     29  H   UNL     1       2.986   1.334  22.320  0.00  0.00    +0.000 HD
ATOM     30  H   UNL     1       3.202   2.920  22.597  0.00  0.00    +0.000 HD
ENDBRANCH  27  28
ENDBRANCH  26  27
ENDBRANCH  25  26
ENDBRANCH   1  25
TORSDOF 6
ENDMDL
MODEL 2
REMARK VINA RESULT:      -7.6      1.938      6.571
REMARK  Name = 
REMARK  6 active torsions:
REMARK  status: ('A' for Active; 'I' for Inactive)
REMARK    1  A    between atoms: N_1  and  C_2
REMARK    2  A    between atoms: C_2  and  C_3
REMARK    3  A    between atoms: C_3  and  C_4
REMARK    4  A    between atoms: C_4  and  N_5
REMARK    5  A    between atoms: C_11  and  N_12
REMARK    6  A    between atoms: C_23  and  O_24
REMARK                            x       y       z     vdW  Elec       q    Type
REMARK                         _______ _______ _______ _____ _____    ______ ____
ROOT
ATOM      1  N   UNL     1       3.238   4.316  19.424  0.00  0.00    +0.000 N 
ATOM      2  C   UNL     1       3.718   5.038  18.328  0.00  0.00    +0.000 A 
ATOM      3  C   UNL     1       3.434   6.349  18.201  0.00  0.00    +0.000 A 
ATOM      4  C   UNL     1       2.575   7.062  19.123  0.00  0.00    +0.000 A 
ATOM      5  C   UNL     1       2.131   8.366  18.866  0.00  0.00    +0.000 A 
ATOM      6  C   UNL     1       1.293   9.022  19.764  0.00  0.00    +0.000 A 
ATOM      7  C   UNL     1       0.925   8.385  20.950  0.00  0.00    +0.000 A 
ATOM      8  C   UNL     1       1.350   7.072  21.220  0.00  0.00    +0.000 A 
ATOM      9  C   UNL     1       2.156   6.403  20.283  0.00  0.00    +0.000 A 
ATOM     10  C   UNL     1       2.529   4.971  20.475  0.00  0.00    +0.000 A 
ATOM     11  O   UNL     1       2.175   4.407  21.509  0.00  0.00    +0.000 OA
ATOM     12  C   UNL     1       4.114   6.895  17.017  0.00  0.00    +0.000 C 
ATOM     13  O   UNL     1       4.138   8.041  16.616  0.00  0.00    +0.000 OA
ATOM     14  C   UNL     1       4.788   5.782  16.396  0.00  0.00    +0.000 A 
ATOM     15  C   UNL     1       5.517   5.847  15.217  0.00  0.00    +0.000 A 
ATOM     16  C   UNL     1       6.065   4.663  14.773  0.00  0.00    +0.000 A 
ATOM     17  C   UNL     1       5.877   3.482  15.496  0.00  0.00    +0.000 A 
ATOM     18  C   UNL     1       5.126   3.467  16.692  0.00  0.00    +0.000 A 
ATOM     19  C   UNL     1       4.559   4.641  17.171  0.00  0.00    +0.000 A 
ENDROOT
BRANCH   7  20
ATOM     20  N   UNL     1       0.076   9.108  21.905  0.00  0.00    +0.000 N 
ATOM     21  O   UNL     1       0.409  10.262  22.217  0.00  0.00    +0.000 OA
ATOM     22  O   UNL     1      -0.920   8.520  22.344  0.00  0.00    +0.000 OA
ENDBRANCH   7  20
BRANCH  16  23
ATOM     23  O   UNL     1       6.790   4.609  13.622  0.00  0.00    +0.000 OA
ATOM     24  H   UNL     1       7.399   5.368  13.596  0.00  0.00    +0.000 HD
ENDBRANCH  16  23
BRANCH   1  25
ATOM     25  C   UNL     1       3.441   2.878  19.599  0.00  0.00    +0.000 C 
BRANCH  25  26
ATOM     26  C   UNL     1       2.439   1.989  18.840  0.00  0.00    +0.000 C 
BRANCH  26  27
ATOM     27  C   UNL     1       1.084   2.634  18.557  0.00  0.00    +0.000 C 
BRANCH  27  28
ATOM     28  N   UNL     1       0.205   2.591  19.719  0.00  0.00    +0.000 NA
ATOM     29  H   UNL     1      -0.762   2.510  19.399  0.00  0.00    +0.000 HD
ATOM     30  H   UNL     1       0.254   3.481  20.216  0.00  0.00    +0.000 HD
ENDBRANCH  27  28
ENDBRANCH  26  27
ENDBRANCH  25  26
ENDBRANCH   1  25
TORSDOF 6
ENDMDL
MODEL 3
REMARK VINA RESULT:      -7.0      1.728      6.475
REMARK  Name = 
REMARK  6 active torsions:
REMARK  status: ('A' for Active; 'I' for Inactive)
REMARK    1  A    between atoms: N_1  and  C_2
REMARK    2  A    between atoms: C_2  and  C_3
REMARK    3  A    between atoms: C_3  and  C_4
REMARK    4  A    between atoms: C_4  and  N_5
REMARK    5  A    between atoms: C_11  and  N_12
REMARK    6  A    between atoms: C_23  and  O_24
REMARK                            x       y       z     vdW  Elec       q    Type
REMARK                         _______ _______ _______ _____ _____    ______ ____
ROOT
ATOM      1  N   UNL     1       3.220   4.905  19.374  0.00  0.00    +0.000 N 
ATOM      2  C   UNL     1       3.748   5.338  18.155  0.00  0.00    +0.000 A 
ATOM      3  C   UNL     1       3.537   6.601  17.733  0.00  0.00    +0.000 A 
ATOM      4  C   UNL     1       2.709   7.545  18.454  0.00  0.00    +0.000 A 
ATOM      5  C   UNL     1       2.339   8.778  17.903  0.00  0.00    +0.000 A 
ATOM      6  C   UNL     1       1.530   9.660  18.614  0.00  0.00    +0.000 A 
ATOM      7  C   UNL     1       1.117   9.325  19.905  0.00  0.00    +0.000 A 
ATOM      8  C   UNL     1       1.468   8.085  20.470  0.00  0.00    +0.000 A 
ATOM      9  C   UNL     1       2.245   7.184  19.723  0.00  0.00    +0.000 A 
ATOM     10  C   UNL     1       2.538   5.814  20.237  0.00  0.00    +0.000 A 
ATOM     11  O   UNL     1       2.144   5.515  21.364  0.00  0.00    +0.000 OA
ATOM     12  C   UNL     1       4.256   6.832  16.471  0.00  0.00    +0.000 C 
ATOM     13  O   UNL     1       4.346   7.856  15.825  0.00  0.00    +0.000 OA
ATOM     14  C   UNL     1       4.875   5.575  16.128  0.00  0.00    +0.000 A 
ATOM     15  C   UNL     1       5.616   5.338  14.980  0.00  0.00    +0.000 A 
ATOM     16  C   UNL     1       6.104   4.058  14.823  0.00  0.00    +0.000 A 
ATOM     17  C   UNL     1       5.845   3.080  15.788  0.00  0.00    +0.000 A 
ATOM     18  C   UNL     1       5.084   3.372  16.941  0.00  0.00    +0.000 A 
ATOM     19  C   UNL     1       4.577   4.650  17.134  0.00  0.00    +0.000 A 
ENDROOT
BRANCH   7  20
ATOM     20  N   UNL     1       0.300  10.286  20.656  0.00  0.00    +0.000 N 
ATOM     21  O   UNL     1       0.803  10.813  21.660  0.00  0.00    +0.000 OA
ATOM     22  O   UNL     1      -0.846  10.507  20.244  0.00  0.00    +0.000 OA
ENDBRANCH   7  20
BRANCH  16  23
ATOM     23  O   UNL     1       6.835   3.711  13.728  0.00  0.00    +0.000 OA
ATOM     24  H   UNL     1       6.290   3.148  13.150  0.00  0.00    +0.000 HD
ENDBRANCH  16  23
BRANCH   1  25
ATOM     25  C   UNL     1       3.343   3.534  19.869  0.00  0.00    +0.000 C 
BRANCH  25  26
ATOM     26  C   UNL     1       2.175   2.606  19.491  0.00  0.00    +0.000 C 
BRANCH  26  27
ATOM     27  C   UNL     1       1.139   2.385  20.591  0.00  0.00    +0.000 C 
BRANCH  27  28
ATOM     28  N   UNL     1       1.697   2.604  21.920  0.00  0.00    +0.000 NA
ATOM     29  H   UNL     1       1.827   3.607  22.062  0.00  0.00    +0.000 HD
ATOM     30  H   UNL     1       2.632   2.199  21.968  0.00  0.00    +0.000 HD
ENDBRANCH  27  28
ENDBRANCH  26  27
ENDBRANCH  25  26
ENDBRANCH   1  25
TORSDOF 6
ENDMDL
MODEL 4
REMARK VINA RESULT:      -7.0      2.700      5.125
REMARK  Name = 
REMARK  6 active torsions:
REMARK  status: ('A' for Active; 'I' for Inactive)
REMARK    1  A    between atoms: N_1  and  C_2
REMARK    2  A    between atoms: C_2  and  C_3
REMARK    3  A    between atoms: C_3  and  C_4
REMARK    4  A    between atoms: C_4  and  N_5
REMARK    5  A    between atoms: C_11  and  N_12
REMARK    6  A    between atoms: C_23  and  O_24
REMARK                            x       y       z     vdW  Elec       q    Type
REMARK                         _______ _______ _______ _____ _____    ______ ____
ROOT
ATOM      1  N   UNL     1       3.934   6.552  17.718  0.00  0.00    +0.000 N 
ATOM      2  C   UNL     1       3.663   5.251  18.151  0.00  0.00    +0.000 A 
ATOM      3  C   UNL     1       4.193   4.195  17.504  0.00  0.00    +0.000 A 
ATOM      4  C   UNL     1       4.995   4.325  16.305  0.00  0.00    +0.000 A 
ATOM      5  C   UNL     1       5.367   3.214  15.537  0.00  0.00    +0.000 A 
ATOM      6  C   UNL     1       6.126   3.371  14.381  0.00  0.00    +0.000 A 
ATOM      7  C   UNL     1       6.552   4.648  14.007  0.00  0.00    +0.000 A 
ATOM      8  C   UNL     1       6.177   5.776  14.758  0.00  0.00    +0.000 A 
ATOM      9  C   UNL     1       5.371   5.609  15.897  0.00  0.00    +0.000 A 
ATOM     10  C   UNL     1       4.854   6.788  16.652  0.00  0.00    +0.000 A 
ATOM     11  O   UNL     1       5.209   7.911  16.297  0.00  0.00    +0.000 OA
ATOM     12  C   UNL     1       3.825   2.950  18.196  0.00  0.00    +0.000 C 
ATOM     13  O   UNL     1       4.160   1.812  17.940  0.00  0.00    +0.000 OA
ATOM     14  C   UNL     1       2.968   3.340  19.289  0.00  0.00    +0.000 A 
ATOM     15  C   UNL     1       2.356   2.464  20.174  0.00  0.00    +0.000 A 
ATOM     16  C   UNL     1       1.552   3.035  21.137  0.00  0.00    +0.000 A 
ATOM     17  C   UNL     1       1.387   4.421  21.189  0.00  0.00    +0.000 A 
ATOM     18  C   UNL     1       2.033   5.271  20.265  0.00  0.00    +0.000 A 
ATOM     19  C   UNL     1       2.851   4.733  19.280  0.00  0.00    +0.000 A 
ENDROOT
BRANCH   7  20
ATOM     20  N   UNL     1       7.387   4.789  12.808  0.00  0.00    +0.000 N 
ATOM     21  O   UNL     1       8.235   5.694  12.798  0.00  0.00    +0.000 OA
ATOM     22  O   UNL     1       7.190   3.998  11.877  0.00  0.00    +0.000 OA
ENDBRANCH   7  20
BRANCH  16  23
ATOM     23  O   UNL     1       0.894   2.269  22.050  0.00  0.00    +0.000 OA
ATOM     24  H   UNL     1       0.472   2.852  22.705  0.00  0.00    +0.000 HD
ENDBRANCH  16  23
BRANCH   1  25
ATOM     25  C   UNL     1       3.344   7.747  18.319  0.00  0.00    +0.000 C 
BRANCH  25  26
ATOM     26  C   UNL     1       1.961   8.131  17.762  0.00  0.00    +0.000 C 
BRANCH  26  27
ATOM     27  C   UNL     1       1.418   9.475  18.242  0.00  0.00    +0.000 C 
BRANCH  27  28
ATOM     28  N   UNL     1       2.057  10.597  17.565  0.00  0.00    +0.000 NA
ATOM     29  H   UNL     1       2.924  10.272  17.135  0.00  0.00    +0.000 HD
ATOM     30  H   UNL     1       2.338  11.295  18.254  0.00  0.00    +0.000 HD
ENDBRANCH  27  28
ENDBRANCH  26  27
ENDBRANCH  25  26
ENDBRANCH   1  25
TORSDOF 6
ENDMDL
MODEL 5
REMARK VINA RESULT:      -7.0      1.916      6.552
REMARK  Name = 
REMARK  6 active torsions:
REMARK  status: ('A' for Active; 'I' for Inactive)
REMARK    1  A    between atoms: N_1  and  C_2
REMARK    2  A    between atoms: C_2  and  C_3
REMARK    3  A    between atoms: C_3  and  C_4
REMARK    4  A    between atoms: C_4  and  N_5
REMARK    5  A    between atoms: C_11  and  N_12
REMARK    6  A    between atoms: C_23  and  O_24
REMARK                            x       y       z     vdW  Elec       q    Type
REMARK                         _______ _______ _______ _____ _____    ______ ____
ROOT
ATOM      1  N   UNL     1       3.034   4.284  19.248  0.00  0.00    +0.000 N 
ATOM      2  C   UNL     1       3.595   5.037  18.213  0.00  0.00    +0.000 A 
ATOM      3  C   UNL     1       3.367   6.364  18.137  0.00  0.00    +0.000 A 
ATOM      4  C   UNL     1       2.490   7.066  19.050  0.00  0.00    +0.000 A 
ATOM      5  C   UNL     1       2.109   8.397  18.835  0.00  0.00    +0.000 A 
ATOM      6  C   UNL     1       1.252   9.043  19.722  0.00  0.00    +0.000 A 
ATOM      7  C   UNL     1       0.801   8.366  20.857  0.00  0.00    +0.000 A 
ATOM      8  C   UNL     1       1.162   7.026  21.082  0.00  0.00    +0.000 A 
ATOM      9  C   UNL     1       1.989   6.371  20.155  0.00  0.00    +0.000 A 
ATOM     10  C   UNL     1       2.298   4.917  20.294  0.00  0.00    +0.000 A 
ATOM     11  O   UNL     1       1.870   4.320  21.281  0.00  0.00    +0.000 OA
ATOM     12  C   UNL     1       4.126   6.936  17.015  0.00  0.00    +0.000 C 
ATOM     13  O   UNL     1       4.213   8.098  16.673  0.00  0.00    +0.000 OA
ATOM     14  C   UNL     1       4.789   5.828  16.374  0.00  0.00    +0.000 A 
ATOM     15  C   UNL     1       5.578   5.919  15.237  0.00  0.00    +0.000 A 
ATOM     16  C   UNL     1       6.103   4.736  14.763  0.00  0.00    +0.000 A 
ATOM     17  C   UNL     1       5.835   3.531  15.418  0.00  0.00    +0.000 A 
ATOM     18  C   UNL     1       5.024   3.490  16.574  0.00  0.00    +0.000 A 
ATOM     19  C   UNL     1       4.478   4.661  17.081  0.00  0.00    +0.000 A 
ENDROOT
BRANCH   7  20
ATOM     20  N   UNL     1      -0.068   9.078  21.803  0.00  0.00    +0.000 N 
ATOM     21  O   UNL     1      -0.784   8.398  22.554  0.00  0.00    +0.000 OA
ATOM     22  O   UNL     1      -0.037  10.315  21.789  0.00  0.00    +0.000 OA
ENDBRANCH   7  20
BRANCH  16  23
ATOM     23  O   UNL     1       6.883   4.707  13.647  0.00  0.00    +0.000 OA
ATOM     24  H   UNL     1       7.561   5.402  13.718  0.00  0.00    +0.000 HD
ENDBRANCH  16  23
BRANCH   1  25
ATOM     25  C   UNL     1       3.173   2.833  19.362  0.00  0.00    +0.000 C 
BRANCH  25  26
ATOM     26  C   UNL     1       4.512   2.360  19.958  0.00  0.00    +0.000 C 
BRANCH  26  27
ATOM     27  C   UNL     1       4.407   1.641  21.300  0.00  0.00    +0.000 C 
BRANCH  27  28
ATOM     28  N   UNL     1       5.690   1.101  21.733  0.00  0.00    +0.000 NA
ATOM     29  H   UNL     1       6.412   1.808  21.588  0.00  0.00    +0.000 HD
ATOM     30  H   UNL     1       5.950   0.318  21.133  0.00  0.00    +0.000 HD
ENDBRANCH  27  28
ENDBRANCH  26  27
ENDBRANCH  25  26
ENDBRANCH   1  25
TORSDOF 6
ENDMDL
MODEL 6
REMARK VINA RESULT:      -6.9      6.159      8.224
REMARK  Name = 
REMARK  6 active torsions:
REMARK  status: ('A' for Active; 'I' for Inactive)
REMARK    1  A    between atoms: N_1  and  C_2
REMARK    2  A    between atoms: C_2  and  C_3
REMARK    3  A    between atoms: C_3  and  C_4
REMARK    4  A    between atoms: C_4  and  N_5
REMARK    5  A    between atoms: C_11  and  N_12
REMARK    6  A    between atoms: C_23  and  O_24
REMARK                            x       y       z     vdW  Elec       q    Type
REMARK                         _______ _______ _______ _____ _____    ______ ____
ROOT
ATOM      1  N   UNL     1      -0.858  11.248  19.811  0.00  0.00    +0.000 N 
ATOM      2  C   UNL     1      -1.979  11.912  20.316  0.00  0.00    +0.000 A 
ATOM      3  C   UNL     1      -3.102  12.008  19.577  0.00  0.00    +0.000 A 
ATOM      4  C   UNL     1      -3.198  11.512  18.220  0.00  0.00    +0.000 A 
ATOM      5  C   UNL     1      -4.299  11.798  17.402  0.00  0.00    +0.000 A 
ATOM      6  C   UNL     1      -4.357  11.321  16.096  0.00  0.00    +0.000 A 
ATOM      7  C   UNL     1      -3.323  10.516  15.612  0.00  0.00    +0.000 A 
ATOM      8  C   UNL     1      -2.204  10.229  16.414  0.00  0.00    +0.000 A 
ATOM      9  C   UNL     1      -2.135  10.757  17.714  0.00  0.00    +0.000 A 
ATOM     10  C   UNL     1      -0.914  10.576  18.553  0.00  0.00    +0.000 A 
ATOM     11  O   UNL     1       0.006   9.891  18.107  0.00  0.00    +0.000 OA
ATOM     12  C   UNL     1      -4.155  12.677  20.355  0.00  0.00    +0.000 C 
ATOM     13  O   UNL     1      -5.309  12.892  20.043  0.00  0.00    +0.000 OA
ATOM     14  C   UNL     1      -3.553  13.037  21.615  0.00  0.00    +0.000 A 
ATOM     15  C   UNL     1      -4.189  13.733  22.633  0.00  0.00    +0.000 A 
ATOM     16  C   UNL     1      -3.430  14.003  23.752  0.00  0.00    +0.000 A 
ATOM     17  C   UNL     1      -2.099  13.584  23.821  0.00  0.00    +0.000 A 
ATOM     18  C   UNL     1      -1.496  12.878  22.757  0.00  0.00    +0.000 A 
ATOM     19  C   UNL     1      -2.229  12.587  21.614  0.00  0.00    +0.000 A 
ENDROOT
BRANCH   7  20
ATOM     20  N   UNL     1      -3.422   9.986  14.247  0.00  0.00    +0.000 N 
ATOM     21  O   UNL     1      -4.554   9.746  13.800  0.00  0.00    +0.000 OA
ATOM     22  O   UNL     1      -2.367   9.807  13.625  0.00  0.00    +0.000 OA
ENDBRANCH   7  20
BRANCH  16  23
ATOM     23  O   UNL     1      -3.949  14.689  24.807  0.00  0.00    +0.000 OA
ATOM     24  H   UNL     1      -4.697  15.229  24.496  0.00  0.00    +0.000 HD
ENDBRANCH  16  23
BRANCH   1  25
ATOM     25  C   UNL     1       0.419  11.160  20.518  0.00  0.00    +0.000 C 
BRANCH  25  26
ATOM     26  C   UNL     1       0.705   9.792  21.163  0.00  0.00    +0.000 C 
BRANCH  26  27
ATOM     27  C   UNL     1      -0.264   9.381  22.269  0.00  0.00    +0.000 C 
BRANCH  27  28
ATOM     28  N   UNL     1       0.219   9.762  23.590  0.00  0.00    +0.000 NA
ATOM     29  H   UNL     1      -0.565  10.117  24.139  0.00  0.00    +0.000 HD
ATOM     30  H   UNL     1       0.868  10.545  23.502  0.00  0.00    +0.000 HD
ENDBRANCH  27  28
ENDBRANCH  26  27
ENDBRANCH  25  26
ENDBRANCH   1  25
TORSDOF 6
ENDMDL
MODEL 7
REMARK VINA RESULT:      -6.9      0.945      1.148
REMARK  Name = 
REMARK  6 active torsions:
REMARK  status: ('A' for Active; 'I' for Inactive)
REMARK    1  A    between atoms: N_1  and  C_2
REMARK    2  A    between atoms: C_2  and  C_3
REMARK    3  A    between atoms: C_3  and  C_4
REMARK    4  A    between atoms: C_4  and  N_5
REMARK    5  A    between atoms: C_11  and  N_12
REMARK    6  A    between atoms: C_23  and  O_24
REMARK                            x       y       z     vdW  Elec       q    Type
REMARK                         _______ _______ _______ _____ _____    ______ ____
ROOT
ATOM      1  N   UNL     1       2.534   4.806  19.094  0.00  0.00    +0.000 N 
ATOM      2  C   UNL     1       2.365   6.193  19.059  0.00  0.00    +0.000 A 
ATOM      3  C   UNL     1       2.998   6.931  18.126  0.00  0.00    +0.000 A 
ATOM      4  C   UNL     1       3.930   6.366  17.172  0.00  0.00    +0.000 A 
ATOM      5  C   UNL     1       4.726   7.172  16.348  0.00  0.00    +0.000 A 
ATOM      6  C   UNL     1       5.624   6.601  15.450  0.00  0.00    +0.000 A 
ATOM      7  C   UNL     1       5.701   5.211  15.346  0.00  0.00    +0.000 A 
ATOM      8  C   UNL     1       4.919   4.386  16.174  0.00  0.00    +0.000 A 
ATOM      9  C   UNL     1       4.051   4.975  17.110  0.00  0.00    +0.000 A 
ATOM     10  C   UNL     1       3.295   4.139  18.088  0.00  0.00    +0.000 A 
ATOM     11  O   UNL     1       3.392   2.915  18.010  0.00  0.00    +0.000 OA
ATOM     12  C   UNL     1       2.598   8.341  18.250  0.00  0.00    +0.000 C 
ATOM     13  O   UNL     1       2.916   9.284  17.554  0.00  0.00    +0.000 OA
ATOM     14  C   UNL     1       1.710   8.406  19.384  0.00  0.00    +0.000 A 
ATOM     15  C   UNL     1       1.134   9.566  19.882  0.00  0.00    +0.000 A 
ATOM     16  C   UNL     1       0.332   9.420  20.993  0.00  0.00    +0.000 A 
ATOM     17  C   UNL     1       0.133   8.158  21.561  0.00  0.00    +0.000 A 
ATOM     18  C   UNL     1       0.742   7.006  21.016  0.00  0.00    +0.000 A 
ATOM     19  C   UNL     1       1.556   7.113  19.897  0.00  0.00    +0.000 A 
ENDROOT
BRANCH   7  20
ATOM     20  N   UNL     1       6.623   4.628  14.364  0.00  0.00    +0.000 N 
ATOM     21  O   UNL     1       7.695   5.216  14.155  0.00  0.00    +0.000 OA
ATOM     22  O   UNL     1       6.271   3.584  13.798  0.00  0.00    +0.000 OA
ENDBRANCH   7  20
BRANCH  16  23
ATOM     23  O   UNL     1      -0.274  10.493  21.572  0.00  0.00    +0.000 OA
ATOM     24  H   UNL     1      -0.747  10.196  22.369  0.00  0.00    +0.000 HD
ENDBRANCH  16  23
BRANCH   1  25
ATOM     25  C   UNL     1       1.941   3.943  20.115  0.00  0.00    +0.000 C 
BRANCH  25  26
ATOM     26  C   UNL     1       2.871   3.609  21.296  0.00  0.00    +0.000 C 
BRANCH  26  27
ATOM     27  C   UNL     1       3.424   2.186  21.305  0.00  0.00    +0.000 C 
BRANCH  27  28
ATOM     28  N   UNL     1       4.670   2.079  20.557  0.00  0.00    +0.000 NA
ATOM     29  H   UNL     1       4.700   1.170  20.092  0.00  0.00    +0.000 HD
ATOM     30  H   UNL     1       5.458   2.079  21.206  0.00  0.00    +0.000 HD
ENDBRANCH  27  28
ENDBRANCH  26  27
ENDBRANCH  25  26
ENDBRANCH   1  25
TORSDOF 6
ENDMDL
MODEL 8
REMARK VINA RESULT:      -6.8      2.492      7.383
REMARK  Name = 
REMARK  6 active torsions:
REMARK  status: ('A' for Active; 'I' for Inactive)
REMARK    1  A    between atoms: N_1  and  C_2
REMARK    2  A    between atoms: C_2  and  C_3
REMARK    3  A    between atoms: C_3  and  C_4
REMARK    4  A    between atoms: C_4  and  N_5
REMARK    5  A    between atoms: C_11  and  N_12
REMARK    6  A    between atoms: C_23  and  O_24
REMARK                            x       y       z     vdW  Elec       q    Type
REMARK                         _______ _______ _______ _____ _____    ______ ____
ROOT
ATOM      1  N   UNL     1       3.352   7.056  17.733  0.00  0.00    +0.000 N 
ATOM      2  C   UNL     1       3.037   5.905  18.460  0.00  0.00    +0.000 A 
ATOM      3  C   UNL     1       2.213   5.977  19.524  0.00  0.00    +0.000 A 
ATOM      4  C   UNL     1       1.673   7.226  20.019  0.00  0.00    +0.000 A 
ATOM      5  C   UNL     1       0.986   7.306  21.237  0.00  0.00    +0.000 A 
ATOM      6  C   UNL     1       0.490   8.523  21.695  0.00  0.00    +0.000 A 
ATOM      7  C   UNL     1       0.648   9.668  20.911  0.00  0.00    +0.000 A 
ATOM      8  C   UNL     1       1.346   9.610  19.692  0.00  0.00    +0.000 A 
ATOM      9  C   UNL     1       1.883   8.384  19.264  0.00  0.00    +0.000 A 
ATOM     10  C   UNL     1       2.731   8.304  18.038  0.00  0.00    +0.000 A 
ATOM     11  O   UNL     1       2.891   9.324  17.369  0.00  0.00    +0.000 OA
ATOM     12  C   UNL     1       1.978   4.630  20.065  0.00  0.00    +0.000 C 
ATOM     13  O   UNL     1       1.254   4.296  20.981  0.00  0.00    +0.000 OA
ATOM     14  C   UNL     1       2.785   3.735  19.273  0.00  0.00    +0.000 A 
ATOM     15  C   UNL     1       2.896   2.368  19.479  0.00  0.00    +0.000 A 
ATOM     16  C   UNL     1       3.741   1.690  18.627  0.00  0.00    +0.000 A 
ATOM     17  C   UNL     1       4.432   2.376  17.624  0.00  0.00    +0.000 A 
ATOM     18  C   UNL     1       4.286   3.770  17.455  0.00  0.00    +0.000 A 
ATOM     19  C   UNL     1       3.443   4.487  18.294  0.00  0.00    +0.000 A 
ENDROOT
BRANCH   7  20
ATOM     20  N   UNL     1       0.081  10.934  21.391  0.00  0.00    +0.000 N 
ATOM     21  O   UNL     1      -0.314  11.749  20.544  0.00  0.00    +0.000 OA
ATOM     22  O   UNL     1       0.037  11.114  22.615  0.00  0.00    +0.000 OA
ENDBRANCH   7  20
BRANCH  16  23
ATOM     23  O   UNL     1       3.934   0.347  18.744  0.00  0.00    +0.000 OA
ATOM     24  H   UNL     1       3.883   0.103  19.685  0.00  0.00    +0.000 HD
ENDBRANCH  16  23
BRANCH   1  25
ATOM     25  C   UNL     1       4.292   7.075  16.612  0.00  0.00    +0.000 C 
BRANCH  25  26
ATOM     26  C   UNL     1       5.764   7.284  17.010  0.00  0.00    +0.000 C 
BRANCH  26  27
ATOM     27  C   UNL     1       6.641   6.036  16.934  0.00  0.00    +0.000 C 
BRANCH  27  28
ATOM     28  N   UNL     1       7.274   5.891  15.629  0.00  0.00    +0.000 NA
ATOM     29  H   UNL     1       7.324   4.899  15.394  0.00  0.00    +0.000 HD
ATOM     30  H   UNL     1       8.242   6.208  15.683  0.00  0.00    +0.000 HD
ENDBRANCH  27  28
ENDBRANCH  26  27
ENDBRANCH  25  26
ENDBRANCH   1  25
TORSDOF 6
ENDMDL
MODEL 9
REMARK VINA RESULT:      -6.8      1.948      6.414
REMARK  Name = 
REMARK  6 active torsions:
REMARK  status: ('A' for Active; 'I' for Inactive)
REMARK    1  A    between atoms: N_1  and  C_2
REMARK    2  A    between atoms: C_2  and  C_3
REMARK    3  A    between atoms: C_3  and  C_4
REMARK    4  A    between atoms: C_4  and  N_5
REMARK    5  A    between atoms: C_11  and  N_12
REMARK    6  A    between atoms: C_23  and  O_24
REMARK                            x       y       z     vdW  Elec       q    Type
REMARK                         _______ _______ _______ _____ _____    ______ ____
ROOT
ATOM      1  N   UNL     1       2.107   6.253  20.267  0.00  0.00    +0.000 N 
ATOM      2  C   UNL     1       2.816   6.260  19.062  0.00  0.00    +0.000 A 
ATOM      3  C   UNL     1       2.841   7.367  18.294  0.00  0.00    +0.000 A 
ATOM      4  C   UNL     1       2.094   8.566  18.616  0.00  0.00    +0.000 A 
ATOM      5  C   UNL     1       1.971   9.628  17.710  0.00  0.00    +0.000 A 
ATOM      6  C   UNL     1       1.235  10.762  18.040  0.00  0.00    +0.000 A 
ATOM      7  C   UNL     1       0.646  10.855  19.303  0.00  0.00    +0.000 A 
ATOM      8  C   UNL     1       0.748   9.794  20.220  0.00  0.00    +0.000 A 
ATOM      9  C   UNL     1       1.454   8.635  19.857  0.00  0.00    +0.000 A 
ATOM     10  C   UNL     1       1.484   7.441  20.753  0.00  0.00    +0.000 A 
ATOM     11  O   UNL     1       0.936   7.520  21.851  0.00  0.00    +0.000 OA
ATOM     12  C   UNL     1       3.711   7.147  17.130  0.00  0.00    +0.000 C 
ATOM     13  O   UNL     1       4.019   7.930  16.254  0.00  0.00    +0.000 OA
ATOM     14  C   UNL     1       4.167   5.783  17.224  0.00  0.00    +0.000 A 
ATOM     15  C   UNL     1       4.978   5.146  16.296  0.00  0.00    +0.000 A 
ATOM     16  C   UNL     1       5.282   3.827  16.555  0.00  0.00    +0.000 A 
ATOM     17  C   UNL     1       4.783   3.198  17.699  0.00  0.00    +0.000 A 
ATOM     18  C   UNL     1       3.960   3.890  18.615  0.00  0.00    +0.000 A 
ATOM     19  C   UNL     1       3.633   5.220  18.388  0.00  0.00    +0.000 A 
ENDROOT
BRANCH   7  20
ATOM     20  N   UNL     1      -0.090  12.076  19.649  0.00  0.00    +0.000 N 
ATOM     21  O   UNL     1       0.395  13.163  19.299  0.00  0.00    +0.000 OA
ATOM     22  O   UNL     1      -1.151  11.947  20.274  0.00  0.00    +0.000 OA
ENDBRANCH   7  20
BRANCH  16  23
ATOM     23  O   UNL     1       6.061   3.103  15.705  0.00  0.00    +0.000 OA
ATOM     24  H   UNL     1       6.529   3.713  15.108  0.00  0.00    +0.000 HD
ENDBRANCH  16  23
BRANCH   1  25
ATOM     25  C   UNL     1       1.972   5.074  21.121  0.00  0.00    +0.000 C 
BRANCH  25  26
ATOM     26  C   UNL     1       1.055   3.972  20.558  0.00  0.00    +0.000 C 
BRANCH  26  27
ATOM     27  C   UNL     1       1.385   2.555  21.020  0.00  0.00    +0.000 C 
BRANCH  27  28
ATOM     28  N   UNL     1       2.489   2.532  21.971  0.00  0.00    +0.000 NA
ATOM     29  H   UNL     1       3.300   2.986  21.547  0.00  0.00    +0.000 HD
ATOM     30  H   UNL     1       2.774   1.567  22.139  0.00  0.00    +0.000 HD
ENDBRANCH  27  28
ENDBRANCH  26  27
ENDBRANCH  25  26
ENDBRANCH   1  25
TORSDOF 6
ENDMDL
