MODEL 1
REMARK VINA RESULT:      -6.2      0.000      0.000
REMARK  Name = 
REMARK  6 active torsions:
REMARK  status: ('A' for Active; 'I' for Inactive)
REMARK    1  A    between atoms: C_1  and  O_2
REMARK    2  A    between atoms: O_2  and  C_3
REMARK    3  A    between atoms: C_6  and  C_7
REMARK    4  A    between atoms: C_7  and  N_8
REMARK    5  A    between atoms: N_8  and  C_9
REMARK    6  A    between atoms: C_9  and  C_10
REMARK                            x       y       z     vdW  Elec       q    Type
REMARK                         _______ _______ _______ _____ _____    ______ ____
ROOT
ATOM      1  N   UNL     1       4.741   3.288  17.542  0.00  0.00    +0.000 NA
ATOM      2  H   UNL     1       4.870   2.276  17.528  0.00  0.00    +0.000 HD
ENDROOT
BRANCH   1   3
ATOM      3  C   UNL     1       3.328   3.589  17.336  0.00  0.00    +0.000 C 
BRANCH   3   7
ATOM      4  C   UNL     1       1.965   6.593  20.141  0.00  0.00    +0.000 A 
ATOM      5  C   UNL     1       1.832   5.236  20.435  0.00  0.00    +0.000 A 
ATOM      6  C   UNL     1       2.280   4.267  19.536  0.00  0.00    +0.000 A 
ATOM      7  C   UNL     1       2.852   4.641  18.310  0.00  0.00    +0.000 A 
ATOM      8  C   UNL     1       2.970   6.006  18.016  0.00  0.00    +0.000 A 
ATOM      9  C   UNL     1       2.529   6.976  18.925  0.00  0.00    +0.000 A 
BRANCH   4  11
ATOM     10  C   UNL     1       1.107   8.742  20.633  0.00  0.00    +0.000 C 
ATOM     11  O   UNL     1       1.469   7.444  21.090  0.00  0.00    +0.000 OA
ENDBRANCH   4  11
ENDBRANCH   3   7
ENDBRANCH   1   3
BRANCH   1  12
ATOM     12  C   UNL     1       5.577   3.896  16.512  0.00  0.00    +0.000 C 
BRANCH  12  13
ATOM     13  C   UNL     1       6.337   5.082  17.066  0.00  0.00    +0.000 A 
ATOM     14  C   UNL     1       6.242   6.341  16.456  0.00  0.00    +0.000 A 
ATOM     15  C   UNL     1       6.957   7.430  16.963  0.00  0.00    +0.000 A 
ATOM     16  C   UNL     1       7.771   7.264  18.082  0.00  0.00    +0.000 A 
ATOM     17 CL   UNL     1       8.664   8.602  18.694  0.00  0.00    +0.000 Cl
ATOM     18  C   UNL     1       7.868   6.024  18.707  0.00  0.00    +0.000 A 
ATOM     19  C   UNL     1       7.151   4.936  18.202  0.00  0.00    +0.000 A 
ENDBRANCH  12  13
ENDBRANCH   1  12
TORSDOF 5
ENDMDL
MODEL 2
REMARK VINA RESULT:      -6.2      1.615      2.483
REMARK  Name = 
REMARK  6 active torsions:
REMARK  status: ('A' for Active; 'I' for Inactive)
REMARK    1  A    between atoms: C_1  and  O_2
REMARK    2  A    between atoms: O_2  and  C_3
REMARK    3  A    between atoms: C_6  and  C_7
REMARK    4  A    between atoms: C_7  and  N_8
REMARK    5  A    between atoms: N_8  and  C_9
REMARK    6  A    between atoms: C_9  and  C_10
REMARK                            x       y       z     vdW  Elec       q    Type
REMARK                         _______ _______ _______ _____ _____    ______ ____
ROOT
ATOM      1  N   UNL     1       2.395   1.967  17.735  0.00  0.00    +0.000 NA
ATOM      2  H   UNL     1       2.520   2.568  16.921  0.00  0.00    +0.000 HD
ENDROOT
BRANCH   1   3
ATOM      3  C   UNL     1       1.263   2.455  18.516  0.00  0.00    +0.000 C 
BRANCH   3   7
ATOM      4  C   UNL     1       1.905   6.543  19.791  0.00  0.00    +0.000 A 
ATOM      5  C   UNL     1       1.902   6.215  18.435  0.00  0.00    +0.000 A 
ATOM      6  C   UNL     1       1.685   4.899  18.023  0.00  0.00    +0.000 A 
ATOM      7  C   UNL     1       1.489   3.879  18.966  0.00  0.00    +0.000 A 
ATOM      8  C   UNL     1       1.506   4.214  20.327  0.00  0.00    +0.000 A 
ATOM      9  C   UNL     1       1.713   5.536  20.737  0.00  0.00    +0.000 A 
BRANCH   4  11
ATOM     10  C   UNL     1       1.341   8.441  21.085  0.00  0.00    +0.000 C 
ATOM     11  O   UNL     1       2.150   7.859  20.069  0.00  0.00    +0.000 OA
ENDBRANCH   4  11
ENDBRANCH   3   7
ENDBRANCH   1   3
BRANCH   1  12
ATOM     12  C   UNL     1       3.625   1.954  18.521  0.00  0.00    +0.000 C 
BRANCH  12  13
ATOM     13  C   UNL     1       4.489   3.150  18.187  0.00  0.00    +0.000 A 
ATOM     14  C   UNL     1       4.736   3.505  16.853  0.00  0.00    +0.000 A 
ATOM     15  C   UNL     1       5.546   4.603  16.550  0.00  0.00    +0.000 A 
ATOM     16  C   UNL     1       6.114   5.351  17.579  0.00  0.00    +0.000 A 
ATOM     17 CL   UNL     1       7.126   6.691  17.203  0.00  0.00    +0.000 Cl
ATOM     18  C   UNL     1       5.871   5.020  18.909  0.00  0.00    +0.000 A 
ATOM     19  C   UNL     1       5.059   3.924  19.212  0.00  0.00    +0.000 A 
ENDBRANCH  12  13
ENDBRANCH   1  12
TORSDOF 5
ENDMDL
MODEL 3
REMARK VINA RESULT:      -6.1      0.597      1.707
REMARK  Name = 
REMARK  6 active torsions:
REMARK  status: ('A' for Active; 'I' for Inactive)
REMARK    1  A    between atoms: C_1  and  O_2
REMARK    2  A    between atoms: O_2  and  C_3
REMARK    3  A    between atoms: C_6  and  C_7
REMARK    4  A    between atoms: C_7  and  N_8
REMARK    5  A    between atoms: N_8  and  C_9
REMARK    6  A    between atoms: C_9  and  C_10
REMARK                            x       y       z     vdW  Elec       q    Type
REMARK                         _______ _______ _______ _____ _____    ______ ____
ROOT
ATOM      1  N   UNL     1       4.223   3.242  17.817  0.00  0.00    +0.000 NA
ATOM      2  H   UNL     1       4.207   2.227  17.905  0.00  0.00    +0.000 HD
ENDROOT
BRANCH   1   3
ATOM      3  C   UNL     1       2.866   3.720  17.572  0.00  0.00    +0.000 C 
BRANCH   3   7
ATOM      4  C   UNL     1       1.976   7.202  19.986  0.00  0.00    +0.000 A 
ATOM      5  C   UNL     1       2.402   7.345  18.665  0.00  0.00    +0.000 A 
ATOM      6  C   UNL     1       2.679   6.222  17.883  0.00  0.00    +0.000 A 
ATOM      7  C   UNL     1       2.557   4.932  18.419  0.00  0.00    +0.000 A 
ATOM      8  C   UNL     1       2.141   4.797  19.750  0.00  0.00    +0.000 A 
ATOM      9  C   UNL     1       1.854   5.924  20.529  0.00  0.00    +0.000 A 
BRANCH   4  11
ATOM     10  C   UNL     1       0.679   8.369  21.582  0.00  0.00    +0.000 C 
ATOM     11  O   UNL     1       1.758   8.374  20.655  0.00  0.00    +0.000 OA
ENDBRANCH   4  11
ENDBRANCH   3   7
ENDBRANCH   1   3
BRANCH   1  12
ATOM     12  C   UNL     1       5.129   3.620  16.737  0.00  0.00    +0.000 C 
BRANCH  12  13
ATOM     13  C   UNL     1       5.967   4.817  17.130  0.00  0.00    +0.000 A 
ATOM     14  C   UNL     1       6.860   4.741  18.208  0.00  0.00    +0.000 A 
ATOM     15  C   UNL     1       7.622   5.854  18.577  0.00  0.00    +0.000 A 
ATOM     16  C   UNL     1       7.494   7.047  17.869  0.00  0.00    +0.000 A 
ATOM     17 CL   UNL     1       8.419   8.421  18.336  0.00  0.00    +0.000 Cl
ATOM     18  C   UNL     1       6.619   7.137  16.790  0.00  0.00    +0.000 A 
ATOM     19  C   UNL     1       5.860   6.024  16.420  0.00  0.00    +0.000 A 
ENDBRANCH  12  13
ENDBRANCH   1  12
TORSDOF 5
ENDMDL
MODEL 4
REMARK VINA RESULT:      -6.0      2.625      5.135
REMARK  Name = 
REMARK  6 active torsions:
REMARK  status: ('A' for Active; 'I' for Inactive)
REMARK    1  A    between atoms: C_1  and  O_2
REMARK    2  A    between atoms: O_2  and  C_3
REMARK    3  A    between atoms: C_6  and  C_7
REMARK    4  A    between atoms: C_7  and  N_8
REMARK    5  A    between atoms: N_8  and  C_9
REMARK    6  A    between atoms: C_9  and  C_10
REMARK                            x       y       z     vdW  Elec       q    Type
REMARK                         _______ _______ _______ _____ _____    ______ ____
ROOT
ATOM      1  N   UNL     1       2.173   1.896  17.622  0.00  0.00    +0.000 NA
ATOM      2  H   UNL     1       1.874   1.014  17.207  0.00  0.00    +0.000 HD
ENDROOT
BRANCH   1   3
ATOM      3  C   UNL     1       3.508   1.726  18.189  0.00  0.00    +0.000 C 
BRANCH   3   7
ATOM      4  C   UNL     1       5.785   5.396  17.882  0.00  0.00    +0.000 A 
ATOM      5  C   UNL     1       5.285   4.774  16.738  0.00  0.00    +0.000 A 
ATOM      6  C   UNL     1       4.542   3.597  16.837  0.00  0.00    +0.000 A 
ATOM      7  C   UNL     1       4.305   3.005  18.086  0.00  0.00    +0.000 A 
ATOM      8  C   UNL     1       4.822   3.629  19.230  0.00  0.00    +0.000 A 
ATOM      9  C   UNL     1       5.558   4.815  19.129  0.00  0.00    +0.000 A 
BRANCH   4  11
ATOM     10  C   UNL     1       7.762   6.614  18.335  0.00  0.00    +0.000 C 
ATOM     11  O   UNL     1       6.515   6.530  17.655  0.00  0.00    +0.000 OA
ENDBRANCH   4  11
ENDBRANCH   3   7
ENDBRANCH   1   3
BRANCH   1  12
ATOM     12  C   UNL     1       1.206   2.305  18.637  0.00  0.00    +0.000 C 
BRANCH  12  13
ATOM     13  C   UNL     1       1.401   3.758  19.011  0.00  0.00    +0.000 A 
ATOM     14  C   UNL     1       1.564   4.736  18.020  0.00  0.00    +0.000 A 
ATOM     15  C   UNL     1       1.758   6.075  18.370  0.00  0.00    +0.000 A 
ATOM     16  C   UNL     1       1.789   6.442  19.714  0.00  0.00    +0.000 A 
ATOM     17 CL   UNL     1       2.046   8.089  20.144  0.00  0.00    +0.000 Cl
ATOM     18  C   UNL     1       1.619   5.486  20.712  0.00  0.00    +0.000 A 
ATOM     19  C   UNL     1       1.423   4.148  20.360  0.00  0.00    +0.000 A 
ENDBRANCH  12  13
ENDBRANCH   1  12
TORSDOF 5
ENDMDL
MODEL 5
REMARK VINA RESULT:      -6.0      3.392      6.155
REMARK  Name = 
REMARK  6 active torsions:
REMARK  status: ('A' for Active; 'I' for Inactive)
REMARK    1  A    between atoms: C_1  and  O_2
REMARK    2  A    between atoms: O_2  and  C_3
REMARK    3  A    between atoms: C_6  and  C_7
REMARK    4  A    between atoms: C_7  and  N_8
REMARK    5  A    between atoms: N_8  and  C_9
REMARK    6  A    between atoms: C_9  and  C_10
REMARK                            x       y       z     vdW  Elec       q    Type
REMARK                         _______ _______ _______ _____ _____    ______ ____
ROOT
ATOM      1  N   UNL     1       4.255   5.574  19.769  0.00  0.00    +0.000 NA
ATOM      2  H   UNL     1       4.605   6.297  19.140  0.00  0.00    +0.000 HD
ENDROOT
BRANCH   1   3
ATOM      3  C   UNL     1       4.815   4.287  19.370  0.00  0.00    +0.000 C 
BRANCH   3   7
ATOM      4  C   UNL     1       6.379   4.448  15.335  0.00  0.00    +0.000 A 
ATOM      5  C   UNL     1       7.211   4.689  16.429  0.00  0.00    +0.000 A 
ATOM      6  C   UNL     1       6.710   4.627  17.730  0.00  0.00    +0.000 A 
ATOM      7  C   UNL     1       5.355   4.345  17.960  0.00  0.00    +0.000 A 
ATOM      8  C   UNL     1       4.523   4.116  16.857  0.00  0.00    +0.000 A 
ATOM      9  C   UNL     1       5.030   4.169  15.553  0.00  0.00    +0.000 A 
BRANCH   4  11
ATOM     10  C   UNL     1       6.385   3.815  13.057  0.00  0.00    +0.000 C 
ATOM     11  O   UNL     1       6.980   4.560  14.112  0.00  0.00    +0.000 OA
ENDBRANCH   4  11
ENDBRANCH   3   7
ENDBRANCH   1   3
BRANCH   1  12
ATOM     12  C   UNL     1       2.796   5.562  19.729  0.00  0.00    +0.000 C 
BRANCH  12  13
ATOM     13  C   UNL     1       2.253   6.950  19.466  0.00  0.00    +0.000 A 
ATOM     14  C   UNL     1       2.360   7.531  18.195  0.00  0.00    +0.000 A 
ATOM     15  C   UNL     1       1.870   8.819  17.960  0.00  0.00    +0.000 A 
ATOM     16  C   UNL     1       1.270   9.531  18.996  0.00  0.00    +0.000 A 
ATOM     17 CL   UNL     1       0.683  11.123  18.710  0.00  0.00    +0.000 Cl
ATOM     18  C   UNL     1       1.145   8.966  20.262  0.00  0.00    +0.000 A 
ATOM     19  C   UNL     1       1.633   7.678  20.496  0.00  0.00    +0.000 A 
ENDBRANCH  12  13
ENDBRANCH   1  12
TORSDOF 5
ENDMDL
MODEL 6
REMARK VINA RESULT:      -5.9      2.833      3.877
REMARK  Name = 
REMARK  6 active torsions:
REMARK  status: ('A' for Active; 'I' for Inactive)
REMARK    1  A    between atoms: C_1  and  O_2
REMARK    2  A    between atoms: O_2  and  C_3
REMARK    3  A    between atoms: C_6  and  C_7
REMARK    4  A    between atoms: C_7  and  N_8
REMARK    5  A    between atoms: N_8  and  C_9
REMARK    6  A    between atoms: C_9  and  C_10
REMARK                            x       y       z     vdW  Elec       q    Type
REMARK                         _______ _______ _______ _____ _____    ______ ____
ROOT
ATOM      1  N   UNL     1       5.459   6.578  17.876  0.00  0.00    +0.000 NA
ATOM      2  H   UNL     1       5.492   6.869  18.853  0.00  0.00    +0.000 HD
ENDROOT
BRANCH   1   3
ATOM      3  C   UNL     1       4.079   6.639  17.407  0.00  0.00    +0.000 C 
BRANCH   3   7
ATOM      4  C   UNL     1       1.501   4.155  19.843  0.00  0.00    +0.000 A 
ATOM      5  C   UNL     1       2.218   5.207  20.414  0.00  0.00    +0.000 A 
ATOM      6  C   UNL     1       3.041   6.015  19.627  0.00  0.00    +0.000 A 
ATOM      7  C   UNL     1       3.180   5.768  18.253  0.00  0.00    +0.000 A 
ATOM      8  C   UNL     1       2.467   4.702  17.689  0.00  0.00    +0.000 A 
ATOM      9  C   UNL     1       1.634   3.900  18.479  0.00  0.00    +0.000 A 
BRANCH   4  11
ATOM     10  C   UNL     1       1.472   2.621  21.643  0.00  0.00    +0.000 C 
ATOM     11  O   UNL     1       0.748   3.424  20.718  0.00  0.00    +0.000 OA
ENDBRANCH   4  11
ENDBRANCH   3   7
ENDBRANCH   1   3
BRANCH   1  12
ATOM     12  C   UNL     1       6.010   5.231  17.754  0.00  0.00    +0.000 C 
BRANCH  12  13
ATOM     13  C   UNL     1       6.174   4.847  16.300  0.00  0.00    +0.000 A 
ATOM     14  C   UNL     1       5.357   3.865  15.723  0.00  0.00    +0.000 A 
ATOM     15  C   UNL     1       5.523   3.502  14.383  0.00  0.00    +0.000 A 
ATOM     16  C   UNL     1       6.506   4.122  13.614  0.00  0.00    +0.000 A 
ATOM     17 CL   UNL     1       6.720   3.661  11.969  0.00  0.00    +0.000 Cl
ATOM     18  C   UNL     1       7.320   5.106  14.167  0.00  0.00    +0.000 A 
ATOM     19  C   UNL     1       7.152   5.470  15.506  0.00  0.00    +0.000 A 
ENDBRANCH  12  13
ENDBRANCH   1  12
TORSDOF 5
ENDMDL
MODEL 7
REMARK VINA RESULT:      -5.9      3.093      5.816
REMARK  Name = 
REMARK  6 active torsions:
REMARK  status: ('A' for Active; 'I' for Inactive)
REMARK    1  A    between atoms: C_1  and  O_2
REMARK    2  A    between atoms: O_2  and  C_3
REMARK    3  A    between atoms: C_6  and  C_7
REMARK    4  A    between atoms: C_7  and  N_8
REMARK    5  A    between atoms: N_8  and  C_9
REMARK    6  A    between atoms: C_9  and  C_10
REMARK                            x       y       z     vdW  Elec       q    Type
REMARK                         _______ _______ _______ _____ _____    ______ ____
ROOT
ATOM      1  N   UNL     1       3.716   4.811  20.277  0.00  0.00    +0.000 NA
ATOM      2  H   UNL     1       4.274   5.636  20.057  0.00  0.00    +0.000 HD
ENDROOT
BRANCH   1   3
ATOM      3  C   UNL     1       4.137   3.710  19.416  0.00  0.00    +0.000 C 
BRANCH   3   7
ATOM      4  C   UNL     1       6.704   5.122  16.228  0.00  0.00    +0.000 A 
ATOM      5  C   UNL     1       5.588   4.335  15.943  0.00  0.00    +0.000 A 
ATOM      6  C   UNL     1       4.754   3.888  16.970  0.00  0.00    +0.000 A 
ATOM      7  C   UNL     1       5.037   4.203  18.307  0.00  0.00    +0.000 A 
ATOM      8  C   UNL     1       6.166   4.984  18.586  0.00  0.00    +0.000 A 
ATOM      9  C   UNL     1       6.995   5.440  17.554  0.00  0.00    +0.000 A 
BRANCH   4  11
ATOM     10  C   UNL     1       7.118   4.841  13.916  0.00  0.00    +0.000 C 
ATOM     11  O   UNL     1       7.454   5.480  15.142  0.00  0.00    +0.000 OA
ENDBRANCH   4  11
ENDBRANCH   3   7
ENDBRANCH   1   3
BRANCH   1  12
ATOM     12  C   UNL     1       2.302   5.123  20.099  0.00  0.00    +0.000 C 
BRANCH  12  13
ATOM     13  C   UNL     1       2.119   6.555  19.645  0.00  0.00    +0.000 A 
ATOM     14  C   UNL     1       1.607   7.523  20.520  0.00  0.00    +0.000 A 
ATOM     15  C   UNL     1       1.426   8.842  20.092  0.00  0.00    +0.000 A 
ATOM     16  C   UNL     1       1.757   9.198  18.786  0.00  0.00    +0.000 A 
ATOM     17 CL   UNL     1       1.517  10.817  18.256  0.00  0.00    +0.000 Cl
ATOM     18  C   UNL     1       2.277   8.252  17.907  0.00  0.00    +0.000 A 
ATOM     19  C   UNL     1       2.460   6.935  18.336  0.00  0.00    +0.000 A 
ENDBRANCH  12  13
ENDBRANCH   1  12
TORSDOF 5
ENDMDL
MODEL 8
REMARK VINA RESULT:      -5.9      3.463      6.247
REMARK  Name = 
REMARK  6 active torsions:
REMARK  status: ('A' for Active; 'I' for Inactive)
REMARK    1  A    between atoms: C_1  and  O_2
REMARK    2  A    between atoms: O_2  and  C_3
REMARK    3  A    between atoms: C_6  and  C_7
REMARK    4  A    between atoms: C_7  and  N_8
REMARK    5  A    between atoms: N_8  and  C_9
REMARK    6  A    between atoms: C_9  and  C_10
REMARK                            x       y       z     vdW  Elec       q    Type
REMARK                         _______ _______ _______ _____ _____    ______ ____
ROOT
ATOM      1  N   UNL     1       3.685   5.726  19.802  0.00  0.00    +0.000 NA
ATOM      2  H   UNL     1       4.282   6.464  20.174  0.00  0.00    +0.000 HD
ENDROOT
BRANCH   1   3
ATOM      3  C   UNL     1       4.507   4.557  19.501  0.00  0.00    +0.000 C 
BRANCH   3   7
ATOM      4  C   UNL     1       6.940   5.237  15.985  0.00  0.00    +0.000 A 
ATOM      5  C   UNL     1       5.852   4.364  15.937  0.00  0.00    +0.000 A 
ATOM      6  C   UNL     1       5.061   4.152  17.068  0.00  0.00    +0.000 A 
ATOM      7  C   UNL     1       5.360   4.795  18.278  0.00  0.00    +0.000 A 
ATOM      8  C   UNL     1       6.461   5.660  18.322  0.00  0.00    +0.000 A 
ATOM      9  C   UNL     1       7.247   5.879  17.183  0.00  0.00    +0.000 A 
BRANCH   4  11
ATOM     10  C   UNL     1       7.065   4.732  13.678  0.00  0.00    +0.000 C 
ATOM     11  O   UNL     1       7.650   5.344  14.821  0.00  0.00    +0.000 OA
ENDBRANCH   4  11
ENDBRANCH   3   7
ENDBRANCH   1   3
BRANCH   1  12
ATOM     12  C   UNL     1       2.992   6.215  18.615  0.00  0.00    +0.000 C 
BRANCH  12  13
ATOM     13  C   UNL     1       2.260   7.505  18.912  0.00  0.00    +0.000 A 
ATOM     14  C   UNL     1       1.790   7.780  20.205  0.00  0.00    +0.000 A 
ATOM     15  C   UNL     1       1.102   8.967  20.472  0.00  0.00    +0.000 A 
ATOM     16  C   UNL     1       0.880   9.885  19.448  0.00  0.00    +0.000 A 
ATOM     17 CL   UNL     1       0.016  11.337  19.775  0.00  0.00    +0.000 Cl
ATOM     18  C   UNL     1       1.348   9.634  18.161  0.00  0.00    +0.000 A 
ATOM     19  C   UNL     1       2.039   8.449  17.895  0.00  0.00    +0.000 A 
ENDBRANCH  12  13
ENDBRANCH   1  12
TORSDOF 5
ENDMDL
MODEL 9
REMARK VINA RESULT:      -5.9      4.284      6.845
REMARK  Name = 
REMARK  6 active torsions:
REMARK  status: ('A' for Active; 'I' for Inactive)
REMARK    1  A    between atoms: C_1  and  O_2
REMARK    2  A    between atoms: O_2  and  C_3
REMARK    3  A    between atoms: C_6  and  C_7
REMARK    4  A    between atoms: C_7  and  N_8
REMARK    5  A    between atoms: N_8  and  C_9
REMARK    6  A    between atoms: C_9  and  C_10
REMARK                            x       y       z     vdW  Elec       q    Type
REMARK                         _______ _______ _______ _____ _____    ______ ____
ROOT
ATOM      1  N   UNL     1       5.859   6.192  17.278  0.00  0.00    +0.000 NA
ATOM      2  H   UNL     1       5.044   5.982  16.702  0.00  0.00    +0.000 HD
ENDROOT
BRANCH   1   3
ATOM      3  C   UNL     1       7.061   5.748  16.580  0.00  0.00    +0.000 C 
BRANCH   3   7
ATOM      4  C   UNL     1       6.037   3.688  12.912  0.00  0.00    +0.000 A 
ATOM      5  C   UNL     1       5.217   3.585  14.036  0.00  0.00    +0.000 A 
ATOM      6  C   UNL     1       5.541   4.257  15.215  0.00  0.00    +0.000 A 
ATOM      7  C   UNL     1       6.709   5.029  15.299  0.00  0.00    +0.000 A 
ATOM      8  C   UNL     1       7.535   5.117  14.170  0.00  0.00    +0.000 A 
ATOM      9  C   UNL     1       7.201   4.451  12.984  0.00  0.00    +0.000 A 
BRANCH   4  11
ATOM     10  C   UNL     1       4.295   3.210  11.385  0.00  0.00    +0.000 C 
ATOM     11  O   UNL     1       5.625   2.967  11.825  0.00  0.00    +0.000 OA
ENDBRANCH   4  11
ENDBRANCH   3   7
ENDBRANCH   1   3
BRANCH   1  12
ATOM     12  C   UNL     1       5.717   5.537  18.574  0.00  0.00    +0.000 C 
BRANCH  12  13
ATOM     13  C   UNL     1       4.422   4.757  18.644  0.00  0.00    +0.000 A 
ATOM     14  C   UNL     1       4.346   3.559  19.369  0.00  0.00    +0.000 A 
ATOM     15  C   UNL     1       3.152   2.835  19.420  0.00  0.00    +0.000 A 
ATOM     16  C   UNL     1       2.026   3.306  18.746  0.00  0.00    +0.000 A 
ATOM     17 CL   UNL     1       0.562   2.404  18.794  0.00  0.00    +0.000 Cl
ATOM     18  C   UNL     1       2.080   4.499  18.030  0.00  0.00    +0.000 A 
ATOM     19  C   UNL     1       3.274   5.224  17.982  0.00  0.00    +0.000 A 
ENDBRANCH  12  13
ENDBRANCH   1  12
TORSDOF 5
ENDMDL
