MODEL 1
REMARK VINA RESULT:      -9.8      0.000      0.000
REMARK  Name = 
REMARK  7 active torsions:
REMARK  status: ('A' for Active; 'I' for Inactive)
REMARK    1  A    between atoms: C_1  and  C_2
REMARK    2  A    between atoms: C_3  and  C_4
REMARK    3  A    between atoms: N_6  and  C_7
REMARK    4  A    between atoms: C_11  and  C_12
REMARK    5  A    between atoms: C_18  and  N_19
REMARK    6  A    between atoms: N_19  and  S_20
REMARK    7  A    between atoms: S_20  and  C_23
REMARK                            x       y       z     vdW  Elec       q    Type
REMARK                         _______ _______ _______ _____ _____    ______ ____
ROOT
ATOM      1  C   UNL     1       2.295   6.807  19.701  0.00  0.00    +0.000 A 
ATOM      2  N   UNL     1       1.774   6.395  20.876  0.00  0.00    +0.000 NA
ATOM      3  N   UNL     1       2.236   5.173  21.066  0.00  0.00    +0.000 N 
ATOM      4  C   UNL     1       2.999   4.691  20.053  0.00  0.00    +0.000 A 
ATOM      5  C   UNL     1       3.551   3.415  19.912  0.00  0.00    +0.000 A 
ATOM      6  C   UNL     1       4.366   3.178  18.815  0.00  0.00    +0.000 A 
ATOM      7  C   UNL     1       4.678   4.200  17.925  0.00  0.00    +0.000 A 
ATOM      8  C   UNL     1       4.018   5.467  18.030  0.00  0.00    +0.000 A 
ATOM      9  C   UNL     1       3.145   5.740  19.139  0.00  0.00    +0.000 A 
ATOM     10  H   UNL     1       1.994   4.700  21.927  0.00  0.00    +0.000 HD
ENDROOT
BRANCH   1  15
ATOM     11  C   UNL     1       0.334  10.084  19.791  0.00  0.00    +0.000 A 
ATOM     12  C   UNL     1       0.787  10.726  18.646  0.00  0.00    +0.000 A 
ATOM     13  C   UNL     1       1.763  10.114  17.845  0.00  0.00    +0.000 A 
ATOM     14  C   UNL     1       2.327   8.865  18.186  0.00  0.00    +0.000 A 
ATOM     15  C   UNL     1       1.889   8.191  19.326  0.00  0.00    +0.000 A 
ATOM     16  C   UNL     1       0.856   8.813  20.088  0.00  0.00    +0.000 A 
BRANCH  11  19
ATOM     17  C   UNL     1      -0.409  11.652  21.594  0.00  0.00    +0.000 C 
ATOM     18  O   UNL     1       0.615  12.302  21.759  0.00  0.00    +0.000 OA
ATOM     19  N   UNL     1      -0.621  10.638  20.678  0.00  0.00    +0.000 N 
ATOM     20  H   UNL     1      -1.498  10.145  20.769  0.00  0.00    +0.000 HD
BRANCH  17  23
ATOM     21  C   UNL     1      -3.640  12.414  24.032  0.00  0.00    +0.000 C 
ATOM     22  C   UNL     1      -2.492  12.117  23.189  0.00  0.00    +0.000 C 
ATOM     23  C   UNL     1      -1.543  11.887  22.487  0.00  0.00    +0.000 C 
ENDBRANCH  17  23
ENDBRANCH  11  19
ENDBRANCH   1  15
BRANCH   7  24
ATOM     24  N   UNL     1       5.481   3.889  16.770  0.00  0.00    +0.000 N 
ATOM     25  H   UNL     1       5.845   2.933  16.750  0.00  0.00    +0.000 HD
BRANCH  24  26
ATOM     26  S   UNL     1       6.740   4.932  16.266  0.00  0.00    +0.000 S 
ATOM     27  O   UNL     1       6.371   6.321  16.438  0.00  0.00    +0.000 OA
ATOM     28  O   UNL     1       7.943   4.417  16.891  0.00  0.00    +0.000 OA
BRANCH  26  29
ATOM     29  C   UNL     1       6.875   4.613  14.525  0.00  0.00    +0.000 A 
ATOM     30  C   UNL     1       6.012   3.687  13.934  0.00  0.00    +0.000 A 
ATOM     31  C   UNL     1       6.070   3.473  12.556  0.00  0.00    +0.000 A 
ATOM     32  C   UNL     1       6.976   4.192  11.775  0.00  0.00    +0.000 A 
ATOM     33  C   UNL     1       7.811   5.143  12.363  0.00  0.00    +0.000 A 
ATOM     34  C   UNL     1       7.757   5.364  13.740  0.00  0.00    +0.000 A 
ENDBRANCH  26  29
ENDBRANCH  24  26
ENDBRANCH   7  24
TORSDOF 6
ENDMDL
MODEL 2
REMARK VINA RESULT:      -9.5      1.945      2.705
REMARK  Name = 
REMARK  7 active torsions:
REMARK  status: ('A' for Active; 'I' for Inactive)
REMARK    1  A    between atoms: C_1  and  C_2
REMARK    2  A    between atoms: C_3  and  C_4
REMARK    3  A    between atoms: N_6  and  C_7
REMARK    4  A    between atoms: C_11  and  C_12
REMARK    5  A    between atoms: C_18  and  N_19
REMARK    6  A    between atoms: N_19  and  S_20
REMARK    7  A    between atoms: S_20  and  C_23
REMARK                            x       y       z     vdW  Elec       q    Type
REMARK                         _______ _______ _______ _____ _____    ______ ____
ROOT
ATOM      1  C   UNL     1       2.227   7.030  19.526  0.00  0.00    +0.000 A 
ATOM      2  N   UNL     1       1.871   6.621  20.762  0.00  0.00    +0.000 NA
ATOM      3  N   UNL     1       2.310   5.380  20.871  0.00  0.00    +0.000 N 
ATOM      4  C   UNL     1       2.897   4.886  19.752  0.00  0.00    +0.000 A 
ATOM      5  C   UNL     1       3.373   3.593  19.519  0.00  0.00    +0.000 A 
ATOM      6  C   UNL     1       4.008   3.343  18.312  0.00  0.00    +0.000 A 
ATOM      7  C   UNL     1       4.223   4.366  17.395  0.00  0.00    +0.000 A 
ATOM      8  C   UNL     1       3.633   5.654  17.608  0.00  0.00    +0.000 A 
ATOM      9  C   UNL     1       2.945   5.942  18.836  0.00  0.00    +0.000 A 
ATOM     10  H   UNL     1       2.180   4.905  21.754  0.00  0.00    +0.000 HD
ENDROOT
BRANCH   1  15
ATOM     11  C   UNL     1       0.268  10.300  19.796  0.00  0.00    +0.000 A 
ATOM     12  C   UNL     1       0.723  11.003  18.687  0.00  0.00    +0.000 A 
ATOM     13  C   UNL     1       1.699  10.435  17.855  0.00  0.00    +0.000 A 
ATOM     14  C   UNL     1       2.262   9.169  18.127  0.00  0.00    +0.000 A 
ATOM     15  C   UNL     1       1.823   8.434  19.228  0.00  0.00    +0.000 A 
ATOM     16  C   UNL     1       0.790   9.014  20.023  0.00  0.00    +0.000 A 
BRANCH  11  19
ATOM     17  C   UNL     1      -0.486  11.799  21.652  0.00  0.00    +0.000 C 
ATOM     18  O   UNL     1       0.524  12.469  21.820  0.00  0.00    +0.000 OA
ATOM     19  N   UNL     1      -0.686  10.804  20.711  0.00  0.00    +0.000 N 
ATOM     20  H   UNL     1      -1.550  10.287  20.801  0.00  0.00    +0.000 HD
BRANCH  17  23
ATOM     21  C   UNL     1      -3.735  12.338  24.125  0.00  0.00    +0.000 C 
ATOM     22  C   UNL     1      -2.569  12.137  23.278  0.00  0.00    +0.000 C 
ATOM     23  C   UNL     1      -1.612  11.979  22.566  0.00  0.00    +0.000 C 
ENDBRANCH  17  23
ENDBRANCH  11  19
ENDBRANCH   1  15
BRANCH   7  24
ATOM     24  N   UNL     1       4.835   4.043  16.130  0.00  0.00    +0.000 N 
ATOM     25  H   UNL     1       5.175   3.080  16.056  0.00  0.00    +0.000 HD
BRANCH  24  26
ATOM     26  S   UNL     1       6.017   5.065  15.438  0.00  0.00    +0.000 S 
ATOM     27  O   UNL     1       6.922   4.322  14.588  0.00  0.00    +0.000 OA
ATOM     28  O   UNL     1       5.286   6.198  14.905  0.00  0.00    +0.000 OA
BRANCH  26  29
ATOM     29  C   UNL     1       6.939   5.648  16.840  0.00  0.00    +0.000 A 
ATOM     30  C   UNL     1       7.132   7.022  17.003  0.00  0.00    +0.000 A 
ATOM     31  C   UNL     1       7.803   7.495  18.131  0.00  0.00    +0.000 A 
ATOM     32  C   UNL     1       8.263   6.598  19.098  0.00  0.00    +0.000 A 
ATOM     33  C   UNL     1       8.035   5.229  18.950  0.00  0.00    +0.000 A 
ATOM     34  C   UNL     1       7.362   4.749  17.825  0.00  0.00    +0.000 A 
ENDBRANCH  26  29
ENDBRANCH  24  26
ENDBRANCH   7  24
TORSDOF 6
ENDMDL
MODEL 3
REMARK VINA RESULT:      -9.4      3.300      8.347
REMARK  Name = 
REMARK  7 active torsions:
REMARK  status: ('A' for Active; 'I' for Inactive)
REMARK    1  A    between atoms: C_1  and  C_2
REMARK    2  A    between atoms: C_3  and  C_4
REMARK    3  A    between atoms: N_6  and  C_7
REMARK    4  A    between atoms: C_11  and  C_12
REMARK    5  A    between atoms: C_18  and  N_19
REMARK    6  A    between atoms: N_19  and  S_20
REMARK    7  A    between atoms: S_20  and  C_23
REMARK                            x       y       z     vdW  Elec       q    Type
REMARK                         _______ _______ _______ _____ _____    ______ ____
ROOT
ATOM      1  C   UNL     1       3.568   4.052  17.633  0.00  0.00    +0.000 A 
ATOM      2  N   UNL     1       2.945   2.900  17.307  0.00  0.00    +0.000 NA
ATOM      3  N   UNL     1       1.903   2.813  18.114  0.00  0.00    +0.000 N 
ATOM      4  C   UNL     1       1.807   3.814  19.025  0.00  0.00    +0.000 A 
ATOM      5  C   UNL     1       0.884   3.956  20.065  0.00  0.00    +0.000 A 
ATOM      6  C   UNL     1       0.938   5.114  20.827  0.00  0.00    +0.000 A 
ATOM      7  C   UNL     1       1.838   6.128  20.519  0.00  0.00    +0.000 A 
ATOM      8  C   UNL     1       2.843   5.914  19.520  0.00  0.00    +0.000 A 
ATOM      9  C   UNL     1       2.834   4.715  18.727  0.00  0.00    +0.000 A 
ATOM     10  H   UNL     1       1.273   2.030  17.996  0.00  0.00    +0.000 HD
ENDROOT
BRANCH   1  15
ATOM     11  C   UNL     1       6.600   5.947  16.287  0.00  0.00    +0.000 A 
ATOM     12  C   UNL     1       6.959   5.177  15.187  0.00  0.00    +0.000 A 
ATOM     13  C   UNL     1       6.238   4.012  14.888  0.00  0.00    +0.000 A 
ATOM     14  C   UNL     1       5.165   3.575  15.695  0.00  0.00    +0.000 A 
ATOM     15  C   UNL     1       4.774   4.328  16.802  0.00  0.00    +0.000 A 
ATOM     16  C   UNL     1       5.491   5.537  17.048  0.00  0.00    +0.000 A 
BRANCH  11  19
ATOM     17  C   UNL     1       7.884   7.349  17.914  0.00  0.00    +0.000 C 
ATOM     18  O   UNL     1       7.986   6.566  18.850  0.00  0.00    +0.000 OA
ATOM     19  N   UNL     1       7.289   7.117  16.687  0.00  0.00    +0.000 N 
ATOM     20  H   UNL     1       7.205   7.924  16.084  0.00  0.00    +0.000 HD
BRANCH  17  23
ATOM     21  C   UNL     1       9.168  11.217  18.505  0.00  0.00    +0.000 C 
ATOM     22  C   UNL     1       8.736   9.847  18.271  0.00  0.00    +0.000 C 
ATOM     23  C   UNL     1       8.367   8.718  18.086  0.00  0.00    +0.000 C 
ENDBRANCH  17  23
ENDBRANCH  11  19
ENDBRANCH   1  15
BRANCH   7  24
ATOM     24  N   UNL     1       1.896   7.284  21.376  0.00  0.00    +0.000 N 
ATOM     25  H   UNL     1       2.200   7.089  22.334  0.00  0.00    +0.000 HD
BRANCH  24  26
ATOM     26  S   UNL     1       0.588   8.382  21.462  0.00  0.00    +0.000 S 
ATOM     27  O   UNL     1      -0.663   7.736  21.128  0.00  0.00    +0.000 OA
ATOM     28  O   UNL     1       0.737   9.063  22.734  0.00  0.00    +0.000 OA
BRANCH  26  29
ATOM     29  C   UNL     1       0.950   9.565  20.188  0.00  0.00    +0.000 A 
ATOM     30  C   UNL     1       0.817  10.928  20.468  0.00  0.00    +0.000 A 
ATOM     31  C   UNL     1       1.155  11.867  19.494  0.00  0.00    +0.000 A 
ATOM     32  C   UNL     1       1.638  11.445  18.254  0.00  0.00    +0.000 A 
ATOM     33  C   UNL     1       1.804  10.085  17.991  0.00  0.00    +0.000 A 
ATOM     34  C   UNL     1       1.470   9.139  18.962  0.00  0.00    +0.000 A 
ENDBRANCH  26  29
ENDBRANCH  24  26
ENDBRANCH   7  24
TORSDOF 6
ENDMDL
MODEL 4
REMARK VINA RESULT:      -9.2      0.646      1.084
REMARK  Name = 
REMARK  7 active torsions:
REMARK  status: ('A' for Active; 'I' for Inactive)
REMARK    1  A    between atoms: C_1  and  C_2
REMARK    2  A    between atoms: C_3  and  C_4
REMARK    3  A    between atoms: N_6  and  C_7
REMARK    4  A    between atoms: C_11  and  C_12
REMARK    5  A    between atoms: C_18  and  N_19
REMARK    6  A    between atoms: N_19  and  S_20
REMARK    7  A    between atoms: S_20  and  C_23
REMARK                            x       y       z     vdW  Elec       q    Type
REMARK                         _______ _______ _______ _____ _____    ______ ____
ROOT
ATOM      1  C   UNL     1       2.368   6.760  19.708  0.00  0.00    +0.000 A 
ATOM      2  N   UNL     1       1.766   6.357  20.846  0.00  0.00    +0.000 NA
ATOM      3  N   UNL     1       2.182   5.120  21.055  0.00  0.00    +0.000 N 
ATOM      4  C   UNL     1       2.992   4.624  20.086  0.00  0.00    +0.000 A 
ATOM      5  C   UNL     1       3.516   3.333  19.969  0.00  0.00    +0.000 A 
ATOM      6  C   UNL     1       4.389   3.080  18.921  0.00  0.00    +0.000 A 
ATOM      7  C   UNL     1       4.783   4.099  18.060  0.00  0.00    +0.000 A 
ATOM      8  C   UNL     1       4.152   5.383  18.135  0.00  0.00    +0.000 A 
ATOM      9  C   UNL     1       3.222   5.674  19.191  0.00  0.00    +0.000 A 
ATOM     10  H   UNL     1       1.875   4.650  21.896  0.00  0.00    +0.000 HD
ENDROOT
BRANCH   1  15
ATOM     11  C   UNL     1       0.647  10.168  19.850  0.00  0.00    +0.000 A 
ATOM     12  C   UNL     1       1.038  10.742  18.647  0.00  0.00    +0.000 A 
ATOM     13  C   UNL     1       1.895  10.039  17.787  0.00  0.00    +0.000 A 
ATOM     14  C   UNL     1       2.403   8.764  18.122  0.00  0.00    +0.000 A 
ATOM     15  C   UNL     1       2.024   8.157  19.320  0.00  0.00    +0.000 A 
ATOM     16  C   UNL     1       1.108   8.873  20.146  0.00  0.00    +0.000 A 
BRANCH  11  19
ATOM     17  C   UNL     1      -0.445  10.399  22.090  0.00  0.00    +0.000 C 
ATOM     18  O   UNL     1       0.046   9.443  22.676  0.00  0.00    +0.000 OA
ATOM     19  N   UNL     1      -0.185  10.814  20.796  0.00  0.00    +0.000 N 
ATOM     20  H   UNL     1      -0.773  11.561  20.451  0.00  0.00    +0.000 HD
BRANCH  17  23
ATOM     21  C   UNL     1      -3.342  12.532  24.094  0.00  0.00    +0.000 C 
ATOM     22  C   UNL     1      -2.321  11.799  23.360  0.00  0.00    +0.000 C 
ATOM     23  C   UNL     1      -1.479  11.182  22.763  0.00  0.00    +0.000 C 
ENDBRANCH  17  23
ENDBRANCH  11  19
ENDBRANCH   1  15
BRANCH   7  24
ATOM     24  N   UNL     1       5.645   3.773  16.953  0.00  0.00    +0.000 N 
ATOM     25  H   UNL     1       6.112   2.865  17.030  0.00  0.00    +0.000 HD
BRANCH  24  26
ATOM     26  S   UNL     1       6.795   4.897  16.372  0.00  0.00    +0.000 S 
ATOM     27  O   UNL     1       6.369   6.258  16.617  0.00  0.00    +0.000 OA
ATOM     28  O   UNL     1       8.075   4.435  16.872  0.00  0.00    +0.000 OA
BRANCH  26  29
ATOM     29  C   UNL     1       6.790   4.631  14.616  0.00  0.00    +0.000 A 
ATOM     30  C   UNL     1       7.695   5.337  13.819  0.00  0.00    +0.000 A 
ATOM     31  C   UNL     1       7.740   5.092  12.446  0.00  0.00    +0.000 A 
ATOM     32  C   UNL     1       6.897   4.135  11.879  0.00  0.00    +0.000 A 
ATOM     33  C   UNL     1       6.020   3.405  12.683  0.00  0.00    +0.000 A 
ATOM     34  C   UNL     1       5.971   3.643  14.058  0.00  0.00    +0.000 A 
ENDBRANCH  26  29
ENDBRANCH  24  26
ENDBRANCH   7  24
TORSDOF 6
ENDMDL
MODEL 5
REMARK VINA RESULT:      -9.0      3.378      8.631
REMARK  Name = 
REMARK  7 active torsions:
REMARK  status: ('A' for Active; 'I' for Inactive)
REMARK    1  A    between atoms: C_1  and  C_2
REMARK    2  A    between atoms: C_3  and  C_4
REMARK    3  A    between atoms: N_6  and  C_7
REMARK    4  A    between atoms: C_11  and  C_12
REMARK    5  A    between atoms: C_18  and  N_19
REMARK    6  A    between atoms: N_19  and  S_20
REMARK    7  A    between atoms: S_20  and  C_23
REMARK                            x       y       z     vdW  Elec       q    Type
REMARK                         _______ _______ _______ _____ _____    ______ ____
ROOT
ATOM      1  C   UNL     1       3.592   4.266  17.834  0.00  0.00    +0.000 A 
ATOM      2  N   UNL     1       3.000   3.075  17.601  0.00  0.00    +0.000 NA
ATOM      3  N   UNL     1       1.952   3.031  18.404  0.00  0.00    +0.000 N 
ATOM      4  C   UNL     1       1.823   4.102  19.228  0.00  0.00    +0.000 A 
ATOM      5  C   UNL     1       0.887   4.308  20.244  0.00  0.00    +0.000 A 
ATOM      6  C   UNL     1       0.907   5.526  20.907  0.00  0.00    +0.000 A 
ATOM      7  C   UNL     1       1.786   6.533  20.522  0.00  0.00    +0.000 A 
ATOM      8  C   UNL     1       2.804   6.261  19.552  0.00  0.00    +0.000 A 
ATOM      9  C   UNL     1       2.832   5.000  18.863  0.00  0.00    +0.000 A 
ATOM     10  H   UNL     1       1.342   2.226  18.348  0.00  0.00    +0.000 HD
ENDROOT
BRANCH   1  15
ATOM     11  C   UNL     1       6.630   6.090  16.405  0.00  0.00    +0.000 A 
ATOM     12  C   UNL     1       6.988   5.269  15.343  0.00  0.00    +0.000 A 
ATOM     13  C   UNL     1       6.265   4.093  15.098  0.00  0.00    +0.000 A 
ATOM     14  C   UNL     1       5.191   3.695  15.923  0.00  0.00    +0.000 A 
ATOM     15  C   UNL     1       4.800   4.500  16.993  0.00  0.00    +0.000 A 
ATOM     16  C   UNL     1       5.519   5.718  17.183  0.00  0.00    +0.000 A 
BRANCH  11  19
ATOM     17  C   UNL     1       7.969   7.539  17.945  0.00  0.00    +0.000 C 
ATOM     18  O   UNL     1       8.125   6.775  18.889  0.00  0.00    +0.000 OA
ATOM     19  N   UNL     1       7.320   7.276  16.751  0.00  0.00    +0.000 N 
ATOM     20  H   UNL     1       7.197   8.071  16.139  0.00  0.00    +0.000 HD
BRANCH  17  23
ATOM     21  C   UNL     1       9.367  11.386  18.400  0.00  0.00    +0.000 C 
ATOM     22  C   UNL     1       8.857  10.036  18.210  0.00  0.00    +0.000 C 
ATOM     23  C   UNL     1       8.440   8.917  18.069  0.00  0.00    +0.000 C 
ENDBRANCH  17  23
ENDBRANCH  11  19
ENDBRANCH   1  15
BRANCH   7  24
ATOM     24  N   UNL     1       1.807   7.758  21.279  0.00  0.00    +0.000 N 
ATOM     25  H   UNL     1       2.375   7.722  22.131  0.00  0.00    +0.000 HD
BRANCH  24  26
ATOM     26  S   UNL     1       0.359   8.585  21.658  0.00  0.00    +0.000 S 
ATOM     27  O   UNL     1      -0.801   7.766  21.381  0.00  0.00    +0.000 OA
ATOM     28  O   UNL     1       0.562   9.133  22.985  0.00  0.00    +0.000 OA
BRANCH  26  29
ATOM     29  C   UNL     1       0.348   9.950  20.522  0.00  0.00    +0.000 A 
ATOM     30  C   UNL     1       1.207   9.925  19.420  0.00  0.00    +0.000 A 
ATOM     31  C   UNL     1       1.164  10.965  18.490  0.00  0.00    +0.000 A 
ATOM     32  C   UNL     1       0.257  12.013  18.654  0.00  0.00    +0.000 A 
ATOM     33  C   UNL     1      -0.624  12.016  19.736  0.00  0.00    +0.000 A 
ATOM     34  C   UNL     1      -0.589  10.978  20.669  0.00  0.00    +0.000 A 
ENDBRANCH  26  29
ENDBRANCH  24  26
ENDBRANCH   7  24
TORSDOF 6
ENDMDL
MODEL 6
REMARK VINA RESULT:      -9.0      1.045      1.472
REMARK  Name = 
REMARK  7 active torsions:
REMARK  status: ('A' for Active; 'I' for Inactive)
REMARK    1  A    between atoms: C_1  and  C_2
REMARK    2  A    between atoms: C_3  and  C_4
REMARK    3  A    between atoms: N_6  and  C_7
REMARK    4  A    between atoms: C_11  and  C_12
REMARK    5  A    between atoms: C_18  and  N_19
REMARK    6  A    between atoms: N_19  and  S_20
REMARK    7  A    between atoms: S_20  and  C_23
REMARK                            x       y       z     vdW  Elec       q    Type
REMARK                         _______ _______ _______ _____ _____    ______ ____
ROOT
ATOM      1  C   UNL     1       1.708   8.289  19.728  0.00  0.00    +0.000 A 
ATOM      2  N   UNL     1       1.302   7.684  20.865  0.00  0.00    +0.000 NA
ATOM      3  N   UNL     1       1.863   6.488  20.856  0.00  0.00    +0.000 N 
ATOM      4  C   UNL     1       2.585   6.209  19.742  0.00  0.00    +0.000 A 
ATOM      5  C   UNL     1       3.215   5.011  19.394  0.00  0.00    +0.000 A 
ATOM      6  C   UNL     1       3.966   4.989  18.228  0.00  0.00    +0.000 A 
ATOM      7  C   UNL     1       4.141   6.142  17.471  0.00  0.00    +0.000 A 
ATOM      8  C   UNL     1       3.400   7.326  17.789  0.00  0.00    +0.000 A 
ATOM      9  C   UNL     1       2.591   7.378  18.975  0.00  0.00    +0.000 A 
ATOM     10  H   UNL     1       1.716   5.888  21.657  0.00  0.00    +0.000 HD
ENDROOT
BRANCH   1  15
ATOM     11  C   UNL     1      -0.558  11.313  20.292  0.00  0.00    +0.000 A 
ATOM     12  C   UNL     1      -0.148  12.175  19.283  0.00  0.00    +0.000 A 
ATOM     13  C   UNL     1       0.894  11.796  18.425  0.00  0.00    +0.000 A 
ATOM     14  C   UNL     1       1.569  10.565  18.574  0.00  0.00    +0.000 A 
ATOM     15  C   UNL     1       1.178   9.673  19.573  0.00  0.00    +0.000 A 
ATOM     16  C   UNL     1       0.078  10.063  20.393  0.00  0.00    +0.000 A 
BRANCH  11  19
ATOM     17  C   UNL     1      -1.411  12.225  22.461  0.00  0.00    +0.000 C 
ATOM     18  O   UNL     1      -0.374  12.662  22.941  0.00  0.00    +0.000 OA
ATOM     19  N   UNL     1      -1.575  11.622  21.227  0.00  0.00    +0.000 N 
ATOM     20  H   UNL     1      -2.489  11.225  21.054  0.00  0.00    +0.000 HD
BRANCH  17  23
ATOM     21  C   UNL     1      -4.797  12.416  24.798  0.00  0.00    +0.000 C 
ATOM     22  C   UNL     1      -3.614  12.322  23.955  0.00  0.00    +0.000 C 
ATOM     23  C   UNL     1      -2.629  12.253  23.269  0.00  0.00    +0.000 C 
ENDBRANCH  17  23
ENDBRANCH  11  19
ENDBRANCH   1  15
BRANCH   7  24
ATOM     24  N   UNL     1       4.881   6.053  16.237  0.00  0.00    +0.000 N 
ATOM     25  H   UNL     1       4.384   5.581  15.476  0.00  0.00    +0.000 HD
BRANCH  24  26
ATOM     26  S   UNL     1       6.499   5.501  16.219  0.00  0.00    +0.000 S 
ATOM     27  O   UNL     1       7.429   6.593  16.412  0.00  0.00    +0.000 OA
ATOM     28  O   UNL     1       6.527   4.356  17.110  0.00  0.00    +0.000 OA
BRANCH  26  29
ATOM     29  C   UNL     1       6.712   4.885  14.568  0.00  0.00    +0.000 A 
ATOM     30  C   UNL     1       5.824   3.923  14.080  0.00  0.00    +0.000 A 
ATOM     31  C   UNL     1       5.946   3.476  12.764  0.00  0.00    +0.000 A 
ATOM     32  C   UNL     1       6.942   4.000  11.938  0.00  0.00    +0.000 A 
ATOM     33  C   UNL     1       7.804   4.988  12.417  0.00  0.00    +0.000 A 
ATOM     34  C   UNL     1       7.686   5.441  13.731  0.00  0.00    +0.000 A 
ENDBRANCH  26  29
ENDBRANCH  24  26
ENDBRANCH   7  24
TORSDOF 6
ENDMDL
MODEL 7
REMARK VINA RESULT:      -9.0      2.959      9.867
REMARK  Name = 
REMARK  7 active torsions:
REMARK  status: ('A' for Active; 'I' for Inactive)
REMARK    1  A    between atoms: C_1  and  C_2
REMARK    2  A    between atoms: C_3  and  C_4
REMARK    3  A    between atoms: N_6  and  C_7
REMARK    4  A    between atoms: C_11  and  C_12
REMARK    5  A    between atoms: C_18  and  N_19
REMARK    6  A    between atoms: N_19  and  S_20
REMARK    7  A    between atoms: S_20  and  C_23
REMARK                            x       y       z     vdW  Elec       q    Type
REMARK                         _______ _______ _______ _____ _____    ______ ____
ROOT
ATOM      1  C   UNL     1       3.760   6.002  19.051  0.00  0.00    +0.000 A 
ATOM      2  N   UNL     1       3.482   5.161  20.069  0.00  0.00    +0.000 NA
ATOM      3  N   UNL     1       2.478   5.712  20.727  0.00  0.00    +0.000 N 
ATOM      4  C   UNL     1       2.087   6.923  20.256  0.00  0.00    +0.000 A 
ATOM      5  C   UNL     1       1.129   7.793  20.783  0.00  0.00    +0.000 A 
ATOM      6  C   UNL     1       0.846   8.952  20.076  0.00  0.00    +0.000 A 
ATOM      7  C   UNL     1       1.447   9.201  18.847  0.00  0.00    +0.000 A 
ATOM      8  C   UNL     1       2.501   8.352  18.380  0.00  0.00    +0.000 A 
ATOM      9  C   UNL     1       2.841   7.155  19.101  0.00  0.00    +0.000 A 
ATOM     10  H   UNL     1       2.087   5.206  21.511  0.00  0.00    +0.000 HD
ENDROOT
BRANCH   1  15
ATOM     11  C   UNL     1       5.482   4.426  16.027  0.00  0.00    +0.000 A 
ATOM     12  C   UNL     1       6.801   4.344  16.454  0.00  0.00    +0.000 A 
ATOM     13  C   UNL     1       7.154   4.831  17.720  0.00  0.00    +0.000 A 
ATOM     14  C   UNL     1       6.207   5.437  18.574  0.00  0.00    +0.000 A 
ATOM     15  C   UNL     1       4.872   5.528  18.179  0.00  0.00    +0.000 A 
ATOM     16  C   UNL     1       4.534   4.973  16.909  0.00  0.00    +0.000 A 
BRANCH  11  19
ATOM     17  C   UNL     1       5.751   4.042  13.568  0.00  0.00    +0.000 C 
ATOM     18  O   UNL     1       6.911   4.398  13.413  0.00  0.00    +0.000 OA
ATOM     19  N   UNL     1       5.039   3.994  14.754  0.00  0.00    +0.000 N 
ATOM     20  H   UNL     1       4.055   3.777  14.663  0.00  0.00    +0.000 HD
BRANCH  17  23
ATOM     21  C   UNL     1       3.427   2.992  10.334  0.00  0.00    +0.000 C 
ATOM     22  C   UNL     1       4.272   3.375  11.455  0.00  0.00    +0.000 C 
ATOM     23  C   UNL     1       4.961   3.682  12.392  0.00  0.00    +0.000 C 
ENDBRANCH  17  23
ENDBRANCH  11  19
ENDBRANCH   1  15
BRANCH   7  24
ATOM     24  N   UNL     1       1.164  10.447  18.180  0.00  0.00    +0.000 N 
ATOM     25  H   UNL     1       1.985  10.915  17.786  0.00  0.00    +0.000 HD
BRANCH  24  26
ATOM     26  S   UNL     1       0.193  11.643  18.923  0.00  0.00    +0.000 S 
ATOM     27  O   UNL     1       0.286  11.573  20.366  0.00  0.00    +0.000 OA
ATOM     28  O   UNL     1       0.507  12.879  18.234  0.00  0.00    +0.000 OA
BRANCH  26  29
ATOM     29  C   UNL     1      -1.459  11.188  18.458  0.00  0.00    +0.000 A 
ATOM     30  C   UNL     1      -2.532  11.945  18.936  0.00  0.00    +0.000 A 
ATOM     31  C   UNL     1      -3.830  11.633  18.530  0.00  0.00    +0.000 A 
ATOM     32  C   UNL     1      -4.050  10.582  17.639  0.00  0.00    +0.000 A 
ATOM     33  C   UNL     1      -2.972   9.852  17.134  0.00  0.00    +0.000 A 
ATOM     34  C   UNL     1      -1.671  10.159  17.534  0.00  0.00    +0.000 A 
ENDBRANCH  26  29
ENDBRANCH  24  26
ENDBRANCH   7  24
TORSDOF 6
ENDMDL
MODEL 8
REMARK VINA RESULT:      -8.9      2.695      4.296
REMARK  Name = 
REMARK  7 active torsions:
REMARK  status: ('A' for Active; 'I' for Inactive)
REMARK    1  A    between atoms: C_1  and  C_2
REMARK    2  A    between atoms: C_3  and  C_4
REMARK    3  A    between atoms: N_6  and  C_7
REMARK    4  A    between atoms: C_11  and  C_12
REMARK    5  A    between atoms: C_18  and  N_19
REMARK    6  A    between atoms: N_19  and  S_20
REMARK    7  A    between atoms: S_20  and  C_23
REMARK                            x       y       z     vdW  Elec       q    Type
REMARK                         _______ _______ _______ _____ _____    ______ ____
ROOT
ATOM      1  C   UNL     1       0.724   9.660  19.760  0.00  0.00    +0.000 A 
ATOM      2  N   UNL     1       0.574  10.431  18.662  0.00  0.00    +0.000 NA
ATOM      3  N   UNL     1       1.307   9.863  17.722  0.00  0.00    +0.000 N 
ATOM      4  C   UNL     1       2.008   8.774  18.128  0.00  0.00    +0.000 A 
ATOM      5  C   UNL     1       2.934   8.018  17.404  0.00  0.00    +0.000 A 
ATOM      6  C   UNL     1       3.470   6.893  18.014  0.00  0.00    +0.000 A 
ATOM      7  C   UNL     1       3.044   6.496  19.276  0.00  0.00    +0.000 A 
ATOM      8  C   UNL     1       2.176   7.343  20.038  0.00  0.00    +0.000 A 
ATOM      9  C   UNL     1       1.622   8.531  19.450  0.00  0.00    +0.000 A 
ATOM     10  H   UNL     1       1.292  10.270  16.796  0.00  0.00    +0.000 HD
ENDROOT
BRANCH   1  15
ATOM     11  C   UNL     1      -1.180  12.098  22.002  0.00  0.00    +0.000 A 
ATOM     12  C   UNL     1      -1.345  11.356  23.165  0.00  0.00    +0.000 A 
ATOM     13  C   UNL     1      -0.866  10.039  23.223  0.00  0.00    +0.000 A 
ATOM     14  C   UNL     1      -0.241   9.425  22.115  0.00  0.00    +0.000 A 
ATOM     15  C   UNL     1      -0.054  10.145  20.935  0.00  0.00    +0.000 A 
ATOM     16  C   UNL     1      -0.502  11.500  20.926  0.00  0.00    +0.000 A 
BRANCH  11  19
ATOM     17  C   UNL     1      -1.106  14.573  22.363  0.00  0.00    +0.000 C 
ATOM     18  O   UNL     1      -0.068  14.673  23.003  0.00  0.00    +0.000 OA
ATOM     19  N   UNL     1      -1.660  13.420  21.837  0.00  0.00    +0.000 N 
ATOM     20  H   UNL     1      -2.581  13.523  21.434  0.00  0.00    +0.000 HD
BRANCH  17  23
ATOM     21  C   UNL     1      -3.525  17.864  21.834  0.00  0.00    +0.000 C 
ATOM     22  C   UNL     1      -2.643  16.721  22.014  0.00  0.00    +0.000 C 
ATOM     23  C   UNL     1      -1.927  15.766  22.161  0.00  0.00    +0.000 C 
ENDBRANCH  17  23
ENDBRANCH  11  19
ENDBRANCH   1  15
BRANCH   7  24
ATOM     24  N   UNL     1       3.673   5.354  19.890  0.00  0.00    +0.000 N 
ATOM     25  H   UNL     1       4.604   5.538  20.276  0.00  0.00    +0.000 HD
BRANCH  24  26
ATOM     26  S   UNL     1       3.735   3.846  19.087  0.00  0.00    +0.000 S 
ATOM     27  O   UNL     1       4.140   2.787  19.988  0.00  0.00    +0.000 OA
ATOM     28  O   UNL     1       2.485   3.742  18.360  0.00  0.00    +0.000 OA
BRANCH  26  29
ATOM     29  C   UNL     1       5.024   4.064  17.885  0.00  0.00    +0.000 A 
ATOM     30  C   UNL     1       4.742   3.832  16.537  0.00  0.00    +0.000 A 
ATOM     31  C   UNL     1       5.731   4.057  15.578  0.00  0.00    +0.000 A 
ATOM     32  C   UNL     1       6.987   4.527  15.966  0.00  0.00    +0.000 A 
ATOM     33  C   UNL     1       7.253   4.792  17.310  0.00  0.00    +0.000 A 
ATOM     34  C   UNL     1       6.268   4.571  18.274  0.00  0.00    +0.000 A 
ENDBRANCH  26  29
ENDBRANCH  24  26
ENDBRANCH   7  24
TORSDOF 6
ENDMDL
MODEL 9
REMARK VINA RESULT:      -8.9      2.800      4.393
REMARK  Name = 
REMARK  7 active torsions:
REMARK  status: ('A' for Active; 'I' for Inactive)
REMARK    1  A    between atoms: C_1  and  C_2
REMARK    2  A    between atoms: C_3  and  C_4
REMARK    3  A    between atoms: N_6  and  C_7
REMARK    4  A    between atoms: C_11  and  C_12
REMARK    5  A    between atoms: C_18  and  N_19
REMARK    6  A    between atoms: N_19  and  S_20
REMARK    7  A    between atoms: S_20  and  C_23
REMARK                            x       y       z     vdW  Elec       q    Type
REMARK                         _______ _______ _______ _____ _____    ______ ____
ROOT
ATOM      1  C   UNL     1       0.632   9.674  19.756  0.00  0.00    +0.000 A 
ATOM      2  N   UNL     1       0.454  10.451  18.667  0.00  0.00    +0.000 NA
ATOM      3  N   UNL     1       1.193   9.910  17.715  0.00  0.00    +0.000 N 
ATOM      4  C   UNL     1       1.924   8.836  18.105  0.00  0.00    +0.000 A 
ATOM      5  C   UNL     1       2.863   8.110  17.368  0.00  0.00    +0.000 A 
ATOM      6  C   UNL     1       3.432   6.993  17.963  0.00  0.00    +0.000 A 
ATOM      7  C   UNL     1       3.026   6.574  19.225  0.00  0.00    +0.000 A 
ATOM      8  C   UNL     1       2.144   7.392  20.002  0.00  0.00    +0.000 A 
ATOM      9  C   UNL     1       1.555   8.571  19.428  0.00  0.00    +0.000 A 
ATOM     10  H   UNL     1       1.160  10.325  16.793  0.00  0.00    +0.000 HD
ENDROOT
BRANCH   1  15
ATOM     11  C   UNL     1      -1.415  12.009  21.982  0.00  0.00    +0.000 A 
ATOM     12  C   UNL     1      -1.471  11.299  23.175  0.00  0.00    +0.000 A 
ATOM     13  C   UNL     1      -0.870  10.035  23.260  0.00  0.00    +0.000 A 
ATOM     14  C   UNL     1      -0.228   9.440  22.152  0.00  0.00    +0.000 A 
ATOM     15  C   UNL     1      -0.149  10.130  20.942  0.00  0.00    +0.000 A 
ATOM     16  C   UNL     1      -0.720  11.436  20.903  0.00  0.00    +0.000 A 
BRANCH  11  19
ATOM     17  C   UNL     1      -3.168  13.542  21.066  0.00  0.00    +0.000 C 
ATOM     18  O   UNL     1      -3.906  12.733  20.519  0.00  0.00    +0.000 OA
ATOM     19  N   UNL     1      -2.020  13.274  21.791  0.00  0.00    +0.000 N 
ATOM     20  H   UNL     1      -1.484  14.084  22.071  0.00  0.00    +0.000 HD
BRANCH  17  23
ATOM     21  C   UNL     1      -3.943  17.546  20.491  0.00  0.00    +0.000 C 
ATOM     22  C   UNL     1      -3.675  16.135  20.727  0.00  0.00    +0.000 C 
ATOM     23  C   UNL     1      -3.446  14.968  20.908  0.00  0.00    +0.000 C 
ENDBRANCH  17  23
ENDBRANCH  11  19
ENDBRANCH   1  15
BRANCH   7  24
ATOM     24  N   UNL     1       3.689   5.443  19.823  0.00  0.00    +0.000 N 
ATOM     25  H   UNL     1       4.634   5.636  20.165  0.00  0.00    +0.000 HD
BRANCH  24  26
ATOM     26  S   UNL     1       3.724   3.925  19.036  0.00  0.00    +0.000 S 
ATOM     27  O   UNL     1       4.099   2.868  19.950  0.00  0.00    +0.000 OA
ATOM     28  O   UNL     1       2.477   3.842  18.301  0.00  0.00    +0.000 OA
BRANCH  26  29
ATOM     29  C   UNL     1       5.026   4.103  17.842  0.00  0.00    +0.000 A 
ATOM     30  C   UNL     1       4.743   3.886  16.491  0.00  0.00    +0.000 A 
ATOM     31  C   UNL     1       5.744   4.080  15.538  0.00  0.00    +0.000 A 
ATOM     32  C   UNL     1       7.013   4.505  15.934  0.00  0.00    +0.000 A 
ATOM     33  C   UNL     1       7.281   4.758  17.280  0.00  0.00    +0.000 A 
ATOM     34  C   UNL     1       6.284   4.567  18.239  0.00  0.00    +0.000 A 
ENDBRANCH  26  29
ENDBRANCH  24  26
ENDBRANCH   7  24
TORSDOF 6
ENDMDL
