MODEL 1
REMARK VINA RESULT:      -7.6      0.000      0.000
REMARK  Name = 
REMARK  4 active torsions:
REMARK  status: ('A' for Active; 'I' for Inactive)
REMARK    1  A    between atoms: C_1  and  O_2
REMARK    2  A    between atoms: O_2  and  C_3
REMARK    3  A    between atoms: C_9  and  C_10
REMARK    4  A    between atoms: C_17  and  N_18
REMARK                            x       y       z     vdW  Elec       q    Type
REMARK                         _______ _______ _______ _____ _____    ______ ____
ROOT
ATOM      1  C   UNL     1      -0.479  10.612  20.956  0.00  0.00    +0.000 A 
ATOM      2  C   UNL     1      -0.305  11.054  19.643  0.00  0.00    +0.000 A 
ATOM      3  C   UNL     1       0.535  10.354  18.773  0.00  0.00    +0.000 A 
ATOM      4  C   UNL     1       1.181   9.196  19.214  0.00  0.00    +0.000 A 
ATOM      5  C   UNL     1       2.077   8.451  18.324  0.00  0.00    +0.000 A 
ATOM      6  O   UNL     1       2.363   8.889  17.214  0.00  0.00    +0.000 OA
ATOM      7  C   UNL     1       2.600   7.157  18.836  0.00  0.00    +0.000 A 
ATOM      8  C   UNL     1       2.302   6.790  20.103  0.00  0.00    +0.000 A 
ATOM      9  O   UNL     1       1.565   7.584  20.972  0.00  0.00    +0.000 OA
ATOM     10  C   UNL     1       0.987   8.733  20.505  0.00  0.00    +0.000 A 
ATOM     11  C   UNL     1       0.168   9.447  21.382  0.00  0.00    +0.000 A 
ENDROOT
BRANCH   7  12
ATOM     12  C   UNL     1       3.413   6.306  17.949  0.00  0.00    +0.000 A 
ATOM     13  C   UNL     1       3.017   4.991  17.672  0.00  0.00    +0.000 A 
ATOM     14  C   UNL     1       3.811   4.172  16.864  0.00  0.00    +0.000 A 
ATOM     15  C   UNL     1       5.001   4.667  16.334  0.00  0.00    +0.000 A 
ATOM     16 CL   UNL     1       5.991   3.650  15.363  0.00  0.00    +0.000 Cl
ATOM     17  C   UNL     1       5.398   5.977  16.592  0.00  0.00    +0.000 A 
ATOM     18  C   UNL     1       4.605   6.798  17.397  0.00  0.00    +0.000 A 
ENDBRANCH   7  12
BRANCH   8  19
ATOM     19  N   UNL     1       2.696   5.603  20.686  0.00  0.00    +0.000 N 
ATOM     20  H   UNL     1       3.701   5.463  20.726  0.00  0.00    +0.000 HD
ATOM     21  H   UNL     1       2.224   5.435  21.570  0.00  0.00    +0.000 HD
ENDBRANCH   8  19
BRANCH   1  23
ATOM     22  C   UNL     1      -1.151  10.714  23.234  0.00  0.00    +0.000 C 
ATOM     23  O   UNL     1      -1.248  11.225  21.908  0.00  0.00    +0.000 OA
ENDBRANCH   1  23
TORSDOF 3
ENDMDL
MODEL 2
REMARK VINA RESULT:      -7.6      0.171      1.070
REMARK  Name = 
REMARK  4 active torsions:
REMARK  status: ('A' for Active; 'I' for Inactive)
REMARK    1  A    between atoms: C_1  and  O_2
REMARK    2  A    between atoms: O_2  and  C_3
REMARK    3  A    between atoms: C_9  and  C_10
REMARK    4  A    between atoms: C_17  and  N_18
REMARK                            x       y       z     vdW  Elec       q    Type
REMARK                         _______ _______ _______ _____ _____    ______ ____
ROOT
ATOM      1  C   UNL     1      -0.530  10.727  20.728  0.00  0.00    +0.000 A 
ATOM      2  C   UNL     1      -0.308  11.125  19.408  0.00  0.00    +0.000 A 
ATOM      3  C   UNL     1       0.556  10.392  18.590  0.00  0.00    +0.000 A 
ATOM      4  C   UNL     1       1.180   9.247  19.090  0.00  0.00    +0.000 A 
ATOM      5  C   UNL     1       2.101   8.468  18.255  0.00  0.00    +0.000 A 
ATOM      6  O   UNL     1       2.426   8.868  17.142  0.00  0.00    +0.000 OA
ATOM      7  C   UNL     1       2.598   7.189  18.826  0.00  0.00    +0.000 A 
ATOM      8  C   UNL     1       2.255   6.865  20.093  0.00  0.00    +0.000 A 
ATOM      9  O   UNL     1       1.495   7.690  20.911  0.00  0.00    +0.000 OA
ATOM     10  C   UNL     1       0.939   8.826  20.388  0.00  0.00    +0.000 A 
ATOM     11  C   UNL     1       0.096   9.573  21.213  0.00  0.00    +0.000 A 
ENDROOT
BRANCH   7  12
ATOM     12  C   UNL     1       3.435   6.306  17.995  0.00  0.00    +0.000 A 
ATOM     13  C   UNL     1       4.629   6.782  17.436  0.00  0.00    +0.000 A 
ATOM     14  C   UNL     1       5.401   5.956  16.615  0.00  0.00    +0.000 A 
ATOM     15  C   UNL     1       4.981   4.654  16.352  0.00  0.00    +0.000 A 
ATOM     16 CL   UNL     1       5.917   3.647  15.320  0.00  0.00    +0.000 Cl
ATOM     17  C   UNL     1       3.803   4.165  16.913  0.00  0.00    +0.000 A 
ATOM     18  C   UNL     1       3.031   4.988  17.736  0.00  0.00    +0.000 A 
ENDBRANCH   7  12
BRANCH   8  19
ATOM     19  N   UNL     1       2.622   5.695  20.727  0.00  0.00    +0.000 N 
ATOM     20  H   UNL     1       3.574   5.394  20.544  0.00  0.00    +0.000 HD
ATOM     21  H   UNL     1       2.377   5.701  21.714  0.00  0.00    +0.000 HD
ENDBRANCH   8  19
BRANCH   1  23
ATOM     22  C   UNL     1      -1.118  11.061  23.007  0.00  0.00    +0.000 C 
ATOM     23  O   UNL     1      -1.326  11.374  21.633  0.00  0.00    +0.000 OA
ENDBRANCH   1  23
TORSDOF 3
ENDMDL
MODEL 3
REMARK VINA RESULT:      -7.0      3.684      6.768
REMARK  Name = 
REMARK  4 active torsions:
REMARK  status: ('A' for Active; 'I' for Inactive)
REMARK    1  A    between atoms: C_1  and  O_2
REMARK    2  A    between atoms: O_2  and  C_3
REMARK    3  A    between atoms: C_9  and  C_10
REMARK    4  A    between atoms: C_17  and  N_18
REMARK                            x       y       z     vdW  Elec       q    Type
REMARK                         _______ _______ _______ _____ _____    ______ ____
ROOT
ATOM      1  C   UNL     1       2.943   5.007  19.599  0.00  0.00    +0.000 A 
ATOM      2  C   UNL     1       3.369   5.528  18.376  0.00  0.00    +0.000 A 
ATOM      3  C   UNL     1       3.002   6.823  18.000  0.00  0.00    +0.000 A 
ATOM      4  C   UNL     1       2.227   7.603  18.863  0.00  0.00    +0.000 A 
ATOM      5  C   UNL     1       1.818   8.960  18.485  0.00  0.00    +0.000 A 
ATOM      6  O   UNL     1       2.054   9.395  17.363  0.00  0.00    +0.000 OA
ATOM      7  C   UNL     1       1.122   9.760  19.527  0.00  0.00    +0.000 A 
ATOM      8  C   UNL     1       0.828   9.174  20.709  0.00  0.00    +0.000 A 
ATOM      9  O   UNL     1       1.102   7.841  20.988  0.00  0.00    +0.000 OA
ATOM     10  C   UNL     1       1.828   7.104  20.092  0.00  0.00    +0.000 A 
ATOM     11  C   UNL     1       2.173   5.801  20.456  0.00  0.00    +0.000 A 
ENDROOT
BRANCH   7  12
ATOM     12  C   UNL     1       0.786  11.168  19.250  0.00  0.00    +0.000 A 
ATOM     13  C   UNL     1       1.684  12.190  19.589  0.00  0.00    +0.000 A 
ATOM     14  C   UNL     1       1.346  13.527  19.364  0.00  0.00    +0.000 A 
ATOM     15  C   UNL     1       0.111  13.844  18.801  0.00  0.00    +0.000 A 
ATOM     16 CL   UNL     1      -0.315  15.490  18.549  0.00  0.00    +0.000 Cl
ATOM     17  C   UNL     1      -0.783  12.836  18.447  0.00  0.00    +0.000 A 
ATOM     18  C   UNL     1      -0.447  11.498  18.669  0.00  0.00    +0.000 A 
ENDBRANCH   7  12
BRANCH   8  19
ATOM     19  N   UNL     1       0.216   9.814  21.768  0.00  0.00    +0.000 N 
ATOM     20  H   UNL     1       0.296  10.826  21.755  0.00  0.00    +0.000 HD
ATOM     21  H   UNL     1      -0.732   9.480  21.921  0.00  0.00    +0.000 HD
ENDBRANCH   8  19
BRANCH   1  23
ATOM     22  C   UNL     1       2.392   3.274  21.130  0.00  0.00    +0.000 C 
ATOM     23  O   UNL     1       3.210   3.748  20.065  0.00  0.00    +0.000 OA
ENDBRANCH   1  23
TORSDOF 3
ENDMDL
MODEL 4
REMARK VINA RESULT:      -7.0      3.656      6.720
REMARK  Name = 
REMARK  4 active torsions:
REMARK  status: ('A' for Active; 'I' for Inactive)
REMARK    1  A    between atoms: C_1  and  O_2
REMARK    2  A    between atoms: O_2  and  C_3
REMARK    3  A    between atoms: C_9  and  C_10
REMARK    4  A    between atoms: C_17  and  N_18
REMARK                            x       y       z     vdW  Elec       q    Type
REMARK                         _______ _______ _______ _____ _____    ______ ____
ROOT
ATOM      1  C   UNL     1       3.050   4.993  19.528  0.00  0.00    +0.000 A 
ATOM      2  C   UNL     1       3.483   5.575  18.335  0.00  0.00    +0.000 A 
ATOM      3  C   UNL     1       3.086   6.873  18.003  0.00  0.00    +0.000 A 
ATOM      4  C   UNL     1       2.271   7.595  18.879  0.00  0.00    +0.000 A 
ATOM      5  C   UNL     1       1.830   8.954  18.547  0.00  0.00    +0.000 A 
ATOM      6  O   UNL     1       2.075   9.440  17.447  0.00  0.00    +0.000 OA
ATOM      7  C   UNL     1       1.092   9.692  19.604  0.00  0.00    +0.000 A 
ATOM      8  C   UNL     1       0.791   9.051  20.757  0.00  0.00    +0.000 A 
ATOM      9  O   UNL     1       1.100   7.716  20.988  0.00  0.00    +0.000 OA
ATOM     10  C   UNL     1       1.864   7.036  20.079  0.00  0.00    +0.000 A 
ATOM     11  C   UNL     1       2.240   5.731  20.399  0.00  0.00    +0.000 A 
ENDROOT
BRANCH   7  12
ATOM     12  C   UNL     1       0.720  11.099  19.376  0.00  0.00    +0.000 A 
ATOM     13  C   UNL     1      -0.488  11.418  18.741  0.00  0.00    +0.000 A 
ATOM     14  C   UNL     1      -0.820  12.751  18.489  0.00  0.00    +0.000 A 
ATOM     15  C   UNL     1       0.054  13.767  18.870  0.00  0.00    +0.000 A 
ATOM     16 CL   UNL     1      -0.342  15.406  18.535  0.00  0.00    +0.000 Cl
ATOM     17  C   UNL     1       1.252  13.463  19.515  0.00  0.00    +0.000 A 
ATOM     18  C   UNL     1       1.585  12.131  19.770  0.00  0.00    +0.000 A 
ENDBRANCH   7  12
BRANCH   8  19
ATOM     19  N   UNL     1       0.141   9.630  21.827  0.00  0.00    +0.000 N 
ATOM     20  H   UNL     1       0.754  10.057  22.515  0.00  0.00    +0.000 HD
ATOM     21  H   UNL     1      -0.624  10.231  21.531  0.00  0.00    +0.000 HD
ENDBRANCH   8  19
BRANCH   1  23
ATOM     22  C   UNL     1       2.560   3.209  21.020  0.00  0.00    +0.000 C 
ATOM     23  O   UNL     1       3.344   3.725  19.949  0.00  0.00    +0.000 OA
ENDBRANCH   1  23
TORSDOF 3
ENDMDL
MODEL 5
REMARK VINA RESULT:      -7.0      3.653      7.005
REMARK  Name = 
REMARK  4 active torsions:
REMARK  status: ('A' for Active; 'I' for Inactive)
REMARK    1  A    between atoms: C_1  and  O_2
REMARK    2  A    between atoms: O_2  and  C_3
REMARK    3  A    between atoms: C_9  and  C_10
REMARK    4  A    between atoms: C_17  and  N_18
REMARK                            x       y       z     vdW  Elec       q    Type
REMARK                         _______ _______ _______ _____ _____    ______ ____
ROOT
ATOM      1  C   UNL     1       3.952   5.198  18.613  0.00  0.00    +0.000 A 
ATOM      2  C   UNL     1       4.141   6.062  17.533  0.00  0.00    +0.000 A 
ATOM      3  C   UNL     1       3.465   7.284  17.485  0.00  0.00    +0.000 A 
ATOM      4  C   UNL     1       2.616   7.649  18.533  0.00  0.00    +0.000 A 
ATOM      5  C   UNL     1       1.885   8.920  18.501  0.00  0.00    +0.000 A 
ATOM      6  O   UNL     1       1.919   9.636  17.505  0.00  0.00    +0.000 OA
ATOM      7  C   UNL     1       1.125   9.283  19.725  0.00  0.00    +0.000 A 
ATOM      8  C   UNL     1       1.073   8.398  20.745  0.00  0.00    +0.000 A 
ATOM      9  O   UNL     1       1.659   7.140  20.693  0.00  0.00    +0.000 OA
ATOM     10  C   UNL     1       2.448   6.811  19.624  0.00  0.00    +0.000 A 
ATOM     11  C   UNL     1       3.104   5.579  19.659  0.00  0.00    +0.000 A 
ENDROOT
BRANCH   7  12
ATOM     12  C   UNL     1       0.462  10.597  19.799  0.00  0.00    +0.000 A 
ATOM     13  C   UNL     1       1.139  11.702  20.333  0.00  0.00    +0.000 A 
ATOM     14  C   UNL     1       0.495  12.937  20.441  0.00  0.00    +0.000 A 
ATOM     15  C   UNL     1      -0.826  13.069  20.016  0.00  0.00    +0.000 A 
ATOM     16 CL   UNL     1      -1.626  14.583  20.174  0.00  0.00    +0.000 Cl
ATOM     17  C   UNL     1      -1.504  11.982  19.470  0.00  0.00    +0.000 A 
ATOM     18  C   UNL     1      -0.862  10.746  19.359  0.00  0.00    +0.000 A 
ENDBRANCH   7  12
BRANCH   8  19
ATOM     19  N   UNL     1       0.430   8.625  21.946  0.00  0.00    +0.000 N 
ATOM     20  H   UNL     1       0.549   7.889  22.635  0.00  0.00    +0.000 HD
ATOM     21  H   UNL     1       0.611   9.557  22.307  0.00  0.00    +0.000 HD
ENDBRANCH   8  19
BRANCH   1  23
ATOM     22  C   UNL     1       3.879   3.055  19.638  0.00  0.00    +0.000 C 
ATOM     23  O   UNL     1       4.531   3.967  18.760  0.00  0.00    +0.000 OA
ENDBRANCH   1  23
TORSDOF 3
ENDMDL
MODEL 6
REMARK VINA RESULT:      -6.9      3.647      6.986
REMARK  Name = 
REMARK  4 active torsions:
REMARK  status: ('A' for Active; 'I' for Inactive)
REMARK    1  A    between atoms: C_1  and  O_2
REMARK    2  A    between atoms: O_2  and  C_3
REMARK    3  A    between atoms: C_9  and  C_10
REMARK    4  A    between atoms: C_17  and  N_18
REMARK                            x       y       z     vdW  Elec       q    Type
REMARK                         _______ _______ _______ _____ _____    ______ ____
ROOT
ATOM      1  C   UNL     1       3.565   5.145  18.849  0.00  0.00    +0.000 A 
ATOM      2  C   UNL     1       3.830   5.952  17.741  0.00  0.00    +0.000 A 
ATOM      3  C   UNL     1       3.256   7.223  17.647  0.00  0.00    +0.000 A 
ATOM      4  C   UNL     1       2.435   7.692  18.675  0.00  0.00    +0.000 A 
ATOM      5  C   UNL     1       1.811   9.017  18.594  0.00  0.00    +0.000 A 
ATOM      6  O   UNL     1       1.907   9.692  17.574  0.00  0.00    +0.000 OA
ATOM      7  C   UNL     1       1.078   9.484  19.799  0.00  0.00    +0.000 A 
ATOM      8  C   UNL     1       0.949   8.642  20.849  0.00  0.00    +0.000 A 
ATOM      9  O   UNL     1       1.431   7.339  20.844  0.00  0.00    +0.000 OA
ATOM     10  C   UNL     1       2.195   6.910  19.793  0.00  0.00    +0.000 A 
ATOM     11  C   UNL     1       2.747   5.630  19.876  0.00  0.00    +0.000 A 
ENDROOT
BRANCH   7  12
ATOM     12  C   UNL     1       0.525  10.849  19.823  0.00  0.00    +0.000 A 
ATOM     13  C   UNL     1      -0.765  11.099  19.334  0.00  0.00    +0.000 A 
ATOM     14  C   UNL     1      -1.272  12.401  19.319  0.00  0.00    +0.000 A 
ATOM     15  C   UNL     1      -0.491  13.454  19.793  0.00  0.00    +0.000 A 
ATOM     16 CL   UNL     1      -1.105  15.059  19.750  0.00  0.00    +0.000 Cl
ATOM     17  C   UNL     1       0.787  13.215  20.295  0.00  0.00    +0.000 A 
ATOM     18  C   UNL     1       1.295  11.914  20.312  0.00  0.00    +0.000 A 
ENDBRANCH   7  12
BRANCH   8  19
ATOM     19  N   UNL     1       0.322   8.962  22.036  0.00  0.00    +0.000 N 
ATOM     20  H   UNL     1       0.002   9.924  22.100  0.00  0.00    +0.000 HD
ATOM     21  H   UNL     1      -0.383   8.278  22.294  0.00  0.00    +0.000 HD
ENDBRANCH   8  19
BRANCH   1  23
ATOM     22  C   UNL     1       3.830   2.946  17.985  0.00  0.00    +0.000 C 
ATOM     23  O   UNL     1       4.041   3.876  19.043  0.00  0.00    +0.000 OA
ENDBRANCH   1  23
TORSDOF 3
ENDMDL
MODEL 7
REMARK VINA RESULT:      -6.8      3.329      7.162
REMARK  Name = 
REMARK  4 active torsions:
REMARK  status: ('A' for Active; 'I' for Inactive)
REMARK    1  A    between atoms: C_1  and  O_2
REMARK    2  A    between atoms: O_2  and  C_3
REMARK    3  A    between atoms: C_9  and  C_10
REMARK    4  A    between atoms: C_17  and  N_18
REMARK                            x       y       z     vdW  Elec       q    Type
REMARK                         _______ _______ _______ _____ _____    ______ ____
ROOT
ATOM      1  C   UNL     1       5.219   4.745  16.224  0.00  0.00    +0.000 A 
ATOM      2  C   UNL     1       5.330   6.082  15.838  0.00  0.00    +0.000 A 
ATOM      3  C   UNL     1       4.583   7.065  16.492  0.00  0.00    +0.000 A 
ATOM      4  C   UNL     1       3.741   6.708  17.549  0.00  0.00    +0.000 A 
ATOM      5  C   UNL     1       2.936   7.719  18.243  0.00  0.00    +0.000 A 
ATOM      6  O   UNL     1       2.903   8.877  17.839  0.00  0.00    +0.000 OA
ATOM      7  C   UNL     1       2.188   7.266  19.444  0.00  0.00    +0.000 A 
ATOM      8  C   UNL     1       2.214   5.954  19.770  0.00  0.00    +0.000 A 
ATOM      9  O   UNL     1       2.871   4.994  19.013  0.00  0.00    +0.000 OA
ATOM     10  C   UNL     1       3.650   5.388  17.959  0.00  0.00    +0.000 A 
ATOM     11  C   UNL     1       4.378   4.403  17.289  0.00  0.00    +0.000 A 
ENDROOT
BRANCH   7  12
ATOM     12  C   UNL     1       1.451   8.255  20.251  0.00  0.00    +0.000 A 
ATOM     13  C   UNL     1       1.650   8.327  21.636  0.00  0.00    +0.000 A 
ATOM     14  C   UNL     1       0.921   9.237  22.406  0.00  0.00    +0.000 A 
ATOM     15  C   UNL     1      -0.008  10.075  21.792  0.00  0.00    +0.000 A 
ATOM     16 CL   UNL     1      -0.924  11.176  22.743  0.00  0.00    +0.000 Cl
ATOM     17  C   UNL     1      -0.203  10.023  20.413  0.00  0.00    +0.000 A 
ATOM     18  C   UNL     1       0.526   9.115  19.642  0.00  0.00    +0.000 A 
ENDBRANCH   7  12
BRANCH   8  19
ATOM     19  N   UNL     1       1.590   5.411  20.875  0.00  0.00    +0.000 N 
ATOM     20  H   UNL     1       1.357   4.426  20.789  0.00  0.00    +0.000 HD
ATOM     21  H   UNL     1       2.071   5.643  21.740  0.00  0.00    +0.000 HD
ENDBRANCH   8  19
BRANCH   1  23
ATOM     22  C   UNL     1       6.221   3.832  14.271  0.00  0.00    +0.000 C 
ATOM     23  O   UNL     1       5.873   3.691  15.645  0.00  0.00    +0.000 OA
ENDBRANCH   1  23
TORSDOF 3
ENDMDL
MODEL 8
REMARK VINA RESULT:      -6.8      3.327      7.168
REMARK  Name = 
REMARK  4 active torsions:
REMARK  status: ('A' for Active; 'I' for Inactive)
REMARK    1  A    between atoms: C_1  and  O_2
REMARK    2  A    between atoms: O_2  and  C_3
REMARK    3  A    between atoms: C_9  and  C_10
REMARK    4  A    between atoms: C_17  and  N_18
REMARK                            x       y       z     vdW  Elec       q    Type
REMARK                         _______ _______ _______ _____ _____    ______ ____
ROOT
ATOM      1  C   UNL     1       5.251   4.723  16.196  0.00  0.00    +0.000 A 
ATOM      2  C   UNL     1       5.382   6.067  15.841  0.00  0.00    +0.000 A 
ATOM      3  C   UNL     1       4.632   7.043  16.502  0.00  0.00    +0.000 A 
ATOM      4  C   UNL     1       3.768   6.673  17.536  0.00  0.00    +0.000 A 
ATOM      5  C   UNL     1       2.961   7.677  18.237  0.00  0.00    +0.000 A 
ATOM      6  O   UNL     1       2.946   8.843  17.856  0.00  0.00    +0.000 OA
ATOM      7  C   UNL     1       2.187   7.207  19.414  0.00  0.00    +0.000 A 
ATOM      8  C   UNL     1       2.194   5.888  19.714  0.00  0.00    +0.000 A 
ATOM      9  O   UNL     1       2.856   4.937  18.948  0.00  0.00    +0.000 OA
ATOM     10  C   UNL     1       3.658   5.345  17.916  0.00  0.00    +0.000 A 
ATOM     11  C   UNL     1       4.387   4.367  17.238  0.00  0.00    +0.000 A 
ENDROOT
BRANCH   7  12
ATOM     12  C   UNL     1       1.446   8.186  20.229  0.00  0.00    +0.000 A 
ATOM     13  C   UNL     1       0.536   9.064  19.625  0.00  0.00    +0.000 A 
ATOM     14  C   UNL     1      -0.135  10.020  20.393  0.00  0.00    +0.000 A 
ATOM     15  C   UNL     1       0.103  10.098  21.764  0.00  0.00    +0.000 A 
ATOM     16 CL   UNL     1      -0.703  11.292  22.703  0.00  0.00    +0.000 Cl
ATOM     17  C   UNL     1       0.995   9.221  22.377  0.00  0.00    +0.000 A 
ATOM     18  C   UNL     1       1.665   8.263  21.612  0.00  0.00    +0.000 A 
ENDBRANCH   7  12
BRANCH   8  19
ATOM     19  N   UNL     1       1.546   5.328  20.796  0.00  0.00    +0.000 N 
ATOM     20  H   UNL     1       0.573   5.603  20.896  0.00  0.00    +0.000 HD
ATOM     21  H   UNL     1       1.696   4.324  20.855  0.00  0.00    +0.000 HD
ENDBRANCH   8  19
BRANCH   1  23
ATOM     22  C   UNL     1       6.306   3.853  14.252  0.00  0.00    +0.000 C 
ATOM     23  O   UNL     1       5.905   3.675  15.607  0.00  0.00    +0.000 OA
ENDBRANCH   1  23
TORSDOF 3
ENDMDL
MODEL 9
REMARK VINA RESULT:      -6.8      3.782      7.295
REMARK  Name = 
REMARK  4 active torsions:
REMARK  status: ('A' for Active; 'I' for Inactive)
REMARK    1  A    between atoms: C_1  and  O_2
REMARK    2  A    between atoms: O_2  and  C_3
REMARK    3  A    between atoms: C_9  and  C_10
REMARK    4  A    between atoms: C_17  and  N_18
REMARK                            x       y       z     vdW  Elec       q    Type
REMARK                         _______ _______ _______ _____ _____    ______ ____
ROOT
ATOM      1  C   UNL     1       3.250   4.719  19.087  0.00  0.00    +0.000 A 
ATOM      2  C   UNL     1       2.529   4.646  20.280  0.00  0.00    +0.000 A 
ATOM      3  C   UNL     1       1.860   5.773  20.765  0.00  0.00    +0.000 A 
ATOM      4  C   UNL     1       1.896   6.967  20.040  0.00  0.00    +0.000 A 
ATOM      5  C   UNL     1       1.213   8.167  20.534  0.00  0.00    +0.000 A 
ATOM      6  O   UNL     1       0.691   8.177  21.645  0.00  0.00    +0.000 OA
ATOM      7  C   UNL     1       1.185   9.341  19.624  0.00  0.00    +0.000 A 
ATOM      8  C   UNL     1       1.857   9.272  18.452  0.00  0.00    +0.000 A 
ATOM      9  O   UNL     1       2.614   8.171  18.072  0.00  0.00    +0.000 OA
ATOM     10  C   UNL     1       2.582   7.037  18.839  0.00  0.00    +0.000 A 
ATOM     11  C   UNL     1       3.271   5.919  18.367  0.00  0.00    +0.000 A 
ENDROOT
BRANCH   7  12
ATOM     12  C   UNL     1       0.419  10.538  20.013  0.00  0.00    +0.000 A 
ATOM     13  C   UNL     1      -0.924  10.671  19.638  0.00  0.00    +0.000 A 
ATOM     14  C   UNL     1      -1.637  11.826  19.972  0.00  0.00    +0.000 A 
ATOM     15  C   UNL     1      -1.008  12.848  20.680  0.00  0.00    +0.000 A 
ATOM     16 CL   UNL     1      -1.878  14.279  21.068  0.00  0.00    +0.000 Cl
ATOM     17  C   UNL     1       0.324  12.720  21.071  0.00  0.00    +0.000 A 
ATOM     18  C   UNL     1       1.038  11.566  20.740  0.00  0.00    +0.000 A 
ENDBRANCH   7  12
BRANCH   8  19
ATOM     19  N   UNL     1       1.885  10.276  17.506  0.00  0.00    +0.000 N 
ATOM     20  H   UNL     1       2.525  11.037  17.714  0.00  0.00    +0.000 HD
ATOM     21  H   UNL     1       1.976   9.911  16.562  0.00  0.00    +0.000 HD
ENDBRANCH   8  19
BRANCH   1  23
ATOM     22  C   UNL     1       3.236   2.751  17.753  0.00  0.00    +0.000 C 
ATOM     23  O   UNL     1       3.968   3.697  18.526  0.00  0.00    +0.000 OA
ENDBRANCH   1  23
TORSDOF 3
ENDMDL
