MODEL 1
REMARK VINA RESULT:      -8.4      0.000      0.000
REMARK  Name = 
REMARK  8 active torsions:
REMARK  status: ('A' for Active; 'I' for Inactive)
REMARK    1  A    between atoms: C_1  and  O_2
REMARK    2  A    between atoms: O_2  and  C_3
REMARK    3  A    between atoms: C_6  and  C_7
REMARK    4  A    between atoms: C_13  and  C_14
REMARK    5  A    between atoms: C_14  and  N_15
REMARK    6  A    between atoms: C_16  and  C_18
REMARK    7  A    between atoms: N_20  and  C_21
REMARK    8  A    between atoms: C_21  and  C_22
REMARK                            x       y       z     vdW  Elec       q    Type
REMARK                         _______ _______ _______ _____ _____    ______ ____
ROOT
ATOM      1  C   UNL     1       4.464   3.173  19.936  0.00  0.00    +0.000 C 
ENDROOT
BRANCH   1   8
ATOM      2  C   UNL     1       2.512   5.421  18.643  0.00  0.00    +0.000 C 
ATOM      3  O   UNL     1       2.995   5.194  17.538  0.00  0.00    +0.000 OA
ATOM      4  N   UNL     1       2.358   4.426  19.594  0.00  0.00    +0.000 N 
ATOM      5  C   UNL     1       1.642   4.463  20.841  0.00  0.00    +0.000 C 
ATOM      6  C   UNL     1       1.319   3.015  21.096  0.00  0.00    +0.000 C 
ATOM      7  O   UNL     1       2.270   2.247  20.348  0.00  0.00    +0.000 OA
ATOM      8  C   UNL     1       2.991   3.132  19.456  0.00  0.00    +0.000 C 
BRANCH   2  12
ATOM      9  C   UNL     1       1.396   9.479  19.592  0.00  0.00    +0.000 A 
ATOM     10  C   UNL     1       1.814   9.141  18.302  0.00  0.00    +0.000 A 
ATOM     11  C   UNL     1       2.156   7.816  17.986  0.00  0.00    +0.000 A 
ATOM     12  C   UNL     1       2.108   6.823  18.968  0.00  0.00    +0.000 A 
ATOM     13  C   UNL     1       1.774   7.194  20.273  0.00  0.00    +0.000 A 
ATOM     14  C   UNL     1       1.381   8.498  20.578  0.00  0.00    +0.000 A 
BRANCH   9  16
ATOM     15  C   UNL     1       1.414  11.686  18.741  0.00  0.00    +0.000 C 
ATOM     16  O   UNL     1       1.082  10.793  19.801  0.00  0.00    +0.000 OA
ENDBRANCH   9  16
ENDBRANCH   2  12
ENDBRANCH   1   8
BRANCH   1  17
ATOM     17  N   UNL     1       5.429   3.457  18.888  0.00  0.00    +0.000 N 
ATOM     18  C   UNL     1       6.166   4.614  18.846  0.00  0.00    +0.000 C 
ATOM     19  O   UNL     1       6.111   5.529  19.655  0.00  0.00    +0.000 OA
ATOM     20  H   UNL     1       5.500   2.837  18.083  0.00  0.00    +0.000 HD
BRANCH  18  21
ATOM     21  C   UNL     1       7.160   4.675  17.664  0.00  0.00    +0.000 C 
ATOM     22  O   UNL     1       8.251   4.127  17.744  0.00  0.00    +0.000 OA
ATOM     23  N   UNL     1       6.694   5.388  16.584  0.00  0.00    +0.000 N 
ATOM     24  H   UNL     1       5.771   5.807  16.660  0.00  0.00    +0.000 HD
BRANCH  23  25
ATOM     25  C   UNL     1       7.457   5.584  15.374  0.00  0.00    +0.000 C 
BRANCH  25  26
ATOM     26  C   UNL     1       6.874   4.819  14.209  0.00  0.00    +0.000 A 
ATOM     27  C   UNL     1       5.657   4.152  14.341  0.00  0.00    +0.000 A 
ATOM     28  C   UNL     1       5.143   3.466  13.241  0.00  0.00    +0.000 A 
ATOM     29  C   UNL     1       5.861   3.449  12.051  0.00  0.00    +0.000 A 
ATOM     30  C   UNL     1       7.071   4.118  12.010  0.00  0.00    +0.000 A 
ATOM     31  N   UNL     1       7.592   4.797  13.057  0.00  0.00    +0.000 NA
ENDBRANCH  25  26
ENDBRANCH  23  25
ENDBRANCH  18  21
ENDBRANCH   1  17
TORSDOF 7
ENDMDL
MODEL 2
REMARK VINA RESULT:      -8.3      0.714      1.352
REMARK  Name = 
REMARK  8 active torsions:
REMARK  status: ('A' for Active; 'I' for Inactive)
REMARK    1  A    between atoms: C_1  and  O_2
REMARK    2  A    between atoms: O_2  and  C_3
REMARK    3  A    between atoms: C_6  and  C_7
REMARK    4  A    between atoms: C_13  and  C_14
REMARK    5  A    between atoms: C_14  and  N_15
REMARK    6  A    between atoms: C_16  and  C_18
REMARK    7  A    between atoms: N_20  and  C_21
REMARK    8  A    between atoms: C_21  and  C_22
REMARK                            x       y       z     vdW  Elec       q    Type
REMARK                         _______ _______ _______ _____ _____    ______ ____
ROOT
ATOM      1  C   UNL     1       4.358   3.058  19.896  0.00  0.00    +0.000 C 
ENDROOT
BRANCH   1   8
ATOM      2  C   UNL     1       2.540   5.405  18.585  0.00  0.00    +0.000 C 
ATOM      3  O   UNL     1       3.066   5.195  17.497  0.00  0.00    +0.000 OA
ATOM      4  N   UNL     1       2.311   4.389  19.498  0.00  0.00    +0.000 N 
ATOM      5  C   UNL     1       1.540   4.413  20.712  0.00  0.00    +0.000 C 
ATOM      6  C   UNL     1       1.160   2.970  20.908  0.00  0.00    +0.000 C 
ATOM      7  O   UNL     1       2.120   2.193  20.180  0.00  0.00    +0.000 OA
ATOM      8  C   UNL     1       2.909   3.079  19.349  0.00  0.00    +0.000 C 
BRANCH   2  12
ATOM      9  C   UNL     1       1.407   9.445  19.588  0.00  0.00    +0.000 A 
ATOM     10  C   UNL     1       1.416   8.447  20.567  0.00  0.00    +0.000 A 
ATOM     11  C   UNL     1       1.806   7.136  20.246  0.00  0.00    +0.000 A 
ATOM     12  C   UNL     1       2.165   6.809  18.935  0.00  0.00    +0.000 A 
ATOM     13  C   UNL     1       2.066   7.797  17.952  0.00  0.00    +0.000 A 
ATOM     14  C   UNL     1       1.731   9.112  18.277  0.00  0.00    +0.000 A 
BRANCH   9  16
ATOM     15  C   UNL     1      -0.390  10.889  20.122  0.00  0.00    +0.000 C 
ATOM     16  O   UNL     1       1.016  10.690  19.998  0.00  0.00    +0.000 OA
ENDBRANCH   9  16
ENDBRANCH   2  12
ENDBRANCH   1   8
BRANCH   1  17
ATOM     17  N   UNL     1       5.376   3.376  18.910  0.00  0.00    +0.000 N 
ATOM     18  C   UNL     1       6.050   4.572  18.893  0.00  0.00    +0.000 C 
ATOM     19  O   UNL     1       5.890   5.496  19.676  0.00  0.00    +0.000 OA
ATOM     20  H   UNL     1       5.536   2.747  18.125  0.00  0.00    +0.000 HD
BRANCH  18  21
ATOM     21  C   UNL     1       7.118   4.668  17.780  0.00  0.00    +0.000 C 
ATOM     22  O   UNL     1       8.295   4.446  18.030  0.00  0.00    +0.000 OA
ATOM     23  N   UNL     1       6.609   5.021  16.552  0.00  0.00    +0.000 N 
ATOM     24  H   UNL     1       5.609   5.193  16.489  0.00  0.00    +0.000 HD
BRANCH  23  25
ATOM     25  C   UNL     1       7.424   5.179  15.371  0.00  0.00    +0.000 C 
BRANCH  25  26
ATOM     26  C   UNL     1       6.788   4.546  14.156  0.00  0.00    +0.000 A 
ATOM     27  C   UNL     1       7.482   4.483  12.948  0.00  0.00    +0.000 A 
ATOM     28  C   UNL     1       6.870   3.880  11.851  0.00  0.00    +0.000 A 
ATOM     29  C   UNL     1       5.582   3.373  11.981  0.00  0.00    +0.000 A 
ATOM     30  C   UNL     1       4.954   3.495  13.208  0.00  0.00    +0.000 A 
ATOM     31  N   UNL     1       5.524   4.069  14.292  0.00  0.00    +0.000 NA
ENDBRANCH  25  26
ENDBRANCH  23  25
ENDBRANCH  18  21
ENDBRANCH   1  17
TORSDOF 7
ENDMDL
MODEL 3
REMARK VINA RESULT:      -7.9      5.399      7.988
REMARK  Name = 
REMARK  8 active torsions:
REMARK  status: ('A' for Active; 'I' for Inactive)
REMARK    1  A    between atoms: C_1  and  O_2
REMARK    2  A    between atoms: O_2  and  C_3
REMARK    3  A    between atoms: C_6  and  C_7
REMARK    4  A    between atoms: C_13  and  C_14
REMARK    5  A    between atoms: C_14  and  N_15
REMARK    6  A    between atoms: C_16  and  C_18
REMARK    7  A    between atoms: N_20  and  C_21
REMARK    8  A    between atoms: C_21  and  C_22
REMARK                            x       y       z     vdW  Elec       q    Type
REMARK                         _______ _______ _______ _____ _____    ______ ____
ROOT
ATOM      1  C   UNL     1       7.358   7.329  17.544  0.00  0.00    +0.000 C 
ENDROOT
BRANCH   1   8
ATOM      2  C   UNL     1       4.293   6.266  17.434  0.00  0.00    +0.000 C 
ATOM      3  O   UNL     1       3.905   7.422  17.298  0.00  0.00    +0.000 OA
ATOM      4  N   UNL     1       5.497   5.829  16.906  0.00  0.00    +0.000 N 
ATOM      5  C   UNL     1       6.008   4.490  16.795  0.00  0.00    +0.000 C 
ATOM      6  C   UNL     1       6.980   4.586  15.649  0.00  0.00    +0.000 C 
ATOM      7  O   UNL     1       7.359   5.965  15.550  0.00  0.00    +0.000 OA
ATOM      8  C   UNL     1       6.489   6.753  16.398  0.00  0.00    +0.000 C 
BRANCH   2  12
ATOM      9  C   UNL     1       1.876   3.492  19.686  0.00  0.00    +0.000 A 
ATOM     10  C   UNL     1       3.074   3.981  20.214  0.00  0.00    +0.000 A 
ATOM     11  C   UNL     1       3.851   4.901  19.491  0.00  0.00    +0.000 A 
ATOM     12  C   UNL     1       3.445   5.319  18.221  0.00  0.00    +0.000 A 
ATOM     13  C   UNL     1       2.292   4.754  17.671  0.00  0.00    +0.000 A 
ATOM     14  C   UNL     1       1.491   3.881  18.407  0.00  0.00    +0.000 A 
BRANCH   9  16
ATOM     15  C   UNL     1       1.465   2.661  21.863  0.00  0.00    +0.000 C 
ATOM     16  O   UNL     1       1.189   2.603  20.466  0.00  0.00    +0.000 OA
ENDBRANCH   9  16
ENDBRANCH   2  12
ENDBRANCH   1   8
BRANCH   1  17
ATOM     17  N   UNL     1       7.717   8.727  17.380  0.00  0.00    +0.000 N 
ATOM     18  C   UNL     1       8.515   9.402  18.271  0.00  0.00    +0.000 C 
ATOM     19  O   UNL     1       9.011   8.934  19.286  0.00  0.00    +0.000 OA
ATOM     20  H   UNL     1       7.285   9.279  16.642  0.00  0.00    +0.000 HD
BRANCH  18  21
ATOM     21  C   UNL     1       8.797  10.866  17.867  0.00  0.00    +0.000 C 
ATOM     22  O   UNL     1       7.884  11.595  17.503  0.00  0.00    +0.000 OA
ATOM     23  N   UNL     1      10.123  11.220  17.954  0.00  0.00    +0.000 N 
ATOM     24  H   UNL     1      10.781  10.507  18.257  0.00  0.00    +0.000 HD
BRANCH  23  25
ATOM     25  C   UNL     1      10.618  12.534  17.616  0.00  0.00    +0.000 C 
BRANCH  25  26
ATOM     26  C   UNL     1      10.429  13.516  18.748  0.00  0.00    +0.000 A 
ATOM     27  C   UNL     1      10.769  13.163  20.053  0.00  0.00    +0.000 A 
ATOM     28  C   UNL     1      10.594  14.099  21.071  0.00  0.00    +0.000 A 
ATOM     29  C   UNL     1      10.071  15.350  20.765  0.00  0.00    +0.000 A 
ATOM     30  C   UNL     1       9.739  15.614  19.448  0.00  0.00    +0.000 A 
ATOM     31  N   UNL     1       9.903  14.729  18.438  0.00  0.00    +0.000 NA
ENDBRANCH  25  26
ENDBRANCH  23  25
ENDBRANCH  18  21
ENDBRANCH   1  17
TORSDOF 7
ENDMDL
MODEL 4
REMARK VINA RESULT:      -7.8      3.887      5.127
REMARK  Name = 
REMARK  8 active torsions:
REMARK  status: ('A' for Active; 'I' for Inactive)
REMARK    1  A    between atoms: C_1  and  O_2
REMARK    2  A    between atoms: O_2  and  C_3
REMARK    3  A    between atoms: C_6  and  C_7
REMARK    4  A    between atoms: C_13  and  C_14
REMARK    5  A    between atoms: C_14  and  N_15
REMARK    6  A    between atoms: C_16  and  C_18
REMARK    7  A    between atoms: N_20  and  C_21
REMARK    8  A    between atoms: C_21  and  C_22
REMARK                            x       y       z     vdW  Elec       q    Type
REMARK                         _______ _______ _______ _____ _____    ______ ____
ROOT
ATOM      1  C   UNL     1       5.796   4.411  19.163  0.00  0.00    +0.000 C 
ENDROOT
BRANCH   1   8
ATOM      2  C   UNL     1       3.217   6.103  18.153  0.00  0.00    +0.000 C 
ATOM      3  O   UNL     1       3.649   6.064  17.006  0.00  0.00    +0.000 OA
ATOM      4  N   UNL     1       3.413   5.064  19.048  0.00  0.00    +0.000 N 
ATOM      5  C   UNL     1       2.819   4.853  20.340  0.00  0.00    +0.000 C 
ATOM      6  C   UNL     1       2.915   3.362  20.524  0.00  0.00    +0.000 C 
ATOM      7  O   UNL     1       3.970   2.911  19.664  0.00  0.00    +0.000 OA
ATOM      8  C   UNL     1       4.353   3.995  18.784  0.00  0.00    +0.000 C 
BRANCH   2  12
ATOM      9  C   UNL     1       1.148   9.663  19.443  0.00  0.00    +0.000 A 
ATOM     10  C   UNL     1       1.680   9.579  18.153  0.00  0.00    +0.000 A 
ATOM     11  C   UNL     1       2.335   8.412  17.725  0.00  0.00    +0.000 A 
ATOM     12  C   UNL     1       2.484   7.329  18.595  0.00  0.00    +0.000 A 
ATOM     13  C   UNL     1       2.024   7.462  19.908  0.00  0.00    +0.000 A 
ATOM     14  C   UNL     1       1.327   8.598  20.320  0.00  0.00    +0.000 A 
BRANCH   9  16
ATOM     15  C   UNL     1      -0.876  10.753  20.002  0.00  0.00    +0.000 C 
ATOM     16  O   UNL     1       0.527  10.838  19.765  0.00  0.00    +0.000 OA
ENDBRANCH   9  16
ENDBRANCH   2  12
ENDBRANCH   1   8
BRANCH   1  17
ATOM     17  N   UNL     1       6.297   5.567  18.438  0.00  0.00    +0.000 N 
ATOM     18  C   UNL     1       7.490   6.176  18.739  0.00  0.00    +0.000 C 
ATOM     19  O   UNL     1       8.263   5.841  19.625  0.00  0.00    +0.000 OA
ATOM     20  H   UNL     1       5.708   6.027  17.747  0.00  0.00    +0.000 HD
BRANCH  18  21
ATOM     21  C   UNL     1       7.838   7.357  17.805  0.00  0.00    +0.000 C 
ATOM     22  O   UNL     1       7.810   7.215  16.591  0.00  0.00    +0.000 OA
ATOM     23  N   UNL     1       8.170   8.513  18.473  0.00  0.00    +0.000 N 
ATOM     24  H   UNL     1       8.167   8.486  19.489  0.00  0.00    +0.000 HD
BRANCH  23  25
ATOM     25  C   UNL     1       8.538   9.738  17.804  0.00  0.00    +0.000 C 
BRANCH  25  26
ATOM     26  C   UNL     1       9.492  10.568  18.630  0.00  0.00    +0.000 A 
ATOM     27  C   UNL     1       9.290  10.718  20.002  0.00  0.00    +0.000 A 
ATOM     28  C   UNL     1      10.198  11.481  20.736  0.00  0.00    +0.000 A 
ATOM     29  C   UNL     1      11.266  12.085  20.084  0.00  0.00    +0.000 A 
ATOM     30  C   UNL     1      11.383  11.904  18.717  0.00  0.00    +0.000 A 
ATOM     31  N   UNL     1      10.523  11.165  17.979  0.00  0.00    +0.000 NA
ENDBRANCH  25  26
ENDBRANCH  23  25
ENDBRANCH  18  21
ENDBRANCH   1  17
TORSDOF 7
ENDMDL
MODEL 5
REMARK VINA RESULT:      -7.6      3.515      4.862
REMARK  Name = 
REMARK  8 active torsions:
REMARK  status: ('A' for Active; 'I' for Inactive)
REMARK    1  A    between atoms: C_1  and  O_2
REMARK    2  A    between atoms: O_2  and  C_3
REMARK    3  A    between atoms: C_6  and  C_7
REMARK    4  A    between atoms: C_13  and  C_14
REMARK    5  A    between atoms: C_14  and  N_15
REMARK    6  A    between atoms: C_16  and  C_18
REMARK    7  A    between atoms: N_20  and  C_21
REMARK    8  A    between atoms: C_21  and  C_22
REMARK                            x       y       z     vdW  Elec       q    Type
REMARK                         _______ _______ _______ _____ _____    ______ ____
ROOT
ATOM      1  C   UNL     1       5.410   4.011  19.280  0.00  0.00    +0.000 C 
ENDROOT
BRANCH   1   8
ATOM      2  C   UNL     1       2.918   5.907  18.424  0.00  0.00    +0.000 C 
ATOM      3  O   UNL     1       3.259   5.812  17.249  0.00  0.00    +0.000 OA
ATOM      4  N   UNL     1       3.089   4.867  19.324  0.00  0.00    +0.000 N 
ATOM      5  C   UNL     1       2.577   4.728  20.660  0.00  0.00    +0.000 C 
ATOM      6  C   UNL     1       2.557   3.237  20.867  0.00  0.00    +0.000 C 
ATOM      7  O   UNL     1       3.503   2.684  19.943  0.00  0.00    +0.000 OA
ATOM      8  C   UNL     1       3.912   3.717  19.015  0.00  0.00    +0.000 C 
BRANCH   2  12
ATOM      9  C   UNL     1       1.165   9.613  19.766  0.00  0.00    +0.000 A 
ATOM     10  C   UNL     1       1.329   8.544  20.651  0.00  0.00    +0.000 A 
ATOM     11  C   UNL     1       1.920   7.344  20.221  0.00  0.00    +0.000 A 
ATOM     12  C   UNL     1       2.328   7.198  18.892  0.00  0.00    +0.000 A 
ATOM     13  C   UNL     1       2.077   8.244  18.000  0.00  0.00    +0.000 A 
ATOM     14  C   UNL     1       1.540   9.455  18.436  0.00  0.00    +0.000 A 
BRANCH   9  16
ATOM     15  C   UNL     1       0.770  11.934  19.525  0.00  0.00    +0.000 C 
ATOM     16  O   UNL     1       0.583  10.739  20.279  0.00  0.00    +0.000 OA
ENDBRANCH   9  16
ENDBRANCH   2  12
ENDBRANCH   1   8
BRANCH   1  17
ATOM     17  N   UNL     1       5.969   5.067  18.454  0.00  0.00    +0.000 N 
ATOM     18  C   UNL     1       7.114   5.748  18.787  0.00  0.00    +0.000 C 
ATOM     19  O   UNL     1       7.792   5.564  19.787  0.00  0.00    +0.000 OA
ATOM     20  H   UNL     1       5.450   5.408  17.646  0.00  0.00    +0.000 HD
BRANCH  18  21
ATOM     21  C   UNL     1       7.542   6.796  17.735  0.00  0.00    +0.000 C 
ATOM     22  O   UNL     1       7.552   6.511  16.545  0.00  0.00    +0.000 OA
ATOM     23  N   UNL     1       7.897   8.010  18.275  0.00  0.00    +0.000 N 
ATOM     24  H   UNL     1       7.858   8.104  19.286  0.00  0.00    +0.000 HD
BRANCH  23  25
ATOM     25  C   UNL     1       8.339   9.132  17.482  0.00  0.00    +0.000 C 
BRANCH  25  26
ATOM     26  C   UNL     1       8.792  10.289  18.342  0.00  0.00    +0.000 A 
ATOM     27  C   UNL     1       9.281  10.062  19.628  0.00  0.00    +0.000 A 
ATOM     28  C   UNL     1       9.702  11.151  20.389  0.00  0.00    +0.000 A 
ATOM     29  C   UNL     1       9.608  12.432  19.858  0.00  0.00    +0.000 A 
ATOM     30  C   UNL     1       9.092  12.573  18.582  0.00  0.00    +0.000 A 
ATOM     31  N   UNL     1       8.681  11.536  17.818  0.00  0.00    +0.000 NA
ENDBRANCH  25  26
ENDBRANCH  23  25
ENDBRANCH  18  21
ENDBRANCH   1  17
TORSDOF 7
ENDMDL
MODEL 6
REMARK VINA RESULT:      -7.6      3.032      7.772
REMARK  Name = 
REMARK  8 active torsions:
REMARK  status: ('A' for Active; 'I' for Inactive)
REMARK    1  A    between atoms: C_1  and  O_2
REMARK    2  A    between atoms: O_2  and  C_3
REMARK    3  A    between atoms: C_6  and  C_7
REMARK    4  A    between atoms: C_13  and  C_14
REMARK    5  A    between atoms: C_14  and  N_15
REMARK    6  A    between atoms: C_16  and  C_18
REMARK    7  A    between atoms: N_20  and  C_21
REMARK    8  A    between atoms: C_21  and  C_22
REMARK                            x       y       z     vdW  Elec       q    Type
REMARK                         _______ _______ _______ _____ _____    ______ ____
ROOT
ATOM      1  C   UNL     1       2.383   5.095  20.813  0.00  0.00    +0.000 C 
ENDROOT
BRANCH   1   8
ATOM      2  C   UNL     1       4.640   3.747  18.910  0.00  0.00    +0.000 C 
ATOM      3  O   UNL     1       5.269   3.408  19.908  0.00  0.00    +0.000 OA
ATOM      4  N   UNL     1       3.256   3.797  18.896  0.00  0.00    +0.000 N 
ATOM      5  C   UNL     1       2.364   3.973  17.783  0.00  0.00    +0.000 C 
ATOM      6  C   UNL     1       1.084   3.342  18.264  0.00  0.00    +0.000 C 
ATOM      7  O   UNL     1       1.138   3.351  19.696  0.00  0.00    +0.000 OA
ATOM      8  C   UNL     1       2.476   3.716  20.114  0.00  0.00    +0.000 C 
BRANCH   2  12
ATOM      9  C   UNL     1       6.830   4.941  15.390  0.00  0.00    +0.000 A 
ATOM     10  C   UNL     1       7.397   5.082  16.660  0.00  0.00    +0.000 A 
ATOM     11  C   UNL     1       6.693   4.673  17.805  0.00  0.00    +0.000 A 
ATOM     12  C   UNL     1       5.405   4.143  17.688  0.00  0.00    +0.000 A 
ATOM     13  C   UNL     1       4.820   4.091  16.421  0.00  0.00    +0.000 A 
ATOM     14  C   UNL     1       5.535   4.446  15.277  0.00  0.00    +0.000 A 
BRANCH   9  16
ATOM     15  C   UNL     1       7.249   4.824  13.064  0.00  0.00    +0.000 C 
ATOM     16  O   UNL     1       7.594   5.364  14.337  0.00  0.00    +0.000 OA
ENDBRANCH   9  16
ENDBRANCH   2  12
ENDBRANCH   1   8
BRANCH   1  17
ATOM     17  N   UNL     1       2.183   6.214  19.909  0.00  0.00    +0.000 N 
ATOM     18  C   UNL     1       1.732   7.441  20.329  0.00  0.00    +0.000 C 
ATOM     19  O   UNL     1       1.447   7.745  21.478  0.00  0.00    +0.000 OA
ATOM     20  H   UNL     1       2.271   6.076  18.904  0.00  0.00    +0.000 HD
BRANCH  18  21
ATOM     21  C   UNL     1       1.639   8.489  19.197  0.00  0.00    +0.000 C 
ATOM     22  O   UNL     1       2.380   8.419  18.226  0.00  0.00    +0.000 OA
ATOM     23  N   UNL     1       0.685   9.456  19.413  0.00  0.00    +0.000 N 
ATOM     24  H   UNL     1       0.149   9.402  20.275  0.00  0.00    +0.000 HD
BRANCH  23  25
ATOM     25  C   UNL     1       0.431  10.540  18.494  0.00  0.00    +0.000 C 
BRANCH  25  26
ATOM     26  C   UNL     1      -1.045  10.724  18.232  0.00  0.00    +0.000 A 
ATOM     27  C   UNL     1      -1.683   9.982  17.238  0.00  0.00    +0.000 A 
ATOM     28  C   UNL     1      -3.049  10.168  17.031  0.00  0.00    +0.000 A 
ATOM     29  C   UNL     1      -3.736  11.097  17.805  0.00  0.00    +0.000 A 
ATOM     30  C   UNL     1      -3.025  11.808  18.755  0.00  0.00    +0.000 A 
ATOM     31  N   UNL     1      -1.701  11.645  18.983  0.00  0.00    +0.000 NA
ENDBRANCH  25  26
ENDBRANCH  23  25
ENDBRANCH  18  21
ENDBRANCH   1  17
TORSDOF 7
ENDMDL
MODEL 7
REMARK VINA RESULT:      -7.6      3.663      4.983
REMARK  Name = 
REMARK  8 active torsions:
REMARK  status: ('A' for Active; 'I' for Inactive)
REMARK    1  A    between atoms: C_1  and  O_2
REMARK    2  A    between atoms: O_2  and  C_3
REMARK    3  A    between atoms: C_6  and  C_7
REMARK    4  A    between atoms: C_13  and  C_14
REMARK    5  A    between atoms: C_14  and  N_15
REMARK    6  A    between atoms: C_16  and  C_18
REMARK    7  A    between atoms: N_20  and  C_21
REMARK    8  A    between atoms: C_21  and  C_22
REMARK                            x       y       z     vdW  Elec       q    Type
REMARK                         _______ _______ _______ _____ _____    ______ ____
ROOT
ATOM      1  C   UNL     1       5.220   4.601  19.355  0.00  0.00    +0.000 C 
ENDROOT
BRANCH   1   8
ATOM      2  C   UNL     1       2.703   6.496  18.574  0.00  0.00    +0.000 C 
ATOM      3  O   UNL     1       3.132   6.580  17.427  0.00  0.00    +0.000 OA
ATOM      4  N   UNL     1       2.862   5.349  19.335  0.00  0.00    +0.000 N 
ATOM      5  C   UNL     1       2.263   5.005  20.596  0.00  0.00    +0.000 C 
ATOM      6  C   UNL     1       2.304   3.500  20.597  0.00  0.00    +0.000 C 
ATOM      7  O   UNL     1       3.340   3.119  19.683  0.00  0.00    +0.000 OA
ATOM      8  C   UNL     1       3.762   4.287  18.937  0.00  0.00    +0.000 C 
BRANCH   2  12
ATOM      9  C   UNL     1       0.770   9.951  20.288  0.00  0.00    +0.000 A 
ATOM     10  C   UNL     1       1.106   9.926  18.931  0.00  0.00    +0.000 A 
ATOM     11  C   UNL     1       1.716   8.793  18.367  0.00  0.00    +0.000 A 
ATOM     12  C   UNL     1       2.017   7.685  19.165  0.00  0.00    +0.000 A 
ATOM     13  C   UNL     1       1.755   7.761  20.535  0.00  0.00    +0.000 A 
ATOM     14  C   UNL     1       1.101   8.863  21.088  0.00  0.00    +0.000 A 
BRANCH   9  16
ATOM     15  C   UNL     1       0.078  12.160  19.799  0.00  0.00    +0.000 C 
ATOM     16  O   UNL     1       0.178  11.097  20.742  0.00  0.00    +0.000 OA
ENDBRANCH   9  16
ENDBRANCH   2  12
ENDBRANCH   1   8
BRANCH   1  17
ATOM     17  N   UNL     1       5.870   5.618  18.546  0.00  0.00    +0.000 N 
ATOM     18  C   UNL     1       7.208   5.909  18.647  0.00  0.00    +0.000 C 
ATOM     19  O   UNL     1       8.003   5.373  19.405  0.00  0.00    +0.000 OA
ATOM     20  H   UNL     1       5.311   6.225  17.949  0.00  0.00    +0.000 HD
BRANCH  18  21
ATOM     21  C   UNL     1       7.684   6.994  17.655  0.00  0.00    +0.000 C 
ATOM     22  O   UNL     1       7.731   6.758  16.455  0.00  0.00    +0.000 OA
ATOM     23  N   UNL     1       8.036   8.180  18.256  0.00  0.00    +0.000 N 
ATOM     24  H   UNL     1       7.963   8.233  19.268  0.00  0.00    +0.000 HD
BRANCH  23  25
ATOM     25  C   UNL     1       8.518   9.328  17.526  0.00  0.00    +0.000 C 
BRANCH  25  26
ATOM     26  C   UNL     1       8.923  10.455  18.447  0.00  0.00    +0.000 A 
ATOM     27  C   UNL     1       8.920  11.773  17.991  0.00  0.00    +0.000 A 
ATOM     28  C   UNL     1       9.286  12.790  18.872  0.00  0.00    +0.000 A 
ATOM     29  C   UNL     1       9.661  12.465  20.171  0.00  0.00    +0.000 A 
ATOM     30  C   UNL     1       9.657  11.131  20.537  0.00  0.00    +0.000 A 
ATOM     31  N   UNL     1       9.301  10.124  19.708  0.00  0.00    +0.000 NA
ENDBRANCH  25  26
ENDBRANCH  23  25
ENDBRANCH  18  21
ENDBRANCH   1  17
TORSDOF 7
ENDMDL
MODEL 8
REMARK VINA RESULT:      -7.6      2.948      5.808
REMARK  Name = 
REMARK  8 active torsions:
REMARK  status: ('A' for Active; 'I' for Inactive)
REMARK    1  A    between atoms: C_1  and  O_2
REMARK    2  A    between atoms: O_2  and  C_3
REMARK    3  A    between atoms: C_6  and  C_7
REMARK    4  A    between atoms: C_13  and  C_14
REMARK    5  A    between atoms: C_14  and  N_15
REMARK    6  A    between atoms: C_16  and  C_18
REMARK    7  A    between atoms: N_20  and  C_21
REMARK    8  A    between atoms: C_21  and  C_22
REMARK                            x       y       z     vdW  Elec       q    Type
REMARK                         _______ _______ _______ _____ _____    ______ ____
ROOT
ATOM      1  C   UNL     1       1.481   8.742  21.610  0.00  0.00    +0.000 C 
ENDROOT
BRANCH   1   8
ATOM      2  C   UNL     1       0.207  11.043  19.708  0.00  0.00    +0.000 C 
ATOM      3  O   UNL     1       0.239  10.266  18.759  0.00  0.00    +0.000 OA
ATOM      4  N   UNL     1      -0.023  10.610  21.004  0.00  0.00    +0.000 N 
ATOM      5  C   UNL     1      -0.290  11.382  22.186  0.00  0.00    +0.000 C 
ATOM      6  C   UNL     1      -1.034  10.416  23.069  0.00  0.00    +0.000 C 
ATOM      7  O   UNL     1      -0.685   9.100  22.618  0.00  0.00    +0.000 OA
ATOM      8  C   UNL     1       0.025   9.208  21.361  0.00  0.00    +0.000 C 
BRANCH   2  12
ATOM      9  C   UNL     1       0.935  15.219  18.908  0.00  0.00    +0.000 A 
ATOM     10  C   UNL     1      -0.305  14.645  18.612  0.00  0.00    +0.000 A 
ATOM     11  C   UNL     1      -0.550  13.291  18.892  0.00  0.00    +0.000 A 
ATOM     12  C   UNL     1       0.455  12.494  19.448  0.00  0.00    +0.000 A 
ATOM     13  C   UNL     1       1.715  13.061  19.655  0.00  0.00    +0.000 A 
ATOM     14  C   UNL     1       1.945  14.418  19.428  0.00  0.00    +0.000 A 
BRANCH   9  16
ATOM     15  C   UNL     1       1.563  17.376  19.650  0.00  0.00    +0.000 C 
ATOM     16  O   UNL     1       1.076  16.545  18.601  0.00  0.00    +0.000 OA
ENDBRANCH   9  16
ENDBRANCH   2  12
ENDBRANCH   1   8
BRANCH   1  17
ATOM     17  N   UNL     1       1.834   7.496  20.950  0.00  0.00    +0.000 N 
ATOM     18  C   UNL     1       2.229   7.434  19.636  0.00  0.00    +0.000 C 
ATOM     19  O   UNL     1       2.332   8.384  18.873  0.00  0.00    +0.000 OA
ATOM     20  H   UNL     1       1.686   6.609  21.427  0.00  0.00    +0.000 HD
BRANCH  18  21
ATOM     21  C   UNL     1       2.596   6.009  19.164  0.00  0.00    +0.000 C 
ATOM     22  O   UNL     1       1.864   5.405  18.392  0.00  0.00    +0.000 OA
ATOM     23  N   UNL     1       3.771   5.533  19.698  0.00  0.00    +0.000 N 
ATOM     24  H   UNL     1       4.272   6.138  20.343  0.00  0.00    +0.000 HD
BRANCH  23  25
ATOM     25  C   UNL     1       4.303   4.224  19.405  0.00  0.00    +0.000 C 
BRANCH  25  26
ATOM     26  C   UNL     1       5.253   4.250  18.231  0.00  0.00    +0.000 A 
ATOM     27  C   UNL     1       4.801   3.925  16.952  0.00  0.00    +0.000 A 
ATOM     28  C   UNL     1       5.702   3.971  15.889  0.00  0.00    +0.000 A 
ATOM     29  C   UNL     1       7.026   4.321  16.130  0.00  0.00    +0.000 A 
ATOM     30  C   UNL     1       7.398   4.607  17.432  0.00  0.00    +0.000 A 
ATOM     31  N   UNL     1       6.546   4.577  18.482  0.00  0.00    +0.000 NA
ENDBRANCH  25  26
ENDBRANCH  23  25
ENDBRANCH  18  21
ENDBRANCH   1  17
TORSDOF 7
ENDMDL
MODEL 9
REMARK VINA RESULT:      -7.5      5.300     10.616
REMARK  Name = 
REMARK  8 active torsions:
REMARK  status: ('A' for Active; 'I' for Inactive)
REMARK    1  A    between atoms: C_1  and  O_2
REMARK    2  A    between atoms: O_2  and  C_3
REMARK    3  A    between atoms: C_6  and  C_7
REMARK    4  A    between atoms: C_13  and  C_14
REMARK    5  A    between atoms: C_14  and  N_15
REMARK    6  A    between atoms: C_16  and  C_18
REMARK    7  A    between atoms: N_20  and  C_21
REMARK    8  A    between atoms: C_21  and  C_22
REMARK                            x       y       z     vdW  Elec       q    Type
REMARK                         _______ _______ _______ _____ _____    ______ ____
ROOT
ATOM      1  C   UNL     1      -0.142   9.955  18.320  0.00  0.00    +0.000 C 
ENDROOT
BRANCH   1   8
ATOM      2  C   UNL     1       2.365   7.895  18.385  0.00  0.00    +0.000 C 
ATOM      3  O   UNL     1       2.810   8.415  17.368  0.00  0.00    +0.000 OA
ATOM      4  N   UNL     1       1.675   8.623  19.341  0.00  0.00    +0.000 N 
ATOM      5  C   UNL     1       1.266   8.231  20.663  0.00  0.00    +0.000 C 
ATOM      6  C   UNL     1       1.147   9.544  21.390  0.00  0.00    +0.000 C 
ATOM      7  O   UNL     1       0.958  10.550  20.388  0.00  0.00    +0.000 OA
ATOM      8  C   UNL     1       1.205   9.968  19.085  0.00  0.00    +0.000 C 
BRANCH   2  12
ATOM      9  C   UNL     1       2.879   3.652  18.972  0.00  0.00    +0.000 A 
ATOM     10  C   UNL     1       1.784   4.141  18.255  0.00  0.00    +0.000 A 
ATOM     11  C   UNL     1       1.627   5.522  18.044  0.00  0.00    +0.000 A 
ATOM     12  C   UNL     1       2.554   6.424  18.574  0.00  0.00    +0.000 A 
ATOM     13  C   UNL     1       3.594   5.924  19.362  0.00  0.00    +0.000 A 
ATOM     14  C   UNL     1       3.782   4.552  19.528  0.00  0.00    +0.000 A 
BRANCH   9  16
ATOM     15  C   UNL     1       3.633   1.590  18.090  0.00  0.00    +0.000 C 
ATOM     16  O   UNL     1       2.946   2.294  19.121  0.00  0.00    +0.000 OA
ENDBRANCH   9  16
ENDBRANCH   2  12
ENDBRANCH   1   8
BRANCH   1  17
ATOM     17  N   UNL     1      -1.240  10.588  19.030  0.00  0.00    +0.000 N 
ATOM     18  C   UNL     1      -1.688  11.853  18.737  0.00  0.00    +0.000 C 
ATOM     19  O   UNL     1      -1.239  12.589  17.871  0.00  0.00    +0.000 OA
ATOM     20  H   UNL     1      -1.639  10.139  19.853  0.00  0.00    +0.000 HD
BRANCH  18  21
ATOM     21  C   UNL     1      -2.896  12.299  19.593  0.00  0.00    +0.000 C 
ATOM     22  O   UNL     1      -2.751  12.557  20.780  0.00  0.00    +0.000 OA
ATOM     23  N   UNL     1      -4.080  12.354  18.896  0.00  0.00    +0.000 N 
ATOM     24  H   UNL     1      -4.059  12.096  17.913  0.00  0.00    +0.000 HD
BRANCH  23  25
ATOM     25  C   UNL     1      -5.336  12.736  19.495  0.00  0.00    +0.000 C 
BRANCH  25  26
ATOM     26  C   UNL     1      -6.193  11.536  19.824  0.00  0.00    +0.000 A 
ATOM     27  C   UNL     1      -6.268  10.460  18.940  0.00  0.00    +0.000 A 
ATOM     28  C   UNL     1      -7.058   9.363  19.281  0.00  0.00    +0.000 A 
ATOM     29  C   UNL     1      -7.763   9.376  20.479  0.00  0.00    +0.000 A 
ATOM     30  C   UNL     1      -7.652  10.492  21.290  0.00  0.00    +0.000 A 
ATOM     31  N   UNL     1      -6.888  11.567  20.989  0.00  0.00    +0.000 NA
ENDBRANCH  25  26
ENDBRANCH  23  25
ENDBRANCH  18  21
ENDBRANCH   1  17
TORSDOF 7
ENDMDL
