MODEL 1
REMARK VINA RESULT:      -7.7      0.000      0.000
REMARK  Name = 
REMARK  8 active torsions:
REMARK  status: ('A' for Active; 'I' for Inactive)
REMARK    1  A    between atoms: C_1  and  C_20
REMARK    2  A    between atoms: C_2  and  C_3
REMARK    3  A    between atoms: C_8  and  O_9
REMARK    4  A    between atoms: O_9  and  C_10
REMARK    5  A    between atoms: C_10  and  C_11
REMARK    6  A    between atoms: C_11  and  C_12
REMARK    7  A    between atoms: C_12  and  C_13
REMARK    8  A    between atoms: C_13  and  N_14
REMARK                            x       y       z     vdW  Elec       q    Type
REMARK                         _______ _______ _______ _____ _____    ______ ____
ROOT
ATOM      1  C   UNL     1       5.321   4.566  16.265  0.00  0.00    +0.000 A 
ATOM      2  C   UNL     1       5.282   3.777  15.095  0.00  0.00    +0.000 A 
ATOM      3  C   UNL     1       6.184   3.969  14.052  0.00  0.00    +0.000 A 
ATOM      4  C   UNL     1       7.172   4.932  14.171  0.00  0.00    +0.000 A 
ATOM      5  C   UNL     1       7.222   5.733  15.311  0.00  0.00    +0.000 A 
ATOM      6  C   UNL     1       6.276   5.597  16.350  0.00  0.00    +0.000 A 
ENDROOT
BRANCH   1   8
ATOM      7  C   UNL     1       3.170   4.488  17.596  0.00  0.00    +0.000 C 
ATOM      8  C   UNL     1       4.437   4.116  17.358  0.00  0.00    +0.000 C 
BRANCH   7   9
ATOM      9  C   UNL     1       2.426   4.077  18.802  0.00  0.00    +0.000 A 
ATOM     10  C   UNL     1       2.878   4.524  20.050  0.00  0.00    +0.000 A 
ATOM     11  C   UNL     1       2.260   4.100  21.230  0.00  0.00    +0.000 A 
ATOM     12  C   UNL     1       1.172   3.231  21.178  0.00  0.00    +0.000 A 
ATOM     13  C   UNL     1       0.683   2.809  19.944  0.00  0.00    +0.000 A 
ATOM     14  C   UNL     1       1.298   3.241  18.764  0.00  0.00    +0.000 A 
ENDBRANCH   7   9
ENDBRANCH   1   8
BRANCH   6  15
ATOM     15  O   UNL     1       6.265   6.432  17.453  0.00  0.00    +0.000 OA
BRANCH  15  16
ATOM     16  C   UNL     1       7.556   6.928  17.813  0.00  0.00    +0.000 C 
BRANCH  16  17
ATOM     17  C   UNL     1       7.723   8.425  17.560  0.00  0.00    +0.000 C 
BRANCH  17  18
ATOM     18  C   UNL     1       8.700   9.041  18.586  0.00  0.00    +0.000 C 
BRANCH  18  19
ATOM     19  C   UNL     1       8.956  10.541  18.339  0.00  0.00    +0.000 C 
BRANCH  19  20
ATOM     20  N   UNL     1       9.792  11.210  19.350  0.00  0.00    +0.000 NA
ATOM     21  C   UNL     1       9.321  12.565  19.722  0.00  0.00    +0.000 C 
ATOM     22  C   UNL     1       9.490  13.613  18.608  0.00  0.00    +0.000 C 
ATOM     23  O   UNL     1      10.857  13.709  18.189  0.00  0.00    +0.000 OA
ATOM     24  C   UNL     1      11.357  12.437  17.763  0.00  0.00    +0.000 C 
ATOM     25  C   UNL     1      11.185  11.357  18.853  0.00  0.00    +0.000 C 
ENDBRANCH  19  20
ENDBRANCH  18  19
ENDBRANCH  17  18
ENDBRANCH  16  17
ENDBRANCH  15  16
ENDBRANCH   6  15
TORSDOF 8
ENDMDL
MODEL 2
REMARK VINA RESULT:      -7.5      5.053      8.717
REMARK  Name = 
REMARK  8 active torsions:
REMARK  status: ('A' for Active; 'I' for Inactive)
REMARK    1  A    between atoms: C_1  and  C_20
REMARK    2  A    between atoms: C_2  and  C_3
REMARK    3  A    between atoms: C_8  and  O_9
REMARK    4  A    between atoms: O_9  and  C_10
REMARK    5  A    between atoms: C_10  and  C_11
REMARK    6  A    between atoms: C_11  and  C_12
REMARK    7  A    between atoms: C_12  and  C_13
REMARK    8  A    between atoms: C_13  and  N_14
REMARK                            x       y       z     vdW  Elec       q    Type
REMARK                         _______ _______ _______ _____ _____    ______ ____
ROOT
ATOM      1  C   UNL     1       2.306   7.856  18.605  0.00  0.00    +0.000 A 
ATOM      2  C   UNL     1       1.841   8.787  17.651  0.00  0.00    +0.000 A 
ATOM      3  C   UNL     1       0.944   9.796  17.990  0.00  0.00    +0.000 A 
ATOM      4  C   UNL     1       0.520   9.922  19.302  0.00  0.00    +0.000 A 
ATOM      5  C   UNL     1       0.955   9.007  20.260  0.00  0.00    +0.000 A 
ATOM      6  C   UNL     1       1.813   7.938  19.921  0.00  0.00    +0.000 A 
ENDROOT
BRANCH   1   8
ATOM      7  C   UNL     1       4.310   7.226  17.194  0.00  0.00    +0.000 C 
ATOM      8  C   UNL     1       3.399   6.976  18.146  0.00  0.00    +0.000 C 
BRANCH   7   9
ATOM      9  C   UNL     1       5.275   6.216  16.720  0.00  0.00    +0.000 A 
ATOM     10  C   UNL     1       6.196   5.691  17.636  0.00  0.00    +0.000 A 
ATOM     11  C   UNL     1       7.184   4.793  17.225  0.00  0.00    +0.000 A 
ATOM     12  C   UNL     1       7.258   4.396  15.891  0.00  0.00    +0.000 A 
ATOM     13  C   UNL     1       6.325   4.874  14.975  0.00  0.00    +0.000 A 
ATOM     14  C   UNL     1       5.331   5.767  15.390  0.00  0.00    +0.000 A 
ENDBRANCH   7   9
ENDBRANCH   1   8
BRANCH   6  15
ATOM     15  O   UNL     1       2.194   6.977  20.842  0.00  0.00    +0.000 OA
BRANCH  15  16
ATOM     16  C   UNL     1       1.644   5.684  20.586  0.00  0.00    +0.000 C 
BRANCH  16  17
ATOM     17  C   UNL     1       2.088   4.625  21.594  0.00  0.00    +0.000 C 
BRANCH  17  18
ATOM     18  C   UNL     1       1.677   3.216  21.113  0.00  0.00    +0.000 C 
BRANCH  18  19
ATOM     19  C   UNL     1       2.794   2.509  20.319  0.00  0.00    +0.000 C 
BRANCH  19  20
ATOM     20  N   UNL     1       2.352   1.806  19.102  0.00  0.00    +0.000 NA
ATOM     21  C   UNL     1       3.433   1.565  18.118  0.00  0.00    +0.000 C 
ATOM     22  C   UNL     1       3.946   2.841  17.428  0.00  0.00    +0.000 C 
ATOM     23  O   UNL     1       2.882   3.538  16.769  0.00  0.00    +0.000 OA
ATOM     24  C   UNL     1       1.826   3.851  17.682  0.00  0.00    +0.000 C 
ATOM     25  C   UNL     1       1.300   2.593  18.407  0.00  0.00    +0.000 C 
ENDBRANCH  19  20
ENDBRANCH  18  19
ENDBRANCH  17  18
ENDBRANCH  16  17
ENDBRANCH  15  16
ENDBRANCH   6  15
TORSDOF 8
ENDMDL
MODEL 3
REMARK VINA RESULT:      -7.5      0.917      1.358
REMARK  Name = 
REMARK  8 active torsions:
REMARK  status: ('A' for Active; 'I' for Inactive)
REMARK    1  A    between atoms: C_1  and  C_20
REMARK    2  A    between atoms: C_2  and  C_3
REMARK    3  A    between atoms: C_8  and  O_9
REMARK    4  A    between atoms: O_9  and  C_10
REMARK    5  A    between atoms: C_10  and  C_11
REMARK    6  A    between atoms: C_11  and  C_12
REMARK    7  A    between atoms: C_12  and  C_13
REMARK    8  A    between atoms: C_13  and  N_14
REMARK                            x       y       z     vdW  Elec       q    Type
REMARK                         _______ _______ _______ _____ _____    ______ ____
ROOT
ATOM      1  C   UNL     1       5.214   4.700  16.062  0.00  0.00    +0.000 A 
ATOM      2  C   UNL     1       4.954   4.138  14.793  0.00  0.00    +0.000 A 
ATOM      3  C   UNL     1       5.930   4.086  13.801  0.00  0.00    +0.000 A 
ATOM      4  C   UNL     1       7.202   4.562  14.069  0.00  0.00    +0.000 A 
ATOM      5  C   UNL     1       7.480   5.134  15.310  0.00  0.00    +0.000 A 
ATOM      6  C   UNL     1       6.486   5.255  16.304  0.00  0.00    +0.000 A 
ENDROOT
BRANCH   1   8
ATOM      7  C   UNL     1       4.268   3.963  18.289  0.00  0.00    +0.000 C 
ATOM      8  C   UNL     1       4.152   4.504  17.067  0.00  0.00    +0.000 C 
BRANCH   7   9
ATOM      9  C   UNL     1       3.108   3.689  19.160  0.00  0.00    +0.000 A 
ATOM     10  C   UNL     1       3.114   4.208  20.461  0.00  0.00    +0.000 A 
ATOM     11  C   UNL     1       2.081   3.913  21.355  0.00  0.00    +0.000 A 
ATOM     12  C   UNL     1       1.020   3.103  20.956  0.00  0.00    +0.000 A 
ATOM     13  C   UNL     1       0.976   2.613  19.653  0.00  0.00    +0.000 A 
ATOM     14  C   UNL     1       2.007   2.916  18.757  0.00  0.00    +0.000 A 
ENDBRANCH   7   9
ENDBRANCH   1   8
BRANCH   6  15
ATOM     15  O   UNL     1       6.722   5.887  17.513  0.00  0.00    +0.000 OA
BRANCH  15  16
ATOM     16  C   UNL     1       6.862   7.305  17.404  0.00  0.00    +0.000 C 
BRANCH  16  17
ATOM     17  C   UNL     1       8.088   7.851  18.131  0.00  0.00    +0.000 C 
BRANCH  17  18
ATOM     18  C   UNL     1       8.248   9.364  17.859  0.00  0.00    +0.000 C 
BRANCH  18  19
ATOM     19  C   UNL     1       9.100  10.074  18.930  0.00  0.00    +0.000 C 
BRANCH  19  20
ATOM     20  N   UNL     1       9.359  11.503  18.679  0.00  0.00    +0.000 NA
ATOM     21  C   UNL     1      10.588  11.765  17.893  0.00  0.00    +0.000 C 
ATOM     22  C   UNL     1      11.892  11.462  18.652  0.00  0.00    +0.000 C 
ATOM     23  O   UNL     1      11.967  12.211  19.872  0.00  0.00    +0.000 OA
ATOM     24  C   UNL     1      10.831  11.958  20.704  0.00  0.00    +0.000 C 
ATOM     25  C   UNL     1       9.504  12.234  19.966  0.00  0.00    +0.000 C 
ENDBRANCH  19  20
ENDBRANCH  18  19
ENDBRANCH  17  18
ENDBRANCH  16  17
ENDBRANCH  15  16
ENDBRANCH   6  15
TORSDOF 8
ENDMDL
MODEL 4
REMARK VINA RESULT:      -7.5      2.724      3.335
REMARK  Name = 
REMARK  8 active torsions:
REMARK  status: ('A' for Active; 'I' for Inactive)
REMARK    1  A    between atoms: C_1  and  C_20
REMARK    2  A    between atoms: C_2  and  C_3
REMARK    3  A    between atoms: C_8  and  O_9
REMARK    4  A    between atoms: O_9  and  C_10
REMARK    5  A    between atoms: C_10  and  C_11
REMARK    6  A    between atoms: C_11  and  C_12
REMARK    7  A    between atoms: C_12  and  C_13
REMARK    8  A    between atoms: C_13  and  N_14
REMARK                            x       y       z     vdW  Elec       q    Type
REMARK                         _______ _______ _______ _____ _____    ______ ____
ROOT
ATOM      1  C   UNL     1       4.805   6.101  17.012  0.00  0.00    +0.000 A 
ATOM      2  C   UNL     1       4.232   4.817  16.886  0.00  0.00    +0.000 A 
ATOM      3  C   UNL     1       4.957   3.737  16.388  0.00  0.00    +0.000 A 
ATOM      4  C   UNL     1       6.286   3.910  16.038  0.00  0.00    +0.000 A 
ATOM      5  C   UNL     1       6.870   5.171  16.140  0.00  0.00    +0.000 A 
ATOM      6  C   UNL     1       6.132   6.291  16.581  0.00  0.00    +0.000 A 
ENDROOT
BRANCH   1   8
ATOM      7  C   UNL     1       2.772   6.906  18.286  0.00  0.00    +0.000 C 
ATOM      8  C   UNL     1       3.983   7.089  17.737  0.00  0.00    +0.000 C 
BRANCH   7   9
ATOM      9  C   UNL     1       1.980   8.005  18.870  0.00  0.00    +0.000 A 
ATOM     10  C   UNL     1       1.619   9.079  18.045  0.00  0.00    +0.000 A 
ATOM     11  C   UNL     1       0.940  10.185  18.563  0.00  0.00    +0.000 A 
ATOM     12  C   UNL     1       0.601  10.227  19.914  0.00  0.00    +0.000 A 
ATOM     13  C   UNL     1       0.914   9.151  20.740  0.00  0.00    +0.000 A 
ATOM     14  C   UNL     1       1.587   8.041  20.218  0.00  0.00    +0.000 A 
ENDBRANCH   7   9
ENDBRANCH   1   8
BRANCH   6  15
ATOM     15  O   UNL     1       6.673   7.564  16.618  0.00  0.00    +0.000 OA
BRANCH  15  16
ATOM     16  C   UNL     1       7.571   7.777  17.709  0.00  0.00    +0.000 C 
BRANCH  16  17
ATOM     17  C   UNL     1       8.243   9.149  17.682  0.00  0.00    +0.000 C 
BRANCH  17  18
ATOM     18  C   UNL     1       8.990   9.410  19.010  0.00  0.00    +0.000 C 
BRANCH  18  19
ATOM     19  C   UNL     1       9.424  10.881  19.169  0.00  0.00    +0.000 C 
BRANCH  19  20
ATOM     20  N   UNL     1       9.899  11.532  17.936  0.00  0.00    +0.000 NA
ATOM     21  C   UNL     1      11.355  11.805  17.920  0.00  0.00    +0.000 C 
ATOM     22  C   UNL     1      11.796  12.906  18.901  0.00  0.00    +0.000 C 
ATOM     23  O   UNL     1      11.103  14.134  18.647  0.00  0.00    +0.000 OA
ATOM     24  C   UNL     1       9.685  13.949  18.704  0.00  0.00    +0.000 C 
ATOM     25  C   UNL     1       9.211  12.836  17.743  0.00  0.00    +0.000 C 
ENDBRANCH  19  20
ENDBRANCH  18  19
ENDBRANCH  17  18
ENDBRANCH  16  17
ENDBRANCH  15  16
ENDBRANCH   6  15
TORSDOF 8
ENDMDL
MODEL 5
REMARK VINA RESULT:      -7.4      3.057      8.924
REMARK  Name = 
REMARK  8 active torsions:
REMARK  status: ('A' for Active; 'I' for Inactive)
REMARK    1  A    between atoms: C_1  and  C_20
REMARK    2  A    between atoms: C_2  and  C_3
REMARK    3  A    between atoms: C_8  and  O_9
REMARK    4  A    between atoms: O_9  and  C_10
REMARK    5  A    between atoms: C_10  and  C_11
REMARK    6  A    between atoms: C_11  and  C_12
REMARK    7  A    between atoms: C_12  and  C_13
REMARK    8  A    between atoms: C_13  and  N_14
REMARK                            x       y       z     vdW  Elec       q    Type
REMARK                         _______ _______ _______ _____ _____    ______ ____
ROOT
ATOM      1  C   UNL     1       6.556   6.893  17.170  0.00  0.00    +0.000 A 
ATOM      2  C   UNL     1       7.442   5.851  16.822  0.00  0.00    +0.000 A 
ATOM      3  C   UNL     1       6.979   4.611  16.390  0.00  0.00    +0.000 A 
ATOM      4  C   UNL     1       5.617   4.397  16.259  0.00  0.00    +0.000 A 
ATOM      5  C   UNL     1       4.722   5.407  16.609  0.00  0.00    +0.000 A 
ATOM      6  C   UNL     1       5.170   6.647  17.112  0.00  0.00    +0.000 A 
ENDROOT
BRANCH   1   8
ATOM      7  C   UNL     1       8.234   8.474  18.214  0.00  0.00    +0.000 C 
ATOM      8  C   UNL     1       7.190   8.203  17.416  0.00  0.00    +0.000 C 
BRANCH   7   9
ATOM      9  C   UNL     1       8.699   9.846  18.490  0.00  0.00    +0.000 A 
ATOM     10  C   UNL     1       8.266  10.880  17.650  0.00  0.00    +0.000 A 
ATOM     11  C   UNL     1       8.739  12.185  17.815  0.00  0.00    +0.000 A 
ATOM     12  C   UNL     1       9.644  12.477  18.833  0.00  0.00    +0.000 A 
ATOM     13  C   UNL     1      10.053  11.471  19.705  0.00  0.00    +0.000 A 
ATOM     14  C   UNL     1       9.573  10.167  19.543  0.00  0.00    +0.000 A 
ENDBRANCH   7   9
ENDBRANCH   1   8
BRANCH   6  15
ATOM     15  O   UNL     1       4.296   7.633  17.535  0.00  0.00    +0.000 OA
BRANCH  15  16
ATOM     16  C   UNL     1       2.977   7.154  17.805  0.00  0.00    +0.000 C 
BRANCH  16  17
ATOM     17  C   UNL     1       2.410   7.656  19.132  0.00  0.00    +0.000 C 
BRANCH  17  18
ATOM     18  C   UNL     1       2.003   6.465  20.029  0.00  0.00    +0.000 C 
BRANCH  18  19
ATOM     19  C   UNL     1       2.207   5.102  19.338  0.00  0.00    +0.000 C 
BRANCH  19  20
ATOM     20  N   UNL     1       2.544   3.986  20.240  0.00  0.00    +0.000 NA
ATOM     21  C   UNL     1       3.741   3.216  19.826  0.00  0.00    +0.000 C 
ATOM     22  C   UNL     1       3.536   2.379  18.551  0.00  0.00    +0.000 C 
ATOM     23  O   UNL     1       2.440   1.467  18.700  0.00  0.00    +0.000 OA
ATOM     24  C   UNL     1       1.236   2.158  19.046  0.00  0.00    +0.000 C 
ATOM     25  C   UNL     1       1.413   3.024  20.313  0.00  0.00    +0.000 C 
ENDBRANCH  19  20
ENDBRANCH  18  19
ENDBRANCH  17  18
ENDBRANCH  16  17
ENDBRANCH  15  16
ENDBRANCH   6  15
TORSDOF 8
ENDMDL
MODEL 6
REMARK VINA RESULT:      -7.4      3.082      8.738
REMARK  Name = 
REMARK  8 active torsions:
REMARK  status: ('A' for Active; 'I' for Inactive)
REMARK    1  A    between atoms: C_1  and  C_20
REMARK    2  A    between atoms: C_2  and  C_3
REMARK    3  A    between atoms: C_8  and  O_9
REMARK    4  A    between atoms: O_9  and  C_10
REMARK    5  A    between atoms: C_10  and  C_11
REMARK    6  A    between atoms: C_11  and  C_12
REMARK    7  A    between atoms: C_12  and  C_13
REMARK    8  A    between atoms: C_13  and  N_14
REMARK                            x       y       z     vdW  Elec       q    Type
REMARK                         _______ _______ _______ _____ _____    ______ ____
ROOT
ATOM      1  C   UNL     1       6.618   6.812  17.177  0.00  0.00    +0.000 A 
ATOM      2  C   UNL     1       7.477   5.771  16.760  0.00  0.00    +0.000 A 
ATOM      3  C   UNL     1       6.984   4.535  16.352  0.00  0.00    +0.000 A 
ATOM      4  C   UNL     1       5.617   4.322  16.315  0.00  0.00    +0.000 A 
ATOM      5  C   UNL     1       4.749   5.330  16.734  0.00  0.00    +0.000 A 
ATOM      6  C   UNL     1       5.232   6.566  17.212  0.00  0.00    +0.000 A 
ENDROOT
BRANCH   1   8
ATOM      7  C   UNL     1       8.250   8.419  18.250  0.00  0.00    +0.000 C 
ATOM      8  C   UNL     1       7.269   8.120  17.386  0.00  0.00    +0.000 C 
BRANCH   7   9
ATOM      9  C   UNL     1       8.732   9.797  18.472  0.00  0.00    +0.000 A 
ATOM     10  C   UNL     1       9.481  10.063  19.626  0.00  0.00    +0.000 A 
ATOM     11  C   UNL     1       9.894  11.364  19.928  0.00  0.00    +0.000 A 
ATOM     12  C   UNL     1       9.572  12.416  19.073  0.00  0.00    +0.000 A 
ATOM     13  C   UNL     1       8.865  12.163  17.901  0.00  0.00    +0.000 A 
ATOM     14  C   UNL     1       8.460  10.860  17.596  0.00  0.00    +0.000 A 
ENDBRANCH   7   9
ENDBRANCH   1   8
BRANCH   6  15
ATOM     15  O   UNL     1       4.389   7.549  17.702  0.00  0.00    +0.000 OA
BRANCH  15  16
ATOM     16  C   UNL     1       3.004   7.205  17.637  0.00  0.00    +0.000 C 
BRANCH  16  17
ATOM     17  C   UNL     1       2.144   7.952  18.654  0.00  0.00    +0.000 C 
BRANCH  17  18
ATOM     18  C   UNL     1       2.131   7.202  20.005  0.00  0.00    +0.000 C 
BRANCH  18  19
ATOM     19  C   UNL     1       2.585   5.734  19.874  0.00  0.00    +0.000 C 
BRANCH  19  20
ATOM     20  N   UNL     1       1.502   4.736  19.904  0.00  0.00    +0.000 NA
ATOM     21  C   UNL     1       1.606   3.764  21.017  0.00  0.00    +0.000 C 
ATOM     22  C   UNL     1       2.776   2.774  20.875  0.00  0.00    +0.000 C 
ATOM     23  O   UNL     1       2.692   2.045  19.644  0.00  0.00    +0.000 OA
ATOM     24  C   UNL     1       2.644   2.931  18.521  0.00  0.00    +0.000 C 
ATOM     25  C   UNL     1       1.490   3.951  18.642  0.00  0.00    +0.000 C 
ENDBRANCH  19  20
ENDBRANCH  18  19
ENDBRANCH  17  18
ENDBRANCH  16  17
ENDBRANCH  15  16
ENDBRANCH   6  15
TORSDOF 8
ENDMDL
MODEL 7
REMARK VINA RESULT:      -7.4      0.957      1.161
REMARK  Name = 
REMARK  8 active torsions:
REMARK  status: ('A' for Active; 'I' for Inactive)
REMARK    1  A    between atoms: C_1  and  C_20
REMARK    2  A    between atoms: C_2  and  C_3
REMARK    3  A    between atoms: C_8  and  O_9
REMARK    4  A    between atoms: O_9  and  C_10
REMARK    5  A    between atoms: C_10  and  C_11
REMARK    6  A    between atoms: C_11  and  C_12
REMARK    7  A    between atoms: C_12  and  C_13
REMARK    8  A    between atoms: C_13  and  N_14
REMARK                            x       y       z     vdW  Elec       q    Type
REMARK                         _______ _______ _______ _____ _____    ______ ____
ROOT
ATOM      1  C   UNL     1       5.168   4.897  16.238  0.00  0.00    +0.000 A 
ATOM      2  C   UNL     1       4.999   4.017  15.147  0.00  0.00    +0.000 A 
ATOM      3  C   UNL     1       5.926   3.950  14.110  0.00  0.00    +0.000 A 
ATOM      4  C   UNL     1       7.065   4.736  14.159  0.00  0.00    +0.000 A 
ATOM      5  C   UNL     1       7.248   5.623  15.220  0.00  0.00    +0.000 A 
ATOM      6  C   UNL     1       6.287   5.752  16.246  0.00  0.00    +0.000 A 
ENDROOT
BRANCH   1   8
ATOM      7  C   UNL     1       4.314   3.865  18.385  0.00  0.00    +0.000 C 
ATOM      8  C   UNL     1       4.215   4.712  17.349  0.00  0.00    +0.000 C 
BRANCH   7   9
ATOM      9  C   UNL     1       3.231   3.667  19.367  0.00  0.00    +0.000 A 
ATOM     10  C   UNL     1       3.482   2.855  20.481  0.00  0.00    +0.000 A 
ATOM     11  C   UNL     1       2.469   2.566  21.400  0.00  0.00    +0.000 A 
ATOM     12  C   UNL     1       1.192   3.097  21.224  0.00  0.00    +0.000 A 
ATOM     13  C   UNL     1       0.937   3.941  20.146  0.00  0.00    +0.000 A 
ATOM     14  C   UNL     1       1.954   4.235  19.232  0.00  0.00    +0.000 A 
ENDBRANCH   7   9
ENDBRANCH   1   8
BRANCH   6  15
ATOM     15  O   UNL     1       6.416   6.679  17.266  0.00  0.00    +0.000 OA
BRANCH  15  16
ATOM     16  C   UNL     1       7.424   6.347  18.222  0.00  0.00    +0.000 C 
BRANCH  16  17
ATOM     17  C   UNL     1       8.309   7.530  18.606  0.00  0.00    +0.000 C 
BRANCH  17  18
ATOM     18  C   UNL     1       7.875   8.800  17.840  0.00  0.00    +0.000 C 
BRANCH  18  19
ATOM     19  C   UNL     1       8.972   9.883  17.813  0.00  0.00    +0.000 C 
BRANCH  19  20
ATOM     20  N   UNL     1       8.714  11.059  18.662  0.00  0.00    +0.000 NA
ATOM     21  C   UNL     1       8.831  12.354  17.951  0.00  0.00    +0.000 C 
ATOM     22  C   UNL     1      10.271  12.719  17.549  0.00  0.00    +0.000 C 
ATOM     23  O   UNL     1      11.136  12.750  18.691  0.00  0.00    +0.000 OA
ATOM     24  C   UNL     1      11.111  11.503  19.393  0.00  0.00    +0.000 C 
ATOM     25  C   UNL     1       9.676  11.099  19.795  0.00  0.00    +0.000 C 
ENDBRANCH  19  20
ENDBRANCH  18  19
ENDBRANCH  17  18
ENDBRANCH  16  17
ENDBRANCH  15  16
ENDBRANCH   6  15
TORSDOF 8
ENDMDL
MODEL 8
REMARK VINA RESULT:      -7.3      2.544      3.147
REMARK  Name = 
REMARK  8 active torsions:
REMARK  status: ('A' for Active; 'I' for Inactive)
REMARK    1  A    between atoms: C_1  and  C_20
REMARK    2  A    between atoms: C_2  and  C_3
REMARK    3  A    between atoms: C_8  and  O_9
REMARK    4  A    between atoms: O_9  and  C_10
REMARK    5  A    between atoms: C_10  and  C_11
REMARK    6  A    between atoms: C_11  and  C_12
REMARK    7  A    between atoms: C_12  and  C_13
REMARK    8  A    between atoms: C_13  and  N_14
REMARK                            x       y       z     vdW  Elec       q    Type
REMARK                         _______ _______ _______ _____ _____    ______ ____
ROOT
ATOM      1  C   UNL     1       5.382   6.117  16.554  0.00  0.00    +0.000 A 
ATOM      2  C   UNL     1       5.063   5.638  15.265  0.00  0.00    +0.000 A 
ATOM      3  C   UNL     1       5.811   4.638  14.650  0.00  0.00    +0.000 A 
ATOM      4  C   UNL     1       6.875   4.067  15.327  0.00  0.00    +0.000 A 
ATOM      5  C   UNL     1       7.219   4.533  16.595  0.00  0.00    +0.000 A 
ATOM      6  C   UNL     1       6.512   5.590  17.208  0.00  0.00    +0.000 A 
ENDROOT
BRANCH   1   8
ATOM      7  C   UNL     1       3.568   6.786  18.188  0.00  0.00    +0.000 C 
ATOM      8  C   UNL     1       4.386   7.028  17.152  0.00  0.00    +0.000 C 
BRANCH   7   9
ATOM      9  C   UNL     1       2.512   7.724  18.615  0.00  0.00    +0.000 A 
ATOM     10  C   UNL     1       2.060   8.682  17.697  0.00  0.00    +0.000 A 
ATOM     11  C   UNL     1       1.121   9.646  18.072  0.00  0.00    +0.000 A 
ATOM     12  C   UNL     1       0.611   9.659  19.369  0.00  0.00    +0.000 A 
ATOM     13  C   UNL     1       1.017   8.689  20.282  0.00  0.00    +0.000 A 
ATOM     14  C   UNL     1       1.951   7.719  19.902  0.00  0.00    +0.000 A 
ENDBRANCH   7   9
ENDBRANCH   1   8
BRANCH   6  15
ATOM     15  O   UNL     1       6.884   6.115  18.433  0.00  0.00    +0.000 OA
BRANCH  15  16
ATOM     16  C   UNL     1       7.988   7.021  18.360  0.00  0.00    +0.000 C 
BRANCH  16  17
ATOM     17  C   UNL     1       7.583   8.439  17.963  0.00  0.00    +0.000 C 
BRANCH  17  18
ATOM     18  C   UNL     1       8.833   9.334  17.808  0.00  0.00    +0.000 C 
BRANCH  18  19
ATOM     19  C   UNL     1       9.080  10.229  19.039  0.00  0.00    +0.000 C 
BRANCH  19  20
ATOM     20  N   UNL     1       9.316  11.653  18.742  0.00  0.00    +0.000 NA
ATOM     21  C   UNL     1      10.572  11.915  18.000  0.00  0.00    +0.000 C 
ATOM     22  C   UNL     1      11.848  11.676  18.826  0.00  0.00    +0.000 C 
ATOM     23  O   UNL     1      11.852  12.474  20.017  0.00  0.00    +0.000 OA
ATOM     24  C   UNL     1      10.686  12.225  20.809  0.00  0.00    +0.000 C 
ATOM     25  C   UNL     1       9.386  12.438  20.003  0.00  0.00    +0.000 C 
ENDBRANCH  19  20
ENDBRANCH  18  19
ENDBRANCH  17  18
ENDBRANCH  16  17
ENDBRANCH  15  16
ENDBRANCH   6  15
TORSDOF 8
ENDMDL
MODEL 9
REMARK VINA RESULT:      -7.3      4.063      7.223
REMARK  Name = 
REMARK  8 active torsions:
REMARK  status: ('A' for Active; 'I' for Inactive)
REMARK    1  A    between atoms: C_1  and  C_20
REMARK    2  A    between atoms: C_2  and  C_3
REMARK    3  A    between atoms: C_8  and  O_9
REMARK    4  A    between atoms: O_9  and  C_10
REMARK    5  A    between atoms: C_10  and  C_11
REMARK    6  A    between atoms: C_11  and  C_12
REMARK    7  A    between atoms: C_12  and  C_13
REMARK    8  A    between atoms: C_13  and  N_14
REMARK                            x       y       z     vdW  Elec       q    Type
REMARK                         _______ _______ _______ _____ _____    ______ ____
ROOT
ATOM      1  C   UNL     1       0.610   8.706  20.794  0.00  0.00    +0.000 A 
ATOM      2  C   UNL     1       0.460   9.097  22.142  0.00  0.00    +0.000 A 
ATOM      3  C   UNL     1       0.153  10.408  22.495  0.00  0.00    +0.000 A 
ATOM      4  C   UNL     1      -0.048  11.353  21.503  0.00  0.00    +0.000 A 
ATOM      5  C   UNL     1       0.107  10.995  20.165  0.00  0.00    +0.000 A 
ATOM      6  C   UNL     1       0.482   9.687  19.791  0.00  0.00    +0.000 A 
ENDROOT
BRANCH   1   8
ATOM      7  C   UNL     1       1.749   6.451  20.928  0.00  0.00    +0.000 C 
ATOM      8  C   UNL     1       0.735   7.253  20.569  0.00  0.00    +0.000 C 
BRANCH   7   9
ATOM      9  C   UNL     1       1.831   5.032  20.528  0.00  0.00    +0.000 A 
ATOM     10  C   UNL     1       1.615   4.705  19.183  0.00  0.00    +0.000 A 
ATOM     11  C   UNL     1       1.600   3.371  18.764  0.00  0.00    +0.000 A 
ATOM     12  C   UNL     1       1.813   2.346  19.684  0.00  0.00    +0.000 A 
ATOM     13  C   UNL     1       2.071   2.655  21.017  0.00  0.00    +0.000 A 
ATOM     14  C   UNL     1       2.094   3.991  21.433  0.00  0.00    +0.000 A 
ENDBRANCH   7   9
ENDBRANCH   1   8
BRANCH   6  15
ATOM     15  O   UNL     1       0.714   9.333  18.473  0.00  0.00    +0.000 OA
BRANCH  15  16
ATOM     16  C   UNL     1       2.100   9.232  18.140  0.00  0.00    +0.000 C 
BRANCH  16  17
ATOM     17  C   UNL     1       2.478   7.888  17.521  0.00  0.00    +0.000 C 
BRANCH  17  18
ATOM     18  C   UNL     1       3.884   7.453  17.992  0.00  0.00    +0.000 C 
BRANCH  18  19
ATOM     19  C   UNL     1       4.459   6.291  17.157  0.00  0.00    +0.000 C 
BRANCH  19  20
ATOM     20  N   UNL     1       5.665   6.616  16.377  0.00  0.00    +0.000 NA
ATOM     21  C   UNL     1       6.011   5.604  15.351  0.00  0.00    +0.000 C 
ATOM     22  C   UNL     1       6.511   4.270  15.933  0.00  0.00    +0.000 C 
ATOM     23  O   UNL     1       7.653   4.467  16.776  0.00  0.00    +0.000 OA
ATOM     24  C   UNL     1       7.365   5.396  17.826  0.00  0.00    +0.000 C 
ATOM     25  C   UNL     1       6.843   6.741  17.276  0.00  0.00    +0.000 C 
ENDBRANCH  19  20
ENDBRANCH  18  19
ENDBRANCH  17  18
ENDBRANCH  16  17
ENDBRANCH  15  16
ENDBRANCH   6  15
TORSDOF 8
ENDMDL
