MODEL 1
REMARK VINA RESULT:      -4.7      0.000      0.000
REMARK  Name = 
REMARK  4 active torsions:
REMARK  status: ('A' for Active; 'I' for Inactive)
REMARK    1  A    between atoms: C_2  and  O_3
REMARK    2  A    between atoms: C_2  and  C_4
REMARK    3  A    between atoms: C_4  and  S_5
REMARK    4  A    between atoms: S_5  and  C_6
REMARK                            x       y       z     vdW  Elec       q    Type
REMARK                         _______ _______ _______ _____ _____    ______ ____
ROOT
ATOM      1  S   UNL     1       5.769   5.184  17.357  0.00  0.00    +0.000 S 
ENDROOT
BRANCH   1   2
ATOM      2  C   UNL     1       5.031   3.878  18.236  0.00  0.00    +0.000 A 
ATOM      3  N   UNL     1       3.986   3.135  17.763  0.00  0.00    +0.000 NA
ATOM      4  C   UNL     1       3.775   2.272  18.729  0.00  0.00    +0.000 A 
ATOM      5  N   UNL     1       4.660   2.496  19.736  0.00  0.00    +0.000 N 
ATOM      6  N   UNL     1       5.473   3.522  19.445  0.00  0.00    +0.000 NA
ATOM      7  H   UNL     1       4.768   2.008  20.619  0.00  0.00    +0.000 HD
ENDBRANCH   1   2
BRANCH   1   8
ATOM      8  C   UNL     1       7.492   4.981  17.897  0.00  0.00    +0.000 C 
BRANCH   8  10
ATOM      9  O   UNL     1       8.262   7.105  18.723  0.00  0.00    +0.000 OA
ATOM     10  C   UNL     1       7.886   5.968  18.977  0.00  0.00    +0.000 C 
BRANCH  10  11
ATOM     11  O   UNL     1       7.804   5.523  20.251  0.00  0.00    +0.000 OA
ATOM     12  H   UNL     1       8.648   5.121  20.547  0.00  0.00    +0.000 HD
ENDBRANCH  10  11
ENDBRANCH   8  10
ENDBRANCH   1   8
TORSDOF 4
ENDMDL
MODEL 2
REMARK VINA RESULT:      -4.6      4.071      4.815
REMARK  Name = 
REMARK  4 active torsions:
REMARK  status: ('A' for Active; 'I' for Inactive)
REMARK    1  A    between atoms: C_2  and  O_3
REMARK    2  A    between atoms: C_2  and  C_4
REMARK    3  A    between atoms: C_4  and  S_5
REMARK    4  A    between atoms: S_5  and  C_6
REMARK                            x       y       z     vdW  Elec       q    Type
REMARK                         _______ _______ _______ _____ _____    ______ ____
ROOT
ATOM      1  S   UNL     1       5.796   3.941  15.666  0.00  0.00    +0.000 S 
ENDROOT
BRANCH   1   2
ATOM      2  C   UNL     1       6.773   4.550  14.364  0.00  0.00    +0.000 A 
ATOM      3  N   UNL     1       6.645   4.151  13.063  0.00  0.00    +0.000 NA
ATOM      4  C   UNL     1       7.551   4.869  12.442  0.00  0.00    +0.000 A 
ATOM      5  N   UNL     1       8.193   5.661  13.340  0.00  0.00    +0.000 N 
ATOM      6  N   UNL     1       7.713   5.473  14.579  0.00  0.00    +0.000 NA
ATOM      7  H   UNL     1       8.938   6.333  13.190  0.00  0.00    +0.000 HD
ENDBRANCH   1   2
BRANCH   1   8
ATOM      8  C   UNL     1       6.139   5.206  16.924  0.00  0.00    +0.000 C 
BRANCH   8  10
ATOM      9  O   UNL     1       6.986   4.919  19.157  0.00  0.00    +0.000 OA
ATOM     10  C   UNL     1       7.147   4.744  17.956  0.00  0.00    +0.000 C 
BRANCH  10  11
ATOM     11  O   UNL     1       8.250   4.125  17.478  0.00  0.00    +0.000 OA
ATOM     12  H   UNL     1       8.830   4.748  16.990  0.00  0.00    +0.000 HD
ENDBRANCH  10  11
ENDBRANCH   8  10
ENDBRANCH   1   8
TORSDOF 4
ENDMDL
MODEL 3
REMARK VINA RESULT:      -4.6      3.182      4.002
REMARK  Name = 
REMARK  4 active torsions:
REMARK  status: ('A' for Active; 'I' for Inactive)
REMARK    1  A    between atoms: C_2  and  O_3
REMARK    2  A    between atoms: C_2  and  C_4
REMARK    3  A    between atoms: C_4  and  S_5
REMARK    4  A    between atoms: S_5  and  C_6
REMARK                            x       y       z     vdW  Elec       q    Type
REMARK                         _______ _______ _______ _____ _____    ______ ____
ROOT
ATOM      1  S   UNL     1       4.852   6.348  17.224  0.00  0.00    +0.000 S 
ENDROOT
BRANCH   1   2
ATOM      2  C   UNL     1       5.929   5.673  16.039  0.00  0.00    +0.000 A 
ATOM      3  N   UNL     1       5.529   4.839  15.032  0.00  0.00    +0.000 NA
ATOM      4  C   UNL     1       6.645   4.600  14.385  0.00  0.00    +0.000 A 
ATOM      5  N   UNL     1       7.667   5.265  14.985  0.00  0.00    +0.000 N 
ATOM      6  N   UNL     1       7.233   5.957  16.049  0.00  0.00    +0.000 NA
ATOM      7  H   UNL     1       8.650   5.296  14.736  0.00  0.00    +0.000 HD
ENDBRANCH   1   2
BRANCH   1   8
ATOM      8  C   UNL     1       4.286   4.821  18.030  0.00  0.00    +0.000 C 
BRANCH   8  10
ATOM      9  O   UNL     1       6.256   4.885  19.408  0.00  0.00    +0.000 OA
ATOM     10  C   UNL     1       5.329   4.227  18.952  0.00  0.00    +0.000 C 
BRANCH  10  11
ATOM     11  O   UNL     1       5.186   2.915  19.249  0.00  0.00    +0.000 OA
ATOM     12  H   UNL     1       5.979   2.399  18.990  0.00  0.00    +0.000 HD
ENDBRANCH  10  11
ENDBRANCH   8  10
ENDBRANCH   1   8
TORSDOF 4
ENDMDL
MODEL 4
REMARK VINA RESULT:      -4.6      1.773      1.881
REMARK  Name = 
REMARK  4 active torsions:
REMARK  status: ('A' for Active; 'I' for Inactive)
REMARK    1  A    between atoms: C_2  and  O_3
REMARK    2  A    between atoms: C_2  and  C_4
REMARK    3  A    between atoms: C_4  and  S_5
REMARK    4  A    between atoms: S_5  and  C_6
REMARK                            x       y       z     vdW  Elec       q    Type
REMARK                         _______ _______ _______ _____ _____    ______ ____
ROOT
ATOM      1  S   UNL     1       4.538   5.576  17.572  0.00  0.00    +0.000 S 
ENDROOT
BRANCH   1   2
ATOM      2  C   UNL     1       4.462   4.072  18.439  0.00  0.00    +0.000 A 
ATOM      3  N   UNL     1       3.464   3.151  18.283  0.00  0.00    +0.000 NA
ATOM      4  C   UNL     1       3.818   2.189  19.103  0.00  0.00    +0.000 A 
ATOM      5  N   UNL     1       4.980   2.526  19.721  0.00  0.00    +0.000 N 
ATOM      6  N   UNL     1       5.411   3.730  19.314  0.00  0.00    +0.000 NA
ATOM      7  H   UNL     1       5.520   2.007  20.404  0.00  0.00    +0.000 HD
ENDBRANCH   1   2
BRANCH   1   8
ATOM      8  C   UNL     1       5.641   5.091  16.213  0.00  0.00    +0.000 C 
BRANCH   8  10
ATOM      9  O   UNL     1       7.537   6.563  16.370  0.00  0.00    +0.000 OA
ATOM     10  C   UNL     1       7.092   5.428  16.489  0.00  0.00    +0.000 C 
BRANCH  10  11
ATOM     11  O   UNL     1       7.881   4.400  16.874  0.00  0.00    +0.000 OA
ATOM     12  H   UNL     1       7.390   3.552  16.879  0.00  0.00    +0.000 HD
ENDBRANCH  10  11
ENDBRANCH   8  10
ENDBRANCH   1   8
TORSDOF 4
ENDMDL
MODEL 5
REMARK VINA RESULT:      -4.5      4.075      5.131
REMARK  Name = 
REMARK  4 active torsions:
REMARK  status: ('A' for Active; 'I' for Inactive)
REMARK    1  A    between atoms: C_2  and  O_3
REMARK    2  A    between atoms: C_2  and  C_4
REMARK    3  A    between atoms: C_4  and  S_5
REMARK    4  A    between atoms: S_5  and  C_6
REMARK                            x       y       z     vdW  Elec       q    Type
REMARK                         _______ _______ _______ _____ _____    ______ ____
ROOT
ATOM      1  S   UNL     1       2.670   3.190  18.584  0.00  0.00    +0.000 S 
ENDROOT
BRANCH   1   2
ATOM      2  C   UNL     1       4.301   3.703  18.271  0.00  0.00    +0.000 A 
ATOM      3  N   UNL     1       4.733   4.176  17.064  0.00  0.00    +0.000 NA
ATOM      4  C   UNL     1       5.996   4.453  17.289  0.00  0.00    +0.000 A 
ATOM      5  N   UNL     1       6.301   4.155  18.580  0.00  0.00    +0.000 N 
ATOM      6  N   UNL     1       5.231   3.670  19.228  0.00  0.00    +0.000 NA
ATOM      7  H   UNL     1       7.182   4.254  19.073  0.00  0.00    +0.000 HD
ENDBRANCH   1   2
BRANCH   1   8
ATOM      8  C   UNL     1       2.840   2.668  20.316  0.00  0.00    +0.000 C 
BRANCH   8  10
ATOM      9  O   UNL     1       1.464   2.517  22.283  0.00  0.00    +0.000 OA
ATOM     10  C   UNL     1       1.545   2.789  21.092  0.00  0.00    +0.000 C 
BRANCH  10  11
ATOM     11  O   UNL     1       0.467   3.213  20.393  0.00  0.00    +0.000 OA
ATOM     12  H   UNL     1      -0.351   3.166  20.930  0.00  0.00    +0.000 HD
ENDBRANCH  10  11
ENDBRANCH   8  10
ENDBRANCH   1   8
TORSDOF 4
ENDMDL
MODEL 6
REMARK VINA RESULT:      -4.5      3.044      3.799
REMARK  Name = 
REMARK  4 active torsions:
REMARK  status: ('A' for Active; 'I' for Inactive)
REMARK    1  A    between atoms: C_2  and  O_3
REMARK    2  A    between atoms: C_2  and  C_4
REMARK    3  A    between atoms: C_4  and  S_5
REMARK    4  A    between atoms: S_5  and  C_6
REMARK                            x       y       z     vdW  Elec       q    Type
REMARK                         _______ _______ _______ _____ _____    ______ ____
ROOT
ATOM      1  S   UNL     1       3.346   1.772  18.235  0.00  0.00    +0.000 S 
ENDROOT
BRANCH   1   2
ATOM      2  C   UNL     1       2.263   2.392  19.446  0.00  0.00    +0.000 A 
ATOM      3  N   UNL     1       2.630   2.647  20.738  0.00  0.00    +0.000 NA
ATOM      4  C   UNL     1       1.524   3.109  21.273  0.00  0.00    +0.000 A 
ATOM      5  N   UNL     1       0.540   3.126  20.336  0.00  0.00    +0.000 N 
ATOM      6  N   UNL     1       0.989   2.668  19.157  0.00  0.00    +0.000 NA
ATOM      7  H   UNL     1      -0.425   3.426  20.420  0.00  0.00    +0.000 HD
ENDBRANCH   1   2
BRANCH   1   8
ATOM      8  C   UNL     1       3.915   3.334  17.503  0.00  0.00    +0.000 C 
BRANCH   8  10
ATOM      9  O   UNL     1       5.108   5.274  18.275  0.00  0.00    +0.000 OA
ATOM     10  C   UNL     1       4.891   4.075  18.393  0.00  0.00    +0.000 C 
BRANCH  10  11
ATOM     11  O   UNL     1       5.521   3.335  19.334  0.00  0.00    +0.000 OA
ATOM     12  H   UNL     1       4.921   2.669  19.729  0.00  0.00    +0.000 HD
ENDBRANCH  10  11
ENDBRANCH   8  10
ENDBRANCH   1   8
TORSDOF 4
ENDMDL
MODEL 7
REMARK VINA RESULT:      -4.5      3.488      4.752
REMARK  Name = 
REMARK  4 active torsions:
REMARK  status: ('A' for Active; 'I' for Inactive)
REMARK    1  A    between atoms: C_2  and  O_3
REMARK    2  A    between atoms: C_2  and  C_4
REMARK    3  A    between atoms: C_4  and  S_5
REMARK    4  A    between atoms: S_5  and  C_6
REMARK                            x       y       z     vdW  Elec       q    Type
REMARK                         _______ _______ _______ _____ _____    ______ ____
ROOT
ATOM      1  S   UNL     1       2.403   2.451  18.946  0.00  0.00    +0.000 S 
ENDROOT
BRANCH   1   2
ATOM      2  C   UNL     1       3.802   3.483  18.942  0.00  0.00    +0.000 A 
ATOM      3  N   UNL     1       3.816   4.745  18.418  0.00  0.00    +0.000 NA
ATOM      4  C   UNL     1       5.045   5.146  18.647  0.00  0.00    +0.000 A 
ATOM      5  N   UNL     1       5.732   4.160  19.280  0.00  0.00    +0.000 N 
ATOM      6  N   UNL     1       4.957   3.082  19.478  0.00  0.00    +0.000 NA
ATOM      7  H   UNL     1       6.694   4.148  19.600  0.00  0.00    +0.000 HD
ENDBRANCH   1   2
BRANCH   1   8
ATOM      8  C   UNL     1       1.304   3.427  20.014  0.00  0.00    +0.000 C 
BRANCH   8  10
ATOM      9  O   UNL     1       2.196   3.172  22.233  0.00  0.00    +0.000 OA
ATOM     10  C   UNL     1       1.992   3.907  21.275  0.00  0.00    +0.000 C 
BRANCH  10  11
ATOM     11  O   UNL     1       2.370   5.205  21.292  0.00  0.00    +0.000 OA
ATOM     12  H   UNL     1       3.295   5.315  20.986  0.00  0.00    +0.000 HD
ENDBRANCH  10  11
ENDBRANCH   8  10
ENDBRANCH   1   8
TORSDOF 4
ENDMDL
MODEL 8
REMARK VINA RESULT:      -4.5      2.989      3.451
REMARK  Name = 
REMARK  4 active torsions:
REMARK  status: ('A' for Active; 'I' for Inactive)
REMARK    1  A    between atoms: C_2  and  O_3
REMARK    2  A    between atoms: C_2  and  C_4
REMARK    3  A    between atoms: C_4  and  S_5
REMARK    4  A    between atoms: S_5  and  C_6
REMARK                            x       y       z     vdW  Elec       q    Type
REMARK                         _______ _______ _______ _____ _____    ______ ____
ROOT
ATOM      1  S   UNL     1       2.865   5.877  19.182  0.00  0.00    +0.000 S 
ENDROOT
BRANCH   1   2
ATOM      2  C   UNL     1       1.868   4.463  19.349  0.00  0.00    +0.000 A 
ATOM      3  N   UNL     1       1.879   3.414  18.473  0.00  0.00    +0.000 NA
ATOM      4  C   UNL     1       1.005   2.585  18.993  0.00  0.00    +0.000 A 
ATOM      5  N   UNL     1       0.494   3.122  20.132  0.00  0.00    +0.000 N 
ATOM      6  N   UNL     1       1.030   4.326  20.380  0.00  0.00    +0.000 NA
ATOM      7  H   UNL     1      -0.195   2.740  20.772  0.00  0.00    +0.000 HD
ENDBRANCH   1   2
BRANCH   1   8
ATOM      8  C   UNL     1       4.233   5.175  18.214  0.00  0.00    +0.000 C 
BRANCH   8  10
ATOM      9  O   UNL     1       6.157   5.079  19.654  0.00  0.00    +0.000 OA
ATOM     10  C   UNL     1       5.260   4.475  19.079  0.00  0.00    +0.000 C 
BRANCH  10  11
ATOM     11  O   UNL     1       5.140   3.132  19.181  0.00  0.00    +0.000 OA
ATOM     12  H   UNL     1       4.520   2.774  18.511  0.00  0.00    +0.000 HD
ENDBRANCH  10  11
ENDBRANCH   8  10
ENDBRANCH   1   8
TORSDOF 4
ENDMDL
MODEL 9
REMARK VINA RESULT:      -4.4      3.008      3.544
REMARK  Name = 
REMARK  4 active torsions:
REMARK  status: ('A' for Active; 'I' for Inactive)
REMARK    1  A    between atoms: C_2  and  O_3
REMARK    2  A    between atoms: C_2  and  C_4
REMARK    3  A    between atoms: C_4  and  S_5
REMARK    4  A    between atoms: S_5  and  C_6
REMARK                            x       y       z     vdW  Elec       q    Type
REMARK                         _______ _______ _______ _____ _____    ______ ____
ROOT
ATOM      1  S   UNL     1       6.075   6.606  17.294  0.00  0.00    +0.000 S 
ENDROOT
BRANCH   1   2
ATOM      2  C   UNL     1       6.297   5.531  15.946  0.00  0.00    +0.000 A 
ATOM      3  N   UNL     1       5.370   4.611  15.544  0.00  0.00    +0.000 NA
ATOM      4  C   UNL     1       5.941   4.050  14.504  0.00  0.00    +0.000 A 
ATOM      5  N   UNL     1       7.160   4.614  14.299  0.00  0.00    +0.000 N 
ATOM      6  N   UNL     1       7.412   5.564  15.212  0.00  0.00    +0.000 NA
ATOM      7  H   UNL     1       7.850   4.414  13.583  0.00  0.00    +0.000 HD
ENDBRANCH   1   2
BRANCH   1   8
ATOM      8  C   UNL     1       7.558   6.197  18.261  0.00  0.00    +0.000 C 
BRANCH   8  10
ATOM      9  O   UNL     1       6.154   4.931  19.749  0.00  0.00    +0.000 OA
ATOM     10  C   UNL     1       7.231   5.481  19.555  0.00  0.00    +0.000 C 
BRANCH  10  11
ATOM     11  O   UNL     1       8.199   5.482  20.499  0.00  0.00    +0.000 OA
ATOM     12  H   UNL     1       8.727   6.308  20.472  0.00  0.00    +0.000 HD
ENDBRANCH  10  11
ENDBRANCH   8  10
ENDBRANCH   1   8
TORSDOF 4
ENDMDL
