MODEL 1
REMARK VINA RESULT:      -7.4      0.000      0.000
REMARK  Name = 
REMARK  5 active torsions:
REMARK  status: ('A' for Active; 'I' for Inactive)
REMARK    1  A    between atoms: C_1  and  C_2
REMARK    2  A    between atoms: N_12  and  N_13
REMARK    3  A    between atoms: N_13  and  C_14
REMARK    4  A    between atoms: C_14  and  C_15
REMARK    5  A    between atoms: N_17  and  N_18
REMARK                            x       y       z     vdW  Elec       q    Type
REMARK                         _______ _______ _______ _____ _____    ______ ____
ROOT
ATOM      1  C   UNL     1       6.863   5.574  19.458  0.00  0.00    +0.000 C 
ATOM      2  C   UNL     1       5.515   5.046  19.022  0.00  0.00    +0.000 A 
ATOM      3  N   UNL     1       4.565   5.127  19.912  0.00  0.00    +0.000 NA
ATOM      4  C   UNL     1       3.330   4.559  19.615  0.00  0.00    +0.000 A 
ATOM      5  C   UNL     1       2.369   4.490  20.634  0.00  0.00    +0.000 A 
ATOM      6  C   UNL     1       1.149   3.842  20.420  0.00  0.00    +0.000 A 
ATOM      7  C   UNL     1       0.868   3.282  19.175  0.00  0.00    +0.000 A 
ATOM      8  C   UNL     1       1.802   3.372  18.147  0.00  0.00    +0.000 A 
ATOM      9  C   UNL     1       3.030   4.001  18.381  0.00  0.00    +0.000 A 
ATOM     10  C   UNL     1       4.089   4.010  17.356  0.00  0.00    +0.000 A 
ATOM     11  O   UNL     1       3.826   3.552  16.244  0.00  0.00    +0.000 OA
ATOM     12  N   UNL     1       5.337   4.508  17.757  0.00  0.00    +0.000 N 
ENDROOT
BRANCH  12  13
ATOM     13  N   UNL     1       6.484   4.244  16.911  0.00  0.00    +0.000 N 
ATOM     14  H   UNL     1       6.220   3.459  16.299  0.00  0.00    +0.000 HD
BRANCH  13  15
ATOM     15  C   UNL     1       6.846   5.365  16.016  0.00  0.00    +0.000 C 
BRANCH  15  16
ATOM     16  C   UNL     1       7.049   4.863  14.576  0.00  0.00    +0.000 C 
ATOM     17  O   UNL     1       7.850   5.349  13.780  0.00  0.00    +0.000 OA
ATOM     18  N   UNL     1       6.234   3.768  14.273  0.00  0.00    +0.000 N 
ATOM     19  H   UNL     1       5.777   3.259  15.027  0.00  0.00    +0.000 HD
BRANCH  18  20
ATOM     20  N   UNL     1       6.319   3.149  13.007  0.00  0.00    +0.000 NA
ATOM     21  H   UNL     1       5.559   3.527  12.425  0.00  0.00    +0.000 HD
ATOM     22  H   UNL     1       6.082   2.160  13.123  0.00  0.00    +0.000 HD
ENDBRANCH  18  20
ENDBRANCH  15  16
ENDBRANCH  13  15
ENDBRANCH  12  13
TORSDOF 4
ENDMDL
MODEL 2
REMARK VINA RESULT:      -7.2      2.241      2.715
REMARK  Name = 
REMARK  5 active torsions:
REMARK  status: ('A' for Active; 'I' for Inactive)
REMARK    1  A    between atoms: C_1  and  C_2
REMARK    2  A    between atoms: N_12  and  N_13
REMARK    3  A    between atoms: N_13  and  C_14
REMARK    4  A    between atoms: C_14  and  C_15
REMARK    5  A    between atoms: N_17  and  N_18
REMARK                            x       y       z     vdW  Elec       q    Type
REMARK                         _______ _______ _______ _____ _____    ______ ____
ROOT
ATOM      1  C   UNL     1       2.688   8.282  17.966  0.00  0.00    +0.000 C 
ATOM      2  C   UNL     1       2.740   6.788  18.196  0.00  0.00    +0.000 A 
ATOM      3  N   UNL     1       1.963   6.339  19.142  0.00  0.00    +0.000 NA
ATOM      4  C   UNL     1       2.043   4.991  19.480  0.00  0.00    +0.000 A 
ATOM      5  C   UNL     1       1.342   4.546  20.610  0.00  0.00    +0.000 A 
ATOM      6  C   UNL     1       1.465   3.227  21.051  0.00  0.00    +0.000 A 
ATOM      7  C   UNL     1       2.270   2.331  20.349  0.00  0.00    +0.000 A 
ATOM      8  C   UNL     1       2.947   2.753  19.209  0.00  0.00    +0.000 A 
ATOM      9  C   UNL     1       2.836   4.084  18.791  0.00  0.00    +0.000 A 
ATOM     10  C   UNL     1       3.630   4.597  17.661  0.00  0.00    +0.000 A 
ATOM     11  O   UNL     1       4.309   3.798  17.017  0.00  0.00    +0.000 OA
ATOM     12  N   UNL     1       3.576   5.981  17.441  0.00  0.00    +0.000 N 
ENDROOT
BRANCH  12  13
ATOM     13  N   UNL     1       4.570   6.576  16.571  0.00  0.00    +0.000 N 
ATOM     14  H   UNL     1       4.156   7.446  16.207  0.00  0.00    +0.000 HD
BRANCH  13  15
ATOM     15  C   UNL     1       5.820   6.968  17.259  0.00  0.00    +0.000 C 
BRANCH  15  16
ATOM     16  C   UNL     1       6.965   6.011  16.887  0.00  0.00    +0.000 C 
ATOM     17  O   UNL     1       7.655   6.118  15.874  0.00  0.00    +0.000 OA
ATOM     18  N   UNL     1       7.157   5.011  17.844  0.00  0.00    +0.000 N 
ATOM     19  H   UNL     1       6.733   5.109  18.764  0.00  0.00    +0.000 HD
BRANCH  18  20
ATOM     20  N   UNL     1       8.196   4.068  17.687  0.00  0.00    +0.000 NA
ATOM     21  H   UNL     1       9.088   4.565  17.822  0.00  0.00    +0.000 HD
ATOM     22  H   UNL     1       8.213   3.777  16.706  0.00  0.00    +0.000 HD
ENDBRANCH  18  20
ENDBRANCH  15  16
ENDBRANCH  13  15
ENDBRANCH  12  13
TORSDOF 4
ENDMDL
MODEL 3
REMARK VINA RESULT:      -7.1      2.395      5.692
REMARK  Name = 
REMARK  5 active torsions:
REMARK  status: ('A' for Active; 'I' for Inactive)
REMARK    1  A    between atoms: C_1  and  C_2
REMARK    2  A    between atoms: N_12  and  N_13
REMARK    3  A    between atoms: N_13  and  C_14
REMARK    4  A    between atoms: C_14  and  C_15
REMARK    5  A    between atoms: N_17  and  N_18
REMARK                            x       y       z     vdW  Elec       q    Type
REMARK                         _______ _______ _______ _____ _____    ______ ____
ROOT
ATOM      1  C   UNL     1       7.499   7.057  17.597  0.00  0.00    +0.000 C 
ATOM      2  C   UNL     1       6.911   6.048  16.635  0.00  0.00    +0.000 A 
ATOM      3  N   UNL     1       7.587   5.862  15.536  0.00  0.00    +0.000 NA
ATOM      4  C   UNL     1       7.046   5.029  14.560  0.00  0.00    +0.000 A 
ATOM      5  C   UNL     1       7.682   4.968  13.312  0.00  0.00    +0.000 A 
ATOM      6  C   UNL     1       7.127   4.227  12.265  0.00  0.00    +0.000 A 
ATOM      7  C   UNL     1       5.945   3.517  12.466  0.00  0.00    +0.000 A 
ATOM      8  C   UNL     1       5.321   3.546  13.710  0.00  0.00    +0.000 A 
ATOM      9  C   UNL     1       5.872   4.312  14.743  0.00  0.00    +0.000 A 
ATOM     10  C   UNL     1       5.178   4.463  16.034  0.00  0.00    +0.000 A 
ATOM     11  O   UNL     1       4.156   3.804  16.226  0.00  0.00    +0.000 OA
ATOM     12  N   UNL     1       5.727   5.392  16.930  0.00  0.00    +0.000 N 
ENDROOT
BRANCH  12  13
ATOM     13  N   UNL     1       4.921   5.817  18.057  0.00  0.00    +0.000 N 
ATOM     14  H   UNL     1       3.952   5.544  17.840  0.00  0.00    +0.000 HD
BRANCH  13  15
ATOM     15  C   UNL     1       5.265   5.150  19.332  0.00  0.00    +0.000 C 
BRANCH  15  16
ATOM     16  C   UNL     1       4.386   3.906  19.546  0.00  0.00    +0.000 C 
ATOM     17  O   UNL     1       3.238   3.936  19.986  0.00  0.00    +0.000 OA
ATOM     18  N   UNL     1       5.029   2.726  19.160  0.00  0.00    +0.000 N 
ATOM     19  H   UNL     1       5.867   2.776  18.584  0.00  0.00    +0.000 HD
BRANCH  18  20
ATOM     20  N   UNL     1       4.354   1.489  19.246  0.00  0.00    +0.000 NA
ATOM     21  H   UNL     1       3.347   1.678  19.146  0.00  0.00    +0.000 HD
ATOM     22  H   UNL     1       4.453   1.141  20.203  0.00  0.00    +0.000 HD
ENDBRANCH  18  20
ENDBRANCH  15  16
ENDBRANCH  13  15
ENDBRANCH  12  13
TORSDOF 4
ENDMDL
MODEL 4
REMARK VINA RESULT:      -7.0      1.974      2.269
REMARK  Name = 
REMARK  5 active torsions:
REMARK  status: ('A' for Active; 'I' for Inactive)
REMARK    1  A    between atoms: C_1  and  C_2
REMARK    2  A    between atoms: N_12  and  N_13
REMARK    3  A    between atoms: N_13  and  C_14
REMARK    4  A    between atoms: C_14  and  C_15
REMARK    5  A    between atoms: N_17  and  N_18
REMARK                            x       y       z     vdW  Elec       q    Type
REMARK                         _______ _______ _______ _____ _____    ______ ____
ROOT
ATOM      1  C   UNL     1       2.990   7.941  17.895  0.00  0.00    +0.000 C 
ATOM      2  C   UNL     1       2.896   6.455  18.163  0.00  0.00    +0.000 A 
ATOM      3  N   UNL     1       2.035   6.104  19.077  0.00  0.00    +0.000 NA
ATOM      4  C   UNL     1       1.977   4.764  19.450  0.00  0.00    +0.000 A 
ATOM      5  C   UNL     1       1.182   4.415  20.552  0.00  0.00    +0.000 A 
ATOM      6  C   UNL     1       1.165   3.103  21.031  0.00  0.00    +0.000 A 
ATOM      7  C   UNL     1       1.920   2.120  20.394  0.00  0.00    +0.000 A 
ATOM      8  C   UNL     1       2.689   2.448  19.281  0.00  0.00    +0.000 A 
ATOM      9  C   UNL     1       2.719   3.771  18.826  0.00  0.00    +0.000 A 
ATOM     10  C   UNL     1       3.611   4.180  17.728  0.00  0.00    +0.000 A 
ATOM     11  O   UNL     1       4.248   3.305  17.139  0.00  0.00    +0.000 OA
ATOM     12  N   UNL     1       3.693   5.556  17.473  0.00  0.00    +0.000 N 
ENDROOT
BRANCH  12  13
ATOM     13  N   UNL     1       4.780   6.036  16.642  0.00  0.00    +0.000 N 
ATOM     14  H   UNL     1       4.573   7.023  16.433  0.00  0.00    +0.000 HD
BRANCH  13  15
ATOM     15  C   UNL     1       6.101   6.021  17.306  0.00  0.00    +0.000 C 
BRANCH  15  16
ATOM     16  C   UNL     1       7.140   5.304  16.427  0.00  0.00    +0.000 C 
ATOM     17  O   UNL     1       7.941   4.468  16.842  0.00  0.00    +0.000 OA
ATOM     18  N   UNL     1       7.061   5.690  15.085  0.00  0.00    +0.000 N 
ATOM     19  H   UNL     1       6.238   6.190  14.755  0.00  0.00    +0.000 HD
BRANCH  18  20
ATOM     20  N   UNL     1       7.911   5.101  14.126  0.00  0.00    +0.000 NA
ATOM     21  H   UNL     1       8.867   5.436  14.311  0.00  0.00    +0.000 HD
ATOM     22  H   UNL     1       7.677   5.494  13.211  0.00  0.00    +0.000 HD
ENDBRANCH  18  20
ENDBRANCH  15  16
ENDBRANCH  13  15
ENDBRANCH  12  13
TORSDOF 4
ENDMDL
MODEL 5
REMARK VINA RESULT:      -7.0      2.306      3.600
REMARK  Name = 
REMARK  5 active torsions:
REMARK  status: ('A' for Active; 'I' for Inactive)
REMARK    1  A    between atoms: C_1  and  C_2
REMARK    2  A    between atoms: N_12  and  N_13
REMARK    3  A    between atoms: N_13  and  C_14
REMARK    4  A    between atoms: C_14  and  C_15
REMARK    5  A    between atoms: N_17  and  N_18
REMARK                            x       y       z     vdW  Elec       q    Type
REMARK                         _______ _______ _______ _____ _____    ______ ____
ROOT
ATOM      1  C   UNL     1       5.338   4.368  15.234  0.00  0.00    +0.000 C 
ATOM      2  C   UNL     1       4.635   4.321  16.572  0.00  0.00    +0.000 A 
ATOM      3  N   UNL     1       3.762   3.363  16.713  0.00  0.00    +0.000 NA
ATOM      4  C   UNL     1       3.000   3.329  17.878  0.00  0.00    +0.000 A 
ATOM      5  C   UNL     1       1.944   2.410  17.954  0.00  0.00    +0.000 A 
ATOM      6  C   UNL     1       1.086   2.399  19.057  0.00  0.00    +0.000 A 
ATOM      7  C   UNL     1       1.295   3.290  20.109  0.00  0.00    +0.000 A 
ATOM      8  C   UNL     1       2.359   4.186  20.058  0.00  0.00    +0.000 A 
ATOM      9  C   UNL     1       3.195   4.205  18.936  0.00  0.00    +0.000 A 
ATOM     10  C   UNL     1       4.256   5.217  18.793  0.00  0.00    +0.000 A 
ATOM     11  O   UNL     1       4.467   5.977  19.738  0.00  0.00    +0.000 OA
ATOM     12  N   UNL     1       4.915   5.256  17.556  0.00  0.00    +0.000 N 
ENDROOT
BRANCH  12  13
ATOM     13  N   UNL     1       5.723   6.418  17.246  0.00  0.00    +0.000 N 
ATOM     14  H   UNL     1       5.665   7.040  18.064  0.00  0.00    +0.000 HD
BRANCH  13  15
ATOM     15  C   UNL     1       7.160   6.122  17.050  0.00  0.00    +0.000 C 
BRANCH  15  16
ATOM     16  C   UNL     1       7.703   5.284  18.220  0.00  0.00    +0.000 C 
ATOM     17  O   UNL     1       8.115   4.130  18.113  0.00  0.00    +0.000 OA
ATOM     18  N   UNL     1       7.702   5.989  19.427  0.00  0.00    +0.000 N 
ATOM     19  H   UNL     1       7.585   7.000  19.418  0.00  0.00    +0.000 HD
BRANCH  18  20
ATOM     20  N   UNL     1       8.208   5.388  20.600  0.00  0.00    +0.000 NA
ATOM     21  H   UNL     1       8.277   4.376  20.425  0.00  0.00    +0.000 HD
ATOM     22  H   UNL     1       7.496   5.471  21.330  0.00  0.00    +0.000 HD
ENDBRANCH  18  20
ENDBRANCH  15  16
ENDBRANCH  13  15
ENDBRANCH  12  13
TORSDOF 4
ENDMDL
MODEL 6
REMARK VINA RESULT:      -7.0      1.254      1.298
REMARK  Name = 
REMARK  5 active torsions:
REMARK  status: ('A' for Active; 'I' for Inactive)
REMARK    1  A    between atoms: C_1  and  C_2
REMARK    2  A    between atoms: N_12  and  N_13
REMARK    3  A    between atoms: N_13  and  C_14
REMARK    4  A    between atoms: C_14  and  C_15
REMARK    5  A    between atoms: N_17  and  N_18
REMARK                            x       y       z     vdW  Elec       q    Type
REMARK                         _______ _______ _______ _____ _____    ______ ____
ROOT
ATOM      1  C   UNL     1       6.634   5.139  18.682  0.00  0.00    +0.000 C 
ATOM      2  C   UNL     1       5.204   4.659  18.574  0.00  0.00    +0.000 A 
ATOM      3  N   UNL     1       4.461   4.869  19.624  0.00  0.00    +0.000 NA
ATOM      4  C   UNL     1       3.167   4.354  19.633  0.00  0.00    +0.000 A 
ATOM      5  C   UNL     1       2.432   4.425  20.825  0.00  0.00    +0.000 A 
ATOM      6  C   UNL     1       1.169   3.837  20.919  0.00  0.00    +0.000 A 
ATOM      7  C   UNL     1       0.615   3.197  19.811  0.00  0.00    +0.000 A 
ATOM      8  C   UNL     1       1.323   3.147  18.613  0.00  0.00    +0.000 A 
ATOM      9  C   UNL     1       2.599   3.717  18.540  0.00  0.00    +0.000 A 
ATOM     10  C   UNL     1       3.426   3.580  17.328  0.00  0.00    +0.000 A 
ATOM     11  O   UNL     1       2.923   3.051  16.336  0.00  0.00    +0.000 OA
ATOM     12  N   UNL     1       4.750   4.032  17.424  0.00  0.00    +0.000 N 
ENDROOT
BRANCH  12  13
ATOM     13  N   UNL     1       5.688   3.632  16.394  0.00  0.00    +0.000 N 
ATOM     14  H   UNL     1       5.442   2.666  16.136  0.00  0.00    +0.000 HD
BRANCH  13  15
ATOM     15  C   UNL     1       5.598   4.430  15.152  0.00  0.00    +0.000 C 
BRANCH  15  16
ATOM     16  C   UNL     1       6.894   5.227  14.925  0.00  0.00    +0.000 C 
ATOM     17  O   UNL     1       7.504   5.823  15.811  0.00  0.00    +0.000 OA
ATOM     18  N   UNL     1       7.324   5.179  13.596  0.00  0.00    +0.000 N 
ATOM     19  H   UNL     1       6.930   4.484  12.965  0.00  0.00    +0.000 HD
BRANCH  18  20
ATOM     20  N   UNL     1       8.523   5.819  13.215  0.00  0.00    +0.000 NA
ATOM     21  H   UNL     1       9.157   5.797  14.025  0.00  0.00    +0.000 HD
ATOM     22  H   UNL     1       8.321   6.813  13.077  0.00  0.00    +0.000 HD
ENDBRANCH  18  20
ENDBRANCH  15  16
ENDBRANCH  13  15
ENDBRANCH  12  13
TORSDOF 4
ENDMDL
MODEL 7
REMARK VINA RESULT:      -6.9      1.639      1.726
REMARK  Name = 
REMARK  5 active torsions:
REMARK  status: ('A' for Active; 'I' for Inactive)
REMARK    1  A    between atoms: C_1  and  C_2
REMARK    2  A    between atoms: N_12  and  N_13
REMARK    3  A    between atoms: N_13  and  C_14
REMARK    4  A    between atoms: C_14  and  C_15
REMARK    5  A    between atoms: N_17  and  N_18
REMARK                            x       y       z     vdW  Elec       q    Type
REMARK                         _______ _______ _______ _____ _____    ______ ____
ROOT
ATOM      1  C   UNL     1       7.364   4.637  18.195  0.00  0.00    +0.000 C 
ATOM      2  C   UNL     1       5.893   4.761  18.523  0.00  0.00    +0.000 A 
ATOM      3  N   UNL     1       5.412   3.835  19.306  0.00  0.00    +0.000 NA
ATOM      4  C   UNL     1       4.043   3.828  19.559  0.00  0.00    +0.000 A 
ATOM      5  C   UNL     1       3.502   2.735  20.251  0.00  0.00    +0.000 A 
ATOM      6  C   UNL     1       2.123   2.627  20.446  0.00  0.00    +0.000 A 
ATOM      7  C   UNL     1       1.274   3.627  19.973  0.00  0.00    +0.000 A 
ATOM      8  C   UNL     1       1.803   4.731  19.311  0.00  0.00    +0.000 A 
ATOM      9  C   UNL     1       3.184   4.815  19.100  0.00  0.00    +0.000 A 
ATOM     10  C   UNL     1       3.767   5.906  18.300  0.00  0.00    +0.000 A 
ATOM     11  O   UNL     1       3.023   6.810  17.918  0.00  0.00    +0.000 OA
ATOM     12  N   UNL     1       5.133   5.796  18.002  0.00  0.00    +0.000 N 
ENDROOT
BRANCH  12  13
ATOM     13  N   UNL     1       5.679   6.649  16.966  0.00  0.00    +0.000 N 
ATOM     14  H   UNL     1       6.697   6.490  16.964  0.00  0.00    +0.000 HD
BRANCH  13  15
ATOM     15  C   UNL     1       5.206   6.324  15.603  0.00  0.00    +0.000 C 
BRANCH  15  16
ATOM     16  C   UNL     1       6.195   5.380  14.897  0.00  0.00    +0.000 C 
ATOM     17  O   UNL     1       7.416   5.519  14.914  0.00  0.00    +0.000 OA
ATOM     18  N   UNL     1       5.551   4.321  14.248  0.00  0.00    +0.000 N 
ATOM     19  H   UNL     1       4.578   4.116  14.466  0.00  0.00    +0.000 HD
BRANCH  18  20
ATOM     20  N   UNL     1       6.308   3.332  13.584  0.00  0.00    +0.000 NA
ATOM     21  H   UNL     1       5.765   3.024  12.766  0.00  0.00    +0.000 HD
ATOM     22  H   UNL     1       6.348   2.506  14.188  0.00  0.00    +0.000 HD
ENDBRANCH  18  20
ENDBRANCH  15  16
ENDBRANCH  13  15
ENDBRANCH  12  13
TORSDOF 4
ENDMDL
MODEL 8
REMARK VINA RESULT:      -6.8      1.793      2.000
REMARK  Name = 
REMARK  5 active torsions:
REMARK  status: ('A' for Active; 'I' for Inactive)
REMARK    1  A    between atoms: C_1  and  C_2
REMARK    2  A    between atoms: N_12  and  N_13
REMARK    3  A    between atoms: N_13  and  C_14
REMARK    4  A    between atoms: C_14  and  C_15
REMARK    5  A    between atoms: N_17  and  N_18
REMARK                            x       y       z     vdW  Elec       q    Type
REMARK                         _______ _______ _______ _____ _____    ______ ____
ROOT
ATOM      1  C   UNL     1       4.207   6.997  17.096  0.00  0.00    +0.000 C 
ATOM      2  C   UNL     1       3.746   5.719  17.760  0.00  0.00    +0.000 A 
ATOM      3  N   UNL     1       3.117   5.871  18.892  0.00  0.00    +0.000 NA
ATOM      4  C   UNL     1       2.763   4.732  19.610  0.00  0.00    +0.000 A 
ATOM      5  C   UNL     1       2.248   4.896  20.904  0.00  0.00    +0.000 A 
ATOM      6  C   UNL     1       1.969   3.786  21.706  0.00  0.00    +0.000 A 
ATOM      7  C   UNL     1       2.176   2.500  21.209  0.00  0.00    +0.000 A 
ATOM      8  C   UNL     1       2.658   2.325  19.915  0.00  0.00    +0.000 A 
ATOM      9  C   UNL     1       2.958   3.445  19.131  0.00  0.00    +0.000 A 
ATOM     10  C   UNL     1       3.581   3.301  17.804  0.00  0.00    +0.000 A 
ATOM     11  O   UNL     1       3.726   2.166  17.349  0.00  0.00    +0.000 OA
ATOM     12  N   UNL     1       4.001   4.486  17.183  0.00  0.00    +0.000 N 
ENDROOT
BRANCH  12  13
ATOM     13  N   UNL     1       4.899   4.385  16.049  0.00  0.00    +0.000 N 
ATOM     14  H   UNL     1       4.821   5.274  15.536  0.00  0.00    +0.000 HD
BRANCH  13  15
ATOM     15  C   UNL     1       6.324   4.241  16.417  0.00  0.00    +0.000 C 
BRANCH  15  16
ATOM     16  C   UNL     1       7.180   5.288  15.684  0.00  0.00    +0.000 C 
ATOM     17  O   UNL     1       7.584   6.332  16.194  0.00  0.00    +0.000 OA
ATOM     18  N   UNL     1       7.474   4.912  14.370  0.00  0.00    +0.000 N 
ATOM     19  H   UNL     1       7.328   3.947  14.080  0.00  0.00    +0.000 HD
BRANCH  18  20
ATOM     20  N   UNL     1       8.287   5.735  13.562  0.00  0.00    +0.000 NA
ATOM     21  H   UNL     1       7.712   6.531  13.252  0.00  0.00    +0.000 HD
ATOM     22  H   UNL     1       8.498   5.223  12.701  0.00  0.00    +0.000 HD
ENDBRANCH  18  20
ENDBRANCH  15  16
ENDBRANCH  13  15
ENDBRANCH  12  13
TORSDOF 4
ENDMDL
MODEL 9
REMARK VINA RESULT:      -6.8      1.730      2.065
REMARK  Name = 
REMARK  5 active torsions:
REMARK  status: ('A' for Active; 'I' for Inactive)
REMARK    1  A    between atoms: C_1  and  C_2
REMARK    2  A    between atoms: N_12  and  N_13
REMARK    3  A    between atoms: N_13  and  C_14
REMARK    4  A    between atoms: C_14  and  C_15
REMARK    5  A    between atoms: N_17  and  N_18
REMARK                            x       y       z     vdW  Elec       q    Type
REMARK                         _______ _______ _______ _____ _____    ______ ____
ROOT
ATOM      1  C   UNL     1       4.306   6.837  16.776  0.00  0.00    +0.000 C 
ATOM      2  C   UNL     1       4.038   5.692  17.726  0.00  0.00    +0.000 A 
ATOM      3  N   UNL     1       2.780   5.453  17.975  0.00  0.00    +0.000 NA
ATOM      4  C   UNL     1       2.467   4.485  18.926  0.00  0.00    +0.000 A 
ATOM      5  C   UNL     1       1.128   4.353  19.322  0.00  0.00    +0.000 A 
ATOM      6  C   UNL     1       0.771   3.468  20.342  0.00  0.00    +0.000 A 
ATOM      7  C   UNL     1       1.747   2.685  20.956  0.00  0.00    +0.000 A 
ATOM      8  C   UNL     1       3.075   2.786  20.550  0.00  0.00    +0.000 A 
ATOM      9  C   UNL     1       3.423   3.695  19.545  0.00  0.00    +0.000 A 
ATOM     10  C   UNL     1       4.832   3.916  19.172  0.00  0.00    +0.000 A 
ATOM     11  O   UNL     1       5.689   3.196  19.686  0.00  0.00    +0.000 OA
ATOM     12  N   UNL     1       5.081   4.972  18.285  0.00  0.00    +0.000 N 
ENDROOT
BRANCH  12  13
ATOM     13  N   UNL     1       6.446   5.438  18.140  0.00  0.00    +0.000 N 
ATOM     14  H   UNL     1       6.840   5.484  19.091  0.00  0.00    +0.000 HD
BRANCH  13  15
ATOM     15  C   UNL     1       7.319   4.525  17.372  0.00  0.00    +0.000 C 
BRANCH  15  16
ATOM     16  C   UNL     1       7.094   4.705  15.861  0.00  0.00    +0.000 C 
ATOM     17  O   UNL     1       7.449   5.694  15.221  0.00  0.00    +0.000 OA
ATOM     18  N   UNL     1       6.457   3.603  15.281  0.00  0.00    +0.000 N 
ATOM     19  H   UNL     1       6.407   2.726  15.794  0.00  0.00    +0.000 HD
BRANCH  18  20
ATOM     20  N   UNL     1       6.209   3.577  13.892  0.00  0.00    +0.000 NA
ATOM     21  H   UNL     1       6.426   2.629  13.556  0.00  0.00    +0.000 HD
ATOM     22  H   UNL     1       6.904   4.174  13.435  0.00  0.00    +0.000 HD
ENDBRANCH  18  20
ENDBRANCH  15  16
ENDBRANCH  13  15
ENDBRANCH  12  13
TORSDOF 4
ENDMDL
