MODEL 1
REMARK VINA RESULT:      -8.4      0.000      0.000
REMARK  Name = 
REMARK  6 active torsions:
REMARK  status: ('A' for Active; 'I' for Inactive)
REMARK    1  A    between atoms: C_1  and  C_2
REMARK    2  A    between atoms: C_4  and  N_5
REMARK    3  A    between atoms: C_7  and  C_8
REMARK    4  A    between atoms: C_13  and  N_14
REMARK    5  A    between atoms: C_15  and  C_17
REMARK    6  A    between atoms: C_22  and  C_23
REMARK                            x       y       z     vdW  Elec       q    Type
REMARK                         _______ _______ _______ _____ _____    ______ ____
ROOT
ATOM      1  N   UNL     1       2.533   7.226  18.992  0.00  0.00    +0.000 N 
ATOM      2  C   UNL     1       2.053   8.418  18.451  0.00  0.00    +0.000 C 
ATOM      3  O   UNL     1       2.135   8.728  17.264  0.00  0.00    +0.000 OA
ATOM      4  H   UNL     1       2.452   7.141  19.998  0.00  0.00    +0.000 HD
ENDROOT
BRANCH   2   5
ATOM      5  C   UNL     1       1.440   9.434  19.386  0.00  0.00    +0.000 A 
ATOM      6  C   UNL     1       0.906   8.946  20.586  0.00  0.00    +0.000 A 
ATOM      7  C   UNL     1       0.336   9.829  21.490  0.00  0.00    +0.000 A 
ATOM      8  C   UNL     1       0.314  11.177  21.171  0.00  0.00    +0.000 A 
ATOM      9  F   UNL     1      -0.255  12.024  22.038  0.00  0.00    +0.000 F 
ATOM     10  C   UNL     1       0.870  11.619  19.961  0.00  0.00    +0.000 A 
ATOM     11  N   UNL     1       1.436  10.757  19.049  0.00  0.00    +0.000 NA
BRANCH  10  12
ATOM     12  C   UNL     1       0.887  13.055  19.633  0.00  0.00    +0.000 A 
ATOM     13  C   UNL     1      -0.162  13.668  18.934  0.00  0.00    +0.000 A 
ATOM     14  F   UNL     1      -1.234  12.953  18.560  0.00  0.00    +0.000 F 
ATOM     15  C   UNL     1      -0.152  15.034  18.627  0.00  0.00    +0.000 A 
ATOM     16  C   UNL     1       0.915  15.834  19.020  0.00  0.00    +0.000 A 
ATOM     17  C   UNL     1       1.963  15.253  19.726  0.00  0.00    +0.000 A 
ATOM     18  F   UNL     1       2.991  16.017  20.115  0.00  0.00    +0.000 F 
ATOM     19  C   UNL     1       1.948  13.890  20.021  0.00  0.00    +0.000 A 
ATOM     20  F   UNL     1       2.997  13.381  20.694  0.00  0.00    +0.000 F 
ENDBRANCH  10  12
ENDBRANCH   2   5
BRANCH   1  26
ATOM     21  C   UNL     1       2.595   4.941  17.922  0.00  0.00    +0.000 A 
ATOM     22  C   UNL     1       3.285   4.128  16.995  0.00  0.00    +0.000 A 
ATOM     23  C   UNL     1       4.573   4.443  16.592  0.00  0.00    +0.000 A 
ATOM     24  N   UNL     1       5.215   5.540  17.001  0.00  0.00    +0.000 NA
ATOM     25  C   UNL     1       4.511   6.386  17.794  0.00  0.00    +0.000 A 
ATOM     26  C   UNL     1       3.194   6.191  18.252  0.00  0.00    +0.000 A 
BRANCH  21  32
ATOM     27  C   UNL     1       3.547   4.010  20.867  0.00  0.00    +0.000 C 
ATOM     28  C   UNL     1       2.053   3.707  20.935  0.00  0.00    +0.000 C 
ATOM     29  C   UNL     1       1.776   2.227  20.668  0.00  0.00    +0.000 C 
ATOM     30  C   UNL     1       1.763   1.822  19.186  0.00  0.00    +0.000 C 
ATOM     31  C   UNL     1       1.011   2.833  18.287  0.00  0.00    +0.000 C 
ATOM     32  C   UNL     1       1.306   4.360  18.534  0.00  0.00    +0.000 C 
ATOM     33  C   UNL     1       1.112   4.548  20.052  0.00  0.00    +0.000 C 
BRANCH  30  34
ATOM     34  N   UNL     1       3.107   1.523  18.702  0.00  0.00    +0.000 NA
ATOM     35  H   UNL     1       3.209   0.534  18.482  0.00  0.00    +0.000 HD
ATOM     36  H   UNL     1       3.793   1.721  19.429  0.00  0.00    +0.000 HD
ENDBRANCH  30  34
ENDBRANCH  21  32
ENDBRANCH   1  26
TORSDOF 5
ENDMDL
MODEL 2
REMARK VINA RESULT:      -8.4      0.608      1.622
REMARK  Name = 
REMARK  6 active torsions:
REMARK  status: ('A' for Active; 'I' for Inactive)
REMARK    1  A    between atoms: C_1  and  C_2
REMARK    2  A    between atoms: C_4  and  N_5
REMARK    3  A    between atoms: C_7  and  C_8
REMARK    4  A    between atoms: C_13  and  N_14
REMARK    5  A    between atoms: C_15  and  C_17
REMARK    6  A    between atoms: C_22  and  C_23
REMARK                            x       y       z     vdW  Elec       q    Type
REMARK                         _______ _______ _______ _____ _____    ______ ____
ROOT
ATOM      1  N   UNL     1       2.430   7.344  19.026  0.00  0.00    +0.000 N 
ATOM      2  C   UNL     1       1.981   8.545  18.478  0.00  0.00    +0.000 C 
ATOM      3  O   UNL     1       2.107   8.862  17.296  0.00  0.00    +0.000 OA
ATOM      4  H   UNL     1       2.314   7.252  20.027  0.00  0.00    +0.000 HD
ENDROOT
BRANCH   2   5
ATOM      5  C   UNL     1       1.347   9.560  19.398  0.00  0.00    +0.000 A 
ATOM      6  C   UNL     1       0.637   9.059  20.497  0.00  0.00    +0.000 A 
ATOM      7  C   UNL     1       0.038   9.940  21.384  0.00  0.00    +0.000 A 
ATOM      8  C   UNL     1       0.163  11.299  21.149  0.00  0.00    +0.000 A 
ATOM      9  F   UNL     1      -0.434  12.147  21.997  0.00  0.00    +0.000 F 
ATOM     10  C   UNL     1       0.893  11.754  20.040  0.00  0.00    +0.000 A 
ATOM     11  N   UNL     1       1.490  10.895  19.146  0.00  0.00    +0.000 NA
BRANCH  10  12
ATOM     12  C   UNL     1       1.065  13.198  19.806  0.00  0.00    +0.000 A 
ATOM     13  C   UNL     1       2.158  13.908  20.324  0.00  0.00    +0.000 A 
ATOM     14  F   UNL     1       3.099  13.272  21.040  0.00  0.00    +0.000 F 
ATOM     15  C   UNL     1       2.329  15.279  20.097  0.00  0.00    +0.000 A 
ATOM     16  C   UNL     1       1.406  15.983  19.333  0.00  0.00    +0.000 A 
ATOM     17  C   UNL     1       0.320  15.301  18.796  0.00  0.00    +0.000 A 
ATOM     18  F   UNL     1      -0.570  15.971  18.053  0.00  0.00    +0.000 F 
ATOM     19  C   UNL     1       0.153  13.937  19.033  0.00  0.00    +0.000 A 
ATOM     20  F   UNL     1      -0.925  13.333  18.500  0.00  0.00    +0.000 F 
ENDBRANCH  10  12
ENDBRANCH   2   5
BRANCH   1  26
ATOM     21  C   UNL     1       2.530   5.038  18.004  0.00  0.00    +0.000 A 
ATOM     22  C   UNL     1       3.228   4.220  17.088  0.00  0.00    +0.000 A 
ATOM     23  C   UNL     1       4.504   4.554  16.664  0.00  0.00    +0.000 A 
ATOM     24  N   UNL     1       5.127   5.673  17.042  0.00  0.00    +0.000 NA
ATOM     25  C   UNL     1       4.413   6.521  17.824  0.00  0.00    +0.000 A 
ATOM     26  C   UNL     1       3.106   6.308  18.301  0.00  0.00    +0.000 A 
BRANCH  21  32
ATOM     27  C   UNL     1       3.578   4.019  20.887  0.00  0.00    +0.000 C 
ATOM     28  C   UNL     1       2.086   3.718  20.996  0.00  0.00    +0.000 C 
ATOM     29  C   UNL     1       1.795   2.247  20.696  0.00  0.00    +0.000 C 
ATOM     30  C   UNL     1       1.730   1.885  19.204  0.00  0.00    +0.000 C 
ATOM     31  C   UNL     1       0.951   2.925  18.361  0.00  0.00    +0.000 C 
ATOM     32  C   UNL     1       1.261   4.443  18.643  0.00  0.00    +0.000 C 
ATOM     33  C   UNL     1       1.119   4.587  20.171  0.00  0.00    +0.000 C 
BRANCH  30  34
ATOM     34  N   UNL     1       3.056   1.597  18.666  0.00  0.00    +0.000 NA
ATOM     35  H   UNL     1       3.665   1.202  19.380  0.00  0.00    +0.000 HD
ATOM     36  H   UNL     1       3.503   2.459  18.359  0.00  0.00    +0.000 HD
ENDBRANCH  30  34
ENDBRANCH  21  32
ENDBRANCH   1  26
TORSDOF 5
ENDMDL
MODEL 3
REMARK VINA RESULT:      -8.4      2.749      4.964
REMARK  Name = 
REMARK  6 active torsions:
REMARK  status: ('A' for Active; 'I' for Inactive)
REMARK    1  A    between atoms: C_1  and  C_2
REMARK    2  A    between atoms: C_4  and  N_5
REMARK    3  A    between atoms: C_7  and  C_8
REMARK    4  A    between atoms: C_13  and  N_14
REMARK    5  A    between atoms: C_15  and  C_17
REMARK    6  A    between atoms: C_22  and  C_23
REMARK                            x       y       z     vdW  Elec       q    Type
REMARK                         _______ _______ _______ _____ _____    ______ ____
ROOT
ATOM      1  N   UNL     1       2.311   7.747  18.564  0.00  0.00    +0.000 N 
ATOM      2  C   UNL     1       1.687   8.533  19.531  0.00  0.00    +0.000 C 
ATOM      3  O   UNL     1       1.550   8.211  20.711  0.00  0.00    +0.000 OA
ATOM      4  H   UNL     1       2.289   8.117  17.622  0.00  0.00    +0.000 HD
ENDROOT
BRANCH   2   5
ATOM      5  C   UNL     1       1.080   9.849  19.104  0.00  0.00    +0.000 A 
ATOM      6  C   UNL     1       1.955  10.935  18.973  0.00  0.00    +0.000 A 
ATOM      7  C   UNL     1       1.461  12.168  18.577  0.00  0.00    +0.000 A 
ATOM      8  C   UNL     1       0.104  12.284  18.322  0.00  0.00    +0.000 A 
ATOM      9  F   UNL     1      -0.372  13.481  17.959  0.00  0.00    +0.000 F 
ATOM     10  C   UNL     1      -0.732  11.165  18.458  0.00  0.00    +0.000 A 
ATOM     11  N   UNL     1      -0.261   9.934  18.855  0.00  0.00    +0.000 NA
BRANCH  10  12
ATOM     12  C   UNL     1      -2.169  11.270  18.149  0.00  0.00    +0.000 A 
ATOM     13  C   UNL     1      -3.081  11.837  19.050  0.00  0.00    +0.000 A 
ATOM     14  F   UNL     1      -2.655  12.326  20.225  0.00  0.00    +0.000 F 
ATOM     15  C   UNL     1      -4.446  11.945  18.757  0.00  0.00    +0.000 A 
ATOM     16  C   UNL     1      -4.939  11.490  17.540  0.00  0.00    +0.000 A 
ATOM     17  C   UNL     1      -4.054  10.934  16.622  0.00  0.00    +0.000 A 
ATOM     18  F   UNL     1      -4.520  10.500  15.446  0.00  0.00    +0.000 F 
ATOM     19  C   UNL     1      -2.697  10.824  16.926  0.00  0.00    +0.000 A 
ATOM     20  F   UNL     1      -1.890  10.264  16.005  0.00  0.00    +0.000 F 
ENDBRANCH  10  12
ENDBRANCH   2   5
BRANCH   1  26
ATOM     21  C   UNL     1       4.215   6.095  18.452  0.00  0.00    +0.000 A 
ATOM     22  C   UNL     1       4.696   4.864  18.953  0.00  0.00    +0.000 A 
ATOM     23  C   UNL     1       3.842   3.965  19.569  0.00  0.00    +0.000 A 
ATOM     24  N   UNL     1       2.547   4.215  19.775  0.00  0.00    +0.000 NA
ATOM     25  C   UNL     1       2.108   5.444  19.407  0.00  0.00    +0.000 A 
ATOM     26  C   UNL     1       2.879   6.451  18.795  0.00  0.00    +0.000 A 
BRANCH  21  32
ATOM     27  C   UNL     1       4.633   4.091  15.950  0.00  0.00    +0.000 C 
ATOM     28  C   UNL     1       5.410   5.316  15.476  0.00  0.00    +0.000 C 
ATOM     29  C   UNL     1       6.909   5.151  15.727  0.00  0.00    +0.000 C 
ATOM     30  C   UNL     1       7.368   5.451  17.162  0.00  0.00    +0.000 C 
ATOM     31  C   UNL     1       6.708   6.718  17.757  0.00  0.00    +0.000 C 
ATOM     32  C   UNL     1       5.160   6.888  17.528  0.00  0.00    +0.000 C 
ATOM     33  C   UNL     1       4.972   6.692  16.011  0.00  0.00    +0.000 C 
BRANCH  30  34
ATOM     34  N   UNL     1       7.229   4.280  18.023  0.00  0.00    +0.000 NA
ATOM     35  H   UNL     1       7.917   3.567  17.790  0.00  0.00    +0.000 HD
ATOM     36  H   UNL     1       6.317   3.849  17.882  0.00  0.00    +0.000 HD
ENDBRANCH  30  34
ENDBRANCH  21  32
ENDBRANCH   1  26
TORSDOF 5
ENDMDL
MODEL 4
REMARK VINA RESULT:      -8.4      4.108      8.855
REMARK  Name = 
REMARK  6 active torsions:
REMARK  status: ('A' for Active; 'I' for Inactive)
REMARK    1  A    between atoms: C_1  and  C_2
REMARK    2  A    between atoms: C_4  and  N_5
REMARK    3  A    between atoms: C_7  and  C_8
REMARK    4  A    between atoms: C_13  and  N_14
REMARK    5  A    between atoms: C_15  and  C_17
REMARK    6  A    between atoms: C_22  and  C_23
REMARK                            x       y       z     vdW  Elec       q    Type
REMARK                         _______ _______ _______ _____ _____    ______ ____
ROOT
ATOM      1  N   UNL     1       1.750   7.805  21.116  0.00  0.00    +0.000 N 
ATOM      2  C   UNL     1       1.249   6.547  20.786  0.00  0.00    +0.000 C 
ATOM      3  O   UNL     1       0.061   6.233  20.843  0.00  0.00    +0.000 OA
ATOM      4  H   UNL     1       2.758   7.895  21.082  0.00  0.00    +0.000 HD
ENDROOT
BRANCH   2   5
ATOM      5  C   UNL     1       2.227   5.468  20.385  0.00  0.00    +0.000 A 
ATOM      6  C   UNL     1       2.081   4.221  21.007  0.00  0.00    +0.000 A 
ATOM      7  C   UNL     1       2.943   3.188  20.676  0.00  0.00    +0.000 A 
ATOM      8  C   UNL     1       3.929   3.426  19.733  0.00  0.00    +0.000 A 
ATOM      9  F   UNL     1       4.771   2.430  19.430  0.00  0.00    +0.000 F 
ATOM     10  C   UNL     1       4.029   4.689  19.129  0.00  0.00    +0.000 A 
ATOM     11  N   UNL     1       3.186   5.729  19.448  0.00  0.00    +0.000 NA
BRANCH  10  12
ATOM     12  C   UNL     1       5.048   4.939  18.095  0.00  0.00    +0.000 A 
ATOM     13  C   UNL     1       6.301   5.485  18.406  0.00  0.00    +0.000 A 
ATOM     14  F   UNL     1       6.614   5.778  19.679  0.00  0.00    +0.000 F 
ATOM     15  C   UNL     1       7.275   5.717  17.428  0.00  0.00    +0.000 A 
ATOM     16  C   UNL     1       7.022   5.400  16.098  0.00  0.00    +0.000 A 
ATOM     17  C   UNL     1       5.791   4.845  15.764  0.00  0.00    +0.000 A 
ATOM     18  F   UNL     1       5.542   4.531  14.487  0.00  0.00    +0.000 F 
ATOM     19  C   UNL     1       4.824   4.625  16.744  0.00  0.00    +0.000 A 
ATOM     20  F   UNL     1       3.646   4.099  16.359  0.00  0.00    +0.000 F 
ENDBRANCH  10  12
ENDBRANCH   2   5
BRANCH   1  26
ATOM     21  C   UNL     1       0.228   9.778  20.712  0.00  0.00    +0.000 A 
ATOM     22  C   UNL     1      -0.677  10.671  21.327  0.00  0.00    +0.000 A 
ATOM     23  C   UNL     1      -0.693  10.835  22.702  0.00  0.00    +0.000 A 
ATOM     24  N   UNL     1       0.092  10.137  23.527  0.00  0.00    +0.000 NA
ATOM     25  C   UNL     1       0.875   9.191  22.951  0.00  0.00    +0.000 A 
ATOM     26  C   UNL     1       0.964   8.913  21.574  0.00  0.00    +0.000 A 
BRANCH  21  32
ATOM     27  C   UNL     1       1.739  12.609  20.325  0.00  0.00    +0.000 C 
ATOM     28  C   UNL     1       1.683  12.109  18.884  0.00  0.00    +0.000 C 
ATOM     29  C   UNL     1       0.518  12.743  18.124  0.00  0.00    +0.000 C 
ATOM     30  C   UNL     1      -0.853  12.095  18.371  0.00  0.00    +0.000 C 
ATOM     31  C   UNL     1      -0.800  10.548  18.381  0.00  0.00    +0.000 C 
ATOM     32  C   UNL     1       0.381   9.882  19.182  0.00  0.00    +0.000 C 
ATOM     33  C   UNL     1       1.647  10.586  18.657  0.00  0.00    +0.000 C 
BRANCH  30  34
ATOM     34  N   UNL     1      -1.499  12.648  19.557  0.00  0.00    +0.000 NA
ATOM     35  H   UNL     1      -1.601  13.659  19.484  0.00  0.00    +0.000 HD
ATOM     36  H   UNL     1      -0.921  12.482  20.379  0.00  0.00    +0.000 HD
ENDBRANCH  30  34
ENDBRANCH  21  32
ENDBRANCH   1  26
TORSDOF 5
ENDMDL
MODEL 5
REMARK VINA RESULT:      -8.3      2.727      4.841
REMARK  Name = 
REMARK  6 active torsions:
REMARK  status: ('A' for Active; 'I' for Inactive)
REMARK    1  A    between atoms: C_1  and  C_2
REMARK    2  A    between atoms: C_4  and  N_5
REMARK    3  A    between atoms: C_7  and  C_8
REMARK    4  A    between atoms: C_13  and  N_14
REMARK    5  A    between atoms: C_15  and  C_17
REMARK    6  A    between atoms: C_22  and  C_23
REMARK                            x       y       z     vdW  Elec       q    Type
REMARK                         _______ _______ _______ _____ _____    ______ ____
ROOT
ATOM      1  N   UNL     1       2.272   7.730  18.516  0.00  0.00    +0.000 N 
ATOM      2  C   UNL     1       1.685   8.539  19.488  0.00  0.00    +0.000 C 
ATOM      3  O   UNL     1       1.590   8.242  20.678  0.00  0.00    +0.000 OA
ATOM      4  H   UNL     1       2.217   8.080  17.568  0.00  0.00    +0.000 HD
ENDROOT
BRANCH   2   5
ATOM      5  C   UNL     1       1.065   9.847  19.054  0.00  0.00    +0.000 A 
ATOM      6  C   UNL     1       1.933  10.937  18.905  0.00  0.00    +0.000 A 
ATOM      7  C   UNL     1       1.427  12.163  18.503  0.00  0.00    +0.000 A 
ATOM      8  C   UNL     1       0.067  12.269  18.260  0.00  0.00    +0.000 A 
ATOM      9  F   UNL     1      -0.420  13.459  17.890  0.00  0.00    +0.000 F 
ATOM     10  C   UNL     1      -0.760  11.146  18.414  0.00  0.00    +0.000 A 
ATOM     11  N   UNL     1      -0.278   9.922  18.818  0.00  0.00    +0.000 NA
BRANCH  10  12
ATOM     12  C   UNL     1      -2.201  11.239  18.119  0.00  0.00    +0.000 A 
ATOM     13  C   UNL     1      -2.745  10.751  16.922  0.00  0.00    +0.000 A 
ATOM     14  F   UNL     1      -1.956  10.159  16.012  0.00  0.00    +0.000 F 
ATOM     15  C   UNL     1      -4.115  10.831  16.642  0.00  0.00    +0.000 A 
ATOM     16  C   UNL     1      -4.987  11.401  17.562  0.00  0.00    +0.000 A 
ATOM     17  C   UNL     1      -4.474  11.881  18.763  0.00  0.00    +0.000 A 
ATOM     18  F   UNL     1      -5.308  12.425  19.657  0.00  0.00    +0.000 F 
ATOM     19  C   UNL     1      -3.108  11.804  19.031  0.00  0.00    +0.000 A 
ATOM     20  F   UNL     1      -2.668  12.298  20.203  0.00  0.00    +0.000 F 
ENDBRANCH  10  12
ENDBRANCH   2   5
BRANCH   1  26
ATOM     21  C   UNL     1       4.189   6.091  18.431  0.00  0.00    +0.000 A 
ATOM     22  C   UNL     1       4.670   4.864  18.938  0.00  0.00    +0.000 A 
ATOM     23  C   UNL     1       3.813   3.957  19.540  0.00  0.00    +0.000 A 
ATOM     24  N   UNL     1       2.514   4.198  19.727  0.00  0.00    +0.000 NA
ATOM     25  C   UNL     1       2.072   5.426  19.353  0.00  0.00    +0.000 A 
ATOM     26  C   UNL     1       2.845   6.438  18.754  0.00  0.00    +0.000 A 
BRANCH  21  32
ATOM     27  C   UNL     1       4.643   4.101  15.925  0.00  0.00    +0.000 C 
ATOM     28  C   UNL     1       5.422   5.330  15.466  0.00  0.00    +0.000 C 
ATOM     29  C   UNL     1       6.918   5.169  15.734  0.00  0.00    +0.000 C 
ATOM     30  C   UNL     1       7.360   5.464  17.176  0.00  0.00    +0.000 C 
ATOM     31  C   UNL     1       6.688   6.726  17.770  0.00  0.00    +0.000 C 
ATOM     32  C   UNL     1       5.142   6.892  17.523  0.00  0.00    +0.000 C 
ATOM     33  C   UNL     1       4.973   6.702  16.002  0.00  0.00    +0.000 C 
BRANCH  30  34
ATOM     34  N   UNL     1       7.213   4.288  18.030  0.00  0.00    +0.000 NA
ATOM     35  H   UNL     1       6.233   4.083  18.210  0.00  0.00    +0.000 HD
ATOM     36  H   UNL     1       7.636   4.463  18.940  0.00  0.00    +0.000 HD
ENDBRANCH  30  34
ENDBRANCH  21  32
ENDBRANCH   1  26
TORSDOF 5
ENDMDL
MODEL 6
REMARK VINA RESULT:      -8.3      1.249      1.439
REMARK  Name = 
REMARK  6 active torsions:
REMARK  status: ('A' for Active; 'I' for Inactive)
REMARK    1  A    between atoms: C_1  and  C_2
REMARK    2  A    between atoms: C_4  and  N_5
REMARK    3  A    between atoms: C_7  and  C_8
REMARK    4  A    between atoms: C_13  and  N_14
REMARK    5  A    between atoms: C_15  and  C_17
REMARK    6  A    between atoms: C_22  and  C_23
REMARK                            x       y       z     vdW  Elec       q    Type
REMARK                         _______ _______ _______ _____ _____    ______ ____
ROOT
ATOM      1  N   UNL     1       3.270   6.553  19.669  0.00  0.00    +0.000 N 
ATOM      2  C   UNL     1       2.586   7.588  19.032  0.00  0.00    +0.000 C 
ATOM      3  O   UNL     1       2.702   7.871  17.841  0.00  0.00    +0.000 OA
ATOM      4  H   UNL     1       3.121   6.482  20.668  0.00  0.00    +0.000 HD
ENDROOT
BRANCH   2   5
ATOM      5  C   UNL     1       1.681   8.466  19.863  0.00  0.00    +0.000 A 
ATOM      6  C   UNL     1       1.171   7.910  21.044  0.00  0.00    +0.000 A 
ATOM      7  C   UNL     1       0.340   8.668  21.854  0.00  0.00    +0.000 A 
ATOM      8  C   UNL     1       0.040   9.963  21.464  0.00  0.00    +0.000 A 
ATOM      9  F   UNL     1      -0.778  10.685  22.239  0.00  0.00    +0.000 F 
ATOM     10  C   UNL     1       0.583  10.480  20.278  0.00  0.00    +0.000 A 
ATOM     11  N   UNL     1       1.405   9.741  19.458  0.00  0.00    +0.000 NA
BRANCH  10  12
ATOM     12  C   UNL     1       0.302  11.870  19.876  0.00  0.00    +0.000 A 
ATOM     13  C   UNL     1      -0.860  12.218  19.174  0.00  0.00    +0.000 A 
ATOM     14  F   UNL     1      -1.769  11.279  18.864  0.00  0.00    +0.000 F 
ATOM     15  C   UNL     1      -1.134  13.538  18.797  0.00  0.00    +0.000 A 
ATOM     16  C   UNL     1      -0.247  14.558  19.122  0.00  0.00    +0.000 A 
ATOM     17  C   UNL     1       0.908  14.242  19.831  0.00  0.00    +0.000 A 
ATOM     18  F   UNL     1       1.763  15.219  20.154  0.00  0.00    +0.000 F 
ATOM     19  C   UNL     1       1.176  12.923  20.195  0.00  0.00    +0.000 A 
ATOM     20  F   UNL     1       2.316  12.675  20.866  0.00  0.00    +0.000 F 
ENDBRANCH  10  12
ENDBRANCH   2   5
BRANCH   1  26
ATOM     21  C   UNL     1       3.854   4.707  18.050  0.00  0.00    +0.000 A 
ATOM     22  C   UNL     1       4.916   4.083  17.358  0.00  0.00    +0.000 A 
ATOM     23  C   UNL     1       6.229   4.255  17.765  0.00  0.00    +0.000 A 
ATOM     24  N   UNL     1       6.578   5.046  18.782  0.00  0.00    +0.000 NA
ATOM     25  C   UNL     1       5.574   5.742  19.371  0.00  0.00    +0.000 A 
ATOM     26  C   UNL     1       4.208   5.673  19.036  0.00  0.00    +0.000 A 
BRANCH  21  32
ATOM     27  C   UNL     1       2.907   3.302  20.802  0.00  0.00    +0.000 C 
ATOM     28  C   UNL     1       1.636   3.187  19.964  0.00  0.00    +0.000 C 
ATOM     29  C   UNL     1       1.513   1.800  19.333  0.00  0.00    +0.000 C 
ATOM     30  C   UNL     1       2.340   1.587  18.056  0.00  0.00    +0.000 C 
ATOM     31  C   UNL     1       2.277   2.791  17.085  0.00  0.00    +0.000 C 
ATOM     32  C   UNL     1       2.428   4.225  17.719  0.00  0.00    +0.000 C 
ATOM     33  C   UNL     1       1.404   4.246  18.870  0.00  0.00    +0.000 C 
BRANCH  30  34
ATOM     34  N   UNL     1       3.707   1.180  18.367  0.00  0.00    +0.000 NA
ATOM     35  H   UNL     1       3.726   0.497  19.122  0.00  0.00    +0.000 HD
ATOM     36  H   UNL     1       4.244   1.981  18.698  0.00  0.00    +0.000 HD
ENDBRANCH  30  34
ENDBRANCH  21  32
ENDBRANCH   1  26
TORSDOF 5
ENDMDL
MODEL 7
REMARK VINA RESULT:      -8.1      3.665      9.582
REMARK  Name = 
REMARK  6 active torsions:
REMARK  status: ('A' for Active; 'I' for Inactive)
REMARK    1  A    between atoms: C_1  and  C_2
REMARK    2  A    between atoms: C_4  and  N_5
REMARK    3  A    between atoms: C_7  and  C_8
REMARK    4  A    between atoms: C_13  and  N_14
REMARK    5  A    between atoms: C_15  and  C_17
REMARK    6  A    between atoms: C_22  and  C_23
REMARK                            x       y       z     vdW  Elec       q    Type
REMARK                         _______ _______ _______ _____ _____    ______ ____
ROOT
ATOM      1  N   UNL     1       0.081  10.688  20.897  0.00  0.00    +0.000 N 
ATOM      2  C   UNL     1       0.926   9.646  21.275  0.00  0.00    +0.000 C 
ATOM      3  O   UNL     1       1.304   9.438  22.427  0.00  0.00    +0.000 OA
ATOM      4  H   UNL     1      -0.089  10.771  19.902  0.00  0.00    +0.000 HD
ENDROOT
BRANCH   2   5
ATOM      5  C   UNL     1       1.470   8.737  20.198  0.00  0.00    +0.000 A 
ATOM      6  C   UNL     1       1.591   9.283  18.914  0.00  0.00    +0.000 A 
ATOM      7  C   UNL     1       2.090   8.502  17.883  0.00  0.00    +0.000 A 
ATOM      8  C   UNL     1       2.455   7.195  18.163  0.00  0.00    +0.000 A 
ATOM      9  F   UNL     1       2.919   6.438  17.160  0.00  0.00    +0.000 F 
ATOM     10  C   UNL     1       2.325   6.696  19.468  0.00  0.00    +0.000 A 
ATOM     11  N   UNL     1       1.826   7.454  20.503  0.00  0.00    +0.000 NA
BRANCH  10  12
ATOM     12  C   UNL     1       2.749   5.320  19.783  0.00  0.00    +0.000 A 
ATOM     13  C   UNL     1       4.068   4.888  19.587  0.00  0.00    +0.000 A 
ATOM     14  F   UNL     1       4.996   5.739  19.119  0.00  0.00    +0.000 F 
ATOM     15  C   UNL     1       4.477   3.584  19.892  0.00  0.00    +0.000 A 
ATOM     16  C   UNL     1       3.569   2.669  20.413  0.00  0.00    +0.000 A 
ATOM     17  C   UNL     1       2.257   3.076  20.630  0.00  0.00    +0.000 A 
ATOM     18  F   UNL     1       1.378   2.203  21.138  0.00  0.00    +0.000 F 
ATOM     19  C   UNL     1       1.857   4.375  20.316  0.00  0.00    +0.000 A 
ATOM     20  F   UNL     1       0.571   4.707  20.533  0.00  0.00    +0.000 F 
ENDBRANCH  10  12
ENDBRANCH   2   5
BRANCH   1  26
ATOM     21  C   UNL     1       0.008  13.010  21.883  0.00  0.00    +0.000 A 
ATOM     22  C   UNL     1      -0.782  13.914  22.629  0.00  0.00    +0.000 A 
ATOM     23  C   UNL     1      -1.847  13.466  23.393  0.00  0.00    +0.000 A 
ATOM     24  N   UNL     1      -2.225  12.186  23.434  0.00  0.00    +0.000 NA
ATOM     25  C   UNL     1      -1.548  11.335  22.624  0.00  0.00    +0.000 A 
ATOM     26  C   UNL     1      -0.467  11.670  21.786  0.00  0.00    +0.000 A 
BRANCH  21  32
ATOM     27  C   UNL     1      -0.961  15.376  19.905  0.00  0.00    +0.000 C 
ATOM     28  C   UNL     1       0.556  15.514  19.804  0.00  0.00    +0.000 C 
ATOM     29  C   UNL     1       1.091  14.823  18.549  0.00  0.00    +0.000 C 
ATOM     30  C   UNL     1       1.266  13.302  18.666  0.00  0.00    +0.000 C 
ATOM     31  C   UNL     1       1.894  12.864  20.011  0.00  0.00    +0.000 C 
ATOM     32  C   UNL     1       1.334  13.549  21.314  0.00  0.00    +0.000 C 
ATOM     33  C   UNL     1       1.397  15.059  21.011  0.00  0.00    +0.000 C 
BRANCH  30  34
ATOM     34  N   UNL     1       0.023  12.597  18.364  0.00  0.00    +0.000 NA
ATOM     35  H   UNL     1       0.091  12.090  17.484  0.00  0.00    +0.000 HD
ATOM     36  H   UNL     1      -0.737  13.264  18.247  0.00  0.00    +0.000 HD
ENDBRANCH  30  34
ENDBRANCH  21  32
ENDBRANCH   1  26
TORSDOF 5
ENDMDL
MODEL 8
REMARK VINA RESULT:      -8.1      3.957      8.664
REMARK  Name = 
REMARK  6 active torsions:
REMARK  status: ('A' for Active; 'I' for Inactive)
REMARK    1  A    between atoms: C_1  and  C_2
REMARK    2  A    between atoms: C_4  and  N_5
REMARK    3  A    between atoms: C_7  and  C_8
REMARK    4  A    between atoms: C_13  and  N_14
REMARK    5  A    between atoms: C_15  and  C_17
REMARK    6  A    between atoms: C_22  and  C_23
REMARK                            x       y       z     vdW  Elec       q    Type
REMARK                         _______ _______ _______ _____ _____    ______ ____
ROOT
ATOM      1  N   UNL     1       1.607   7.835  21.104  0.00  0.00    +0.000 N 
ATOM      2  C   UNL     1       1.089   6.569  20.833  0.00  0.00    +0.000 C 
ATOM      3  O   UNL     1      -0.095   6.258  20.955  0.00  0.00    +0.000 OA
ATOM      4  H   UNL     1       2.612   7.922  21.019  0.00  0.00    +0.000 HD
ENDROOT
BRANCH   2   5
ATOM      5  C   UNL     1       2.047   5.478  20.417  0.00  0.00    +0.000 A 
ATOM      6  C   UNL     1       1.887   4.229  21.033  0.00  0.00    +0.000 A 
ATOM      7  C   UNL     1       2.730   3.184  20.688  0.00  0.00    +0.000 A 
ATOM      8  C   UNL     1       3.712   3.413  19.738  0.00  0.00    +0.000 A 
ATOM      9  F   UNL     1       4.536   2.407  19.422  0.00  0.00    +0.000 F 
ATOM     10  C   UNL     1       3.826   4.678  19.141  0.00  0.00    +0.000 A 
ATOM     11  N   UNL     1       3.002   5.730  19.473  0.00  0.00    +0.000 NA
BRANCH  10  12
ATOM     12  C   UNL     1       4.841   4.919  18.100  0.00  0.00    +0.000 A 
ATOM     13  C   UNL     1       4.642   4.530  16.768  0.00  0.00    +0.000 A 
ATOM     14  F   UNL     1       3.495   3.938  16.401  0.00  0.00    +0.000 F 
ATOM     15  C   UNL     1       5.600   4.764  15.774  0.00  0.00    +0.000 A 
ATOM     16  C   UNL     1       6.793   5.406  16.088  0.00  0.00    +0.000 A 
ATOM     17  C   UNL     1       7.009   5.815  17.400  0.00  0.00    +0.000 A 
ATOM     18  F   UNL     1       8.152   6.440  17.708  0.00  0.00    +0.000 F 
ATOM     19  C   UNL     1       6.052   5.571  18.384  0.00  0.00    +0.000 A 
ATOM     20  F   UNL     1       6.324   5.975  19.639  0.00  0.00    +0.000 F 
ENDBRANCH  10  12
ENDBRANCH   2   5
BRANCH   1  26
ATOM     21  C   UNL     1       0.124   9.839  20.708  0.00  0.00    +0.000 A 
ATOM     22  C   UNL     1      -0.763  10.748  21.328  0.00  0.00    +0.000 A 
ATOM     23  C   UNL     1      -0.774  10.907  22.703  0.00  0.00    +0.000 A 
ATOM     24  N   UNL     1      -0.003  10.190  23.525  0.00  0.00    +0.000 NA
ATOM     25  C   UNL     1       0.761   9.231  22.945  0.00  0.00    +0.000 A 
ATOM     26  C   UNL     1       0.842   8.956  21.566  0.00  0.00    +0.000 A 
BRANCH  21  32
ATOM     27  C   UNL     1       1.748  12.609  20.335  0.00  0.00    +0.000 C 
ATOM     28  C   UNL     1       1.669  12.120  18.891  0.00  0.00    +0.000 C 
ATOM     29  C   UNL     1       0.529  12.805  18.137  0.00  0.00    +0.000 C 
ATOM     30  C   UNL     1      -0.867  12.213  18.383  0.00  0.00    +0.000 C 
ATOM     31  C   UNL     1      -0.877  10.665  18.384  0.00  0.00    +0.000 C 
ATOM     32  C   UNL     1       0.277   9.946  19.179  0.00  0.00    +0.000 C 
ATOM     33  C   UNL     1       1.570  10.602  18.655  0.00  0.00    +0.000 C 
BRANCH  30  34
ATOM     34  N   UNL     1      -1.487  12.785  19.575  0.00  0.00    +0.000 NA
ATOM     35  H   UNL     1      -0.918  12.618  20.403  0.00  0.00    +0.000 HD
ATOM     36  H   UNL     1      -2.383  12.335  19.753  0.00  0.00    +0.000 HD
ENDBRANCH  30  34
ENDBRANCH  21  32
ENDBRANCH   1  26
TORSDOF 5
ENDMDL
MODEL 9
REMARK VINA RESULT:      -8.0      3.959      8.896
REMARK  Name = 
REMARK  6 active torsions:
REMARK  status: ('A' for Active; 'I' for Inactive)
REMARK    1  A    between atoms: C_1  and  C_2
REMARK    2  A    between atoms: C_4  and  N_5
REMARK    3  A    between atoms: C_7  and  C_8
REMARK    4  A    between atoms: C_13  and  N_14
REMARK    5  A    between atoms: C_15  and  C_17
REMARK    6  A    between atoms: C_22  and  C_23
REMARK                            x       y       z     vdW  Elec       q    Type
REMARK                         _______ _______ _______ _____ _____    ______ ____
ROOT
ATOM      1  N   UNL     1       0.279   7.965  21.093  0.00  0.00    +0.000 N 
ATOM      2  C   UNL     1       1.617   7.685  20.818  0.00  0.00    +0.000 C 
ATOM      3  O   UNL     1       2.535   8.498  20.917  0.00  0.00    +0.000 OA
ATOM      4  H   UNL     1      -0.371   7.213  20.902  0.00  0.00    +0.000 HD
ENDROOT
BRANCH   2   5
ATOM      5  C   UNL     1       1.970   6.309  20.305  0.00  0.00    +0.000 A 
ATOM      6  C   UNL     1       1.131   5.256  20.693  0.00  0.00    +0.000 A 
ATOM      7  C   UNL     1       1.399   3.971  20.249  0.00  0.00    +0.000 A 
ATOM      8  C   UNL     1       2.497   3.770  19.430  0.00  0.00    +0.000 A 
ATOM      9  F   UNL     1       2.763   2.523  19.019  0.00  0.00    +0.000 F 
ATOM     10  C   UNL     1       3.303   4.858  19.060  0.00  0.00    +0.000 A 
ATOM     11  N   UNL     1       3.057   6.140  19.494  0.00  0.00    +0.000 NA
BRANCH  10  12
ATOM     12  C   UNL     1       4.449   4.660  18.155  0.00  0.00    +0.000 A 
ATOM     13  C   UNL     1       4.289   4.167  16.853  0.00  0.00    +0.000 A 
ATOM     14  F   UNL     1       3.064   3.879  16.385  0.00  0.00    +0.000 F 
ATOM     15  C   UNL     1       5.375   3.984  15.988  0.00  0.00    +0.000 A 
ATOM     16  C   UNL     1       6.663   4.300  16.405  0.00  0.00    +0.000 A 
ATOM     17  C   UNL     1       6.848   4.803  17.688  0.00  0.00    +0.000 A 
ATOM     18  F   UNL     1       8.084   5.116  18.094  0.00  0.00    +0.000 F 
ATOM     19  C   UNL     1       5.761   4.974  18.545  0.00  0.00    +0.000 A 
ATOM     20  F   UNL     1       6.004   5.451  19.780  0.00  0.00    +0.000 F 
ENDBRANCH  10  12
ENDBRANCH   2   5
BRANCH   1  26
ATOM     21  C   UNL     1      -0.639  10.272  20.640  0.00  0.00    +0.000 A 
ATOM     22  C   UNL     1      -1.326  11.365  21.214  0.00  0.00    +0.000 A 
ATOM     23  C   UNL     1      -1.408  11.512  22.588  0.00  0.00    +0.000 A 
ATOM     24  N   UNL     1      -0.901  10.624  23.446  0.00  0.00    +0.000 NA
ATOM     25  C   UNL     1      -0.348   9.511  22.901  0.00  0.00    +0.000 A 
ATOM     26  C   UNL     1      -0.226   9.235  21.526  0.00  0.00    +0.000 A 
BRANCH  21  32
ATOM     27  C   UNL     1       1.666  12.533  20.468  0.00  0.00    +0.000 C 
ATOM     28  C   UNL     1       1.578  12.094  19.009  0.00  0.00    +0.000 C 
ATOM     29  C   UNL     1       0.716  13.057  18.192  0.00  0.00    +0.000 C 
ATOM     30  C   UNL     1      -0.800  12.842  18.318  0.00  0.00    +0.000 C 
ATOM     31  C   UNL     1      -1.208  11.349  18.272  0.00  0.00    +0.000 C 
ATOM     32  C   UNL     1      -0.343  10.350  19.129  0.00  0.00    +0.000 C 
ATOM     33  C   UNL     1       1.112  10.654  18.722  0.00  0.00    +0.000 C 
BRANCH  30  34
ATOM     34  N   UNL     1      -1.345  13.544  19.476  0.00  0.00    +0.000 NA
ATOM     35  H   UNL     1      -0.728  14.297  19.775  0.00  0.00    +0.000 HD
ATOM     36  H   UNL     1      -1.417  12.908  20.268  0.00  0.00    +0.000 HD
ENDBRANCH  30  34
ENDBRANCH  21  32
ENDBRANCH   1  26
TORSDOF 5
ENDMDL
