MODEL 1
REMARK VINA RESULT:      -7.9      0.000      0.000
REMARK  Name = 
REMARK  2 active torsions:
REMARK  status: ('A' for Active; 'I' for Inactive)
REMARK    1  A    between atoms: C_1  and  C_2
REMARK    2  A    between atoms: C_8  and  C_9
REMARK                            x       y       z     vdW  Elec       q    Type
REMARK                         _______ _______ _______ _____ _____    ______ ____
ROOT
ATOM      1  C   UNL     1       1.813   9.009  18.494  0.00  0.00    +0.000 C 
ATOM      2  O   UNL     1       2.168   9.494  17.419  0.00  0.00    +0.000 OA
ATOM      3  N   UNL     1       2.137   7.737  18.925  0.00  0.00    +0.000 N 
ATOM      4  C   UNL     1       2.974   6.941  18.177  0.00  0.00    +0.000 A 
ATOM      5  N   UNL     1       3.779   7.297  17.209  0.00  0.00    +0.000 NA
ATOM      6  C   UNL     1       4.462   6.195  16.723  0.00  0.00    +0.000 A 
ATOM      7  C   UNL     1       5.444   6.202  15.709  0.00  0.00    +0.000 A 
ATOM      8  C   UNL     1       6.063   5.007  15.323  0.00  0.00    +0.000 A 
ATOM      9  C   UNL     1       5.700   3.807  15.924  0.00  0.00    +0.000 A 
ATOM     10  C   UNL     1       4.724   3.770  16.926  0.00  0.00    +0.000 A 
ATOM     11  C   UNL     1       4.127   4.981  17.327  0.00  0.00    +0.000 A 
ATOM     12  S   UNL     1       2.955   5.281  18.564  0.00  0.00    +0.000 S 
ATOM     13  H   UNL     1       1.690   7.354  19.748  0.00  0.00    +0.000 HD
ENDROOT
BRANCH   1  21
ATOM     14  C   UNL     1      -0.082   9.533  23.533  0.00  0.00    +0.000 C 
ATOM     15  C   UNL     1      -0.572  10.480  22.480  0.00  0.00    +0.000 A 
ATOM     16  C   UNL     1      -1.461  11.455  22.734  0.00  0.00    +0.000 A 
ATOM     17  C   UNL     1      -1.837  12.306  21.572  0.00  0.00    +0.000 A 
ATOM     18  N   UNL     1      -1.382  12.205  20.359  0.00  0.00    +0.000 NA
ATOM     19  C   UNL     1      -0.474  11.204  20.140  0.00  0.00    +0.000 A 
ATOM     20  N   UNL     1       0.161  10.867  19.029  0.00  0.00    +0.000 NA
ATOM     21  C   UNL     1       0.924   9.777  19.404  0.00  0.00    +0.000 A 
ATOM     22  N   UNL     1       0.805   9.449  20.700  0.00  0.00    +0.000 NA
ATOM     23  N   UNL     1      -0.076  10.345  21.175  0.00  0.00    +0.000 N 
ENDBRANCH   1  21
TORSDOF 1
ENDMDL
MODEL 2
REMARK VINA RESULT:      -7.8      0.756      1.732
REMARK  Name = 
REMARK  2 active torsions:
REMARK  status: ('A' for Active; 'I' for Inactive)
REMARK    1  A    between atoms: C_1  and  C_2
REMARK    2  A    between atoms: C_8  and  C_9
REMARK                            x       y       z     vdW  Elec       q    Type
REMARK                         _______ _______ _______ _____ _____    ______ ____
ROOT
ATOM      1  C   UNL     1       1.780   8.900  18.773  0.00  0.00    +0.000 C 
ATOM      2  O   UNL     1       2.011   9.391  17.668  0.00  0.00    +0.000 OA
ATOM      3  N   UNL     1       2.210   7.652  19.182  0.00  0.00    +0.000 N 
ATOM      4  C   UNL     1       3.020   6.895  18.367  0.00  0.00    +0.000 A 
ATOM      5  N   UNL     1       3.716   7.283  17.329  0.00  0.00    +0.000 NA
ATOM      6  C   UNL     1       4.413   6.214  16.791  0.00  0.00    +0.000 A 
ATOM      7  C   UNL     1       5.300   6.263  15.694  0.00  0.00    +0.000 A 
ATOM      8  C   UNL     1       5.946   5.099  15.263  0.00  0.00    +0.000 A 
ATOM      9  C   UNL     1       5.706   3.887  15.901  0.00  0.00    +0.000 A 
ATOM     10  C   UNL     1       4.825   3.810  16.987  0.00  0.00    +0.000 A 
ATOM     11  C   UNL     1       4.200   4.990  17.431  0.00  0.00    +0.000 A 
ATOM     12  S   UNL     1       3.127   5.241  18.766  0.00  0.00    +0.000 S 
ATOM     13  H   UNL     1       1.859   7.255  20.043  0.00  0.00    +0.000 HD
ENDROOT
BRANCH   1  21
ATOM     14  C   UNL     1      -2.241  12.451  19.468  0.00  0.00    +0.000 C 
ATOM     15  C   UNL     1      -1.580  11.868  20.680  0.00  0.00    +0.000 A 
ATOM     16  C   UNL     1      -1.945  12.190  21.933  0.00  0.00    +0.000 A 
ATOM     17  C   UNL     1      -1.183  11.515  23.020  0.00  0.00    +0.000 A 
ATOM     18  N   UNL     1      -0.226  10.650  22.873  0.00  0.00    +0.000 NA
ATOM     19  C   UNL     1       0.114  10.344  21.583  0.00  0.00    +0.000 A 
ATOM     20  N   UNL     1       1.028   9.504  21.126  0.00  0.00    +0.000 NA
ATOM     21  C   UNL     1       0.934   9.629  19.753  0.00  0.00    +0.000 A 
ATOM     22  N   UNL     1      -0.016  10.487  19.349  0.00  0.00    +0.000 NA
ATOM     23  N   UNL     1      -0.542  10.944  20.497  0.00  0.00    +0.000 N 
ENDBRANCH   1  21
TORSDOF 1
ENDMDL
MODEL 3
REMARK VINA RESULT:      -7.8      1.968      8.460
REMARK  Name = 
REMARK  2 active torsions:
REMARK  status: ('A' for Active; 'I' for Inactive)
REMARK    1  A    between atoms: C_1  and  C_2
REMARK    2  A    between atoms: C_8  and  C_9
REMARK                            x       y       z     vdW  Elec       q    Type
REMARK                         _______ _______ _______ _____ _____    ______ ____
ROOT
ATOM      1  C   UNL     1       2.163   7.490  19.352  0.00  0.00    +0.000 C 
ATOM      2  O   UNL     1       1.850   6.935  20.405  0.00  0.00    +0.000 OA
ATOM      3  N   UNL     1       1.689   8.722  18.944  0.00  0.00    +0.000 N 
ATOM      4  C   UNL     1       0.866   9.457  19.765  0.00  0.00    +0.000 A 
ATOM      5  N   UNL     1       0.661   9.309  21.049  0.00  0.00    +0.000 NA
ATOM      6  C   UNL     1      -0.231  10.265  21.506  0.00  0.00    +0.000 A 
ATOM      7  C   UNL     1      -0.655  10.440  22.841  0.00  0.00    +0.000 A 
ATOM      8  C   UNL     1      -1.558  11.460  23.162  0.00  0.00    +0.000 A 
ATOM      9  C   UNL     1      -2.055  12.293  22.166  0.00  0.00    +0.000 A 
ATOM     10  C   UNL     1      -1.656  12.137  20.833  0.00  0.00    +0.000 A 
ATOM     11  C   UNL     1      -0.727  11.125  20.524  0.00  0.00    +0.000 A 
ATOM     12  S   UNL     1       0.007  10.720  19.009  0.00  0.00    +0.000 S 
ATOM     13  H   UNL     1       1.874   9.047  18.004  0.00  0.00    +0.000 HD
ENDROOT
BRANCH   1  21
ATOM     14  C   UNL     1       3.978   2.750  17.481  0.00  0.00    +0.000 C 
ATOM     15  C   UNL     1       4.527   4.013  16.890  0.00  0.00    +0.000 A 
ATOM     16  C   UNL     1       5.451   4.018  15.914  0.00  0.00    +0.000 A 
ATOM     17  C   UNL     1       5.884   5.363  15.442  0.00  0.00    +0.000 A 
ATOM     18  N   UNL     1       5.450   6.510  15.869  0.00  0.00    +0.000 NA
ATOM     19  C   UNL     1       4.506   6.464  16.859  0.00  0.00    +0.000 A 
ATOM     20  N   UNL     1       3.880   7.453  17.476  0.00  0.00    +0.000 NA
ATOM     21  C   UNL     1       3.065   6.808  18.387  0.00  0.00    +0.000 A 
ATOM     22  N   UNL     1       3.145   5.469  18.337  0.00  0.00    +0.000 NA
ATOM     23  N   UNL     1       4.052   5.240  17.373  0.00  0.00    +0.000 N 
ENDBRANCH   1  21
TORSDOF 1
ENDMDL
MODEL 4
REMARK VINA RESULT:      -7.7      2.173      8.551
REMARK  Name = 
REMARK  2 active torsions:
REMARK  status: ('A' for Active; 'I' for Inactive)
REMARK    1  A    between atoms: C_1  and  C_2
REMARK    2  A    between atoms: C_8  and  C_9
REMARK                            x       y       z     vdW  Elec       q    Type
REMARK                         _______ _______ _______ _____ _____    ______ ____
ROOT
ATOM      1  C   UNL     1       2.534   6.748  19.414  0.00  0.00    +0.000 C 
ATOM      2  O   UNL     1       2.028   6.122  20.345  0.00  0.00    +0.000 OA
ATOM      3  N   UNL     1       2.244   8.064  19.105  0.00  0.00    +0.000 N 
ATOM      4  C   UNL     1       1.396   8.795  19.903  0.00  0.00    +0.000 A 
ATOM      5  N   UNL     1       1.006   8.533  21.125  0.00  0.00    +0.000 NA
ATOM      6  C   UNL     1       0.161   9.530  21.583  0.00  0.00    +0.000 A 
ATOM      7  C   UNL     1      -0.419   9.607  22.868  0.00  0.00    +0.000 A 
ATOM      8  C   UNL     1      -1.250  10.683  23.198  0.00  0.00    +0.000 A 
ATOM      9  C   UNL     1      -1.522  11.671  22.259  0.00  0.00    +0.000 A 
ATOM     10  C   UNL     1      -0.966  11.615  20.975  0.00  0.00    +0.000 A 
ATOM     11  C   UNL     1      -0.109  10.543  20.660  0.00  0.00    +0.000 A 
ATOM     12  S   UNL     1       0.777  10.223  19.208  0.00  0.00    +0.000 S 
ATOM     13  H   UNL     1       2.586   8.465  18.241  0.00  0.00    +0.000 HD
ENDROOT
BRANCH   1  21
ATOM     14  C   UNL     1       7.486   6.814  17.238  0.00  0.00    +0.000 C 
ATOM     15  C   UNL     1       6.537   5.727  16.832  0.00  0.00    +0.000 A 
ATOM     16  C   UNL     1       6.865   4.767  15.950  0.00  0.00    +0.000 A 
ATOM     17  C   UNL     1       5.803   3.765  15.661  0.00  0.00    +0.000 A 
ATOM     18  N   UNL     1       4.614   3.725  16.184  0.00  0.00    +0.000 NA
ATOM     19  C   UNL     1       4.319   4.715  17.081  0.00  0.00    +0.000 A 
ATOM     20  N   UNL     1       3.211   4.926  17.773  0.00  0.00    +0.000 NA
ATOM     21  C   UNL     1       3.484   6.076  18.490  0.00  0.00    +0.000 A 
ATOM     22  N   UNL     1       4.719   6.563  18.288  0.00  0.00    +0.000 NA
ATOM     23  N   UNL     1       5.256   5.709  17.400  0.00  0.00    +0.000 N 
ENDBRANCH   1  21
TORSDOF 1
ENDMDL
MODEL 5
REMARK VINA RESULT:      -7.6      2.879      8.335
REMARK  Name = 
REMARK  2 active torsions:
REMARK  status: ('A' for Active; 'I' for Inactive)
REMARK    1  A    between atoms: C_1  and  C_2
REMARK    2  A    between atoms: C_8  and  C_9
REMARK                            x       y       z     vdW  Elec       q    Type
REMARK                         _______ _______ _______ _____ _____    ______ ____
ROOT
ATOM      1  C   UNL     1       1.605   7.938  20.040  0.00  0.00    +0.000 C 
ATOM      2  O   UNL     1       1.735   8.757  19.130  0.00  0.00    +0.000 OA
ATOM      3  N   UNL     1       0.900   8.168  21.206  0.00  0.00    +0.000 N 
ATOM      4  C   UNL     1       0.213   9.346  21.382  0.00  0.00    +0.000 A 
ATOM      5  N   UNL     1      -0.133  10.226  20.477  0.00  0.00    +0.000 NA
ATOM      6  C   UNL     1      -0.829  11.270  21.063  0.00  0.00    +0.000 A 
ATOM      7  C   UNL     1      -1.394  12.376  20.393  0.00  0.00    +0.000 A 
ATOM      8  C   UNL     1      -2.083  13.357  21.117  0.00  0.00    +0.000 A 
ATOM      9  C   UNL     1      -2.198  13.255  22.499  0.00  0.00    +0.000 A 
ATOM     10  C   UNL     1      -1.640  12.172  23.189  0.00  0.00    +0.000 A 
ATOM     11  C   UNL     1      -0.972  11.176  22.450  0.00  0.00    +0.000 A 
ATOM     12  S   UNL     1      -0.242   9.702  22.986  0.00  0.00    +0.000 S 
ATOM     13  H   UNL     1       0.959   7.506  21.969  0.00  0.00    +0.000 HD
ENDROOT
BRANCH   1  21
ATOM     14  C   UNL     1       1.547   2.763  21.614  0.00  0.00    +0.000 C 
ATOM     15  C   UNL     1       2.659   3.231  20.725  0.00  0.00    +0.000 A 
ATOM     16  C   UNL     1       3.643   2.419  20.301  0.00  0.00    +0.000 A 
ATOM     17  C   UNL     1       4.667   3.048  19.422  0.00  0.00    +0.000 A 
ATOM     18  N   UNL     1       4.689   4.284  19.023  0.00  0.00    +0.000 NA
ATOM     19  C   UNL     1       3.669   5.079  19.470  0.00  0.00    +0.000 A 
ATOM     20  N   UNL     1       3.423   6.356  19.227  0.00  0.00    +0.000 NA
ATOM     21  C   UNL     1       2.280   6.617  19.959  0.00  0.00    +0.000 A 
ATOM     22  N   UNL     1       1.800   5.549  20.618  0.00  0.00    +0.000 NA
ATOM     23  N   UNL     1       2.670   4.571  20.315  0.00  0.00    +0.000 N 
ENDBRANCH   1  21
TORSDOF 1
ENDMDL
MODEL 6
REMARK VINA RESULT:      -7.5      1.567      8.294
REMARK  Name = 
REMARK  2 active torsions:
REMARK  status: ('A' for Active; 'I' for Inactive)
REMARK    1  A    between atoms: C_1  and  C_2
REMARK    2  A    between atoms: C_8  and  C_9
REMARK                            x       y       z     vdW  Elec       q    Type
REMARK                         _______ _______ _______ _____ _____    ______ ____
ROOT
ATOM      1  C   UNL     1       2.346   8.405  18.256  0.00  0.00    +0.000 C 
ATOM      2  O   UNL     1       2.065   9.408  17.601  0.00  0.00    +0.000 OA
ATOM      3  N   UNL     1       1.925   8.172  19.552  0.00  0.00    +0.000 N 
ATOM      4  C   UNL     1       1.070   9.052  20.174  0.00  0.00    +0.000 A 
ATOM      5  N   UNL     1       0.328   9.982  19.630  0.00  0.00    +0.000 NA
ATOM      6  C   UNL     1      -0.404  10.642  20.602  0.00  0.00    +0.000 A 
ATOM      7  C   UNL     1      -1.343  11.674  20.384  0.00  0.00    +0.000 A 
ATOM      8  C   UNL     1      -2.020  12.246  21.467  0.00  0.00    +0.000 A 
ATOM      9  C   UNL     1      -1.759  11.815  22.763  0.00  0.00    +0.000 A 
ATOM     10  C   UNL     1      -0.827  10.799  23.008  0.00  0.00    +0.000 A 
ATOM     11  C   UNL     1      -0.171  10.210  21.910  0.00  0.00    +0.000 A 
ATOM     12  S   UNL     1       0.968   8.907  21.870  0.00  0.00    +0.000 S 
ATOM     13  H   UNL     1       2.315   7.400  20.077  0.00  0.00    +0.000 HD
ENDROOT
BRANCH   1  21
ATOM     14  C   UNL     1       3.203   3.113  17.534  0.00  0.00    +0.000 C 
ATOM     15  C   UNL     1       4.217   4.083  17.008  0.00  0.00    +0.000 A 
ATOM     16  C   UNL     1       5.330   3.694  16.362  0.00  0.00    +0.000 A 
ATOM     17  C   UNL     1       6.228   4.790  15.905  0.00  0.00    +0.000 A 
ATOM     18  N   UNL     1       6.032   6.065  16.056  0.00  0.00    +0.000 NA
ATOM     19  C   UNL     1       4.885   6.423  16.713  0.00  0.00    +0.000 A 
ATOM     20  N   UNL     1       4.418   7.626  17.003  0.00  0.00    +0.000 NA
ATOM     21  C   UNL     1       3.245   7.367  17.688  0.00  0.00    +0.000 A 
ATOM     22  N   UNL     1       2.961   6.060  17.806  0.00  0.00    +0.000 NA
ATOM     23  N   UNL     1       3.990   5.454  17.192  0.00  0.00    +0.000 N 
ENDBRANCH   1  21
TORSDOF 1
ENDMDL
MODEL 7
REMARK VINA RESULT:      -7.3      1.754      8.386
REMARK  Name = 
REMARK  2 active torsions:
REMARK  status: ('A' for Active; 'I' for Inactive)
REMARK    1  A    between atoms: C_1  and  C_2
REMARK    2  A    between atoms: C_8  and  C_9
REMARK                            x       y       z     vdW  Elec       q    Type
REMARK                         _______ _______ _______ _____ _____    ______ ____
ROOT
ATOM      1  C   UNL     1       2.253   8.226  18.399  0.00  0.00    +0.000 C 
ATOM      2  O   UNL     1       1.965   9.139  17.624  0.00  0.00    +0.000 OA
ATOM      3  N   UNL     1       1.835   8.152  19.714  0.00  0.00    +0.000 N 
ATOM      4  C   UNL     1       0.976   9.098  20.224  0.00  0.00    +0.000 A 
ATOM      5  N   UNL     1       0.227   9.949  19.570  0.00  0.00    +0.000 NA
ATOM      6  C   UNL     1      -0.507  10.721  20.455  0.00  0.00    +0.000 A 
ATOM      7  C   UNL     1      -1.452  11.712  20.113  0.00  0.00    +0.000 A 
ATOM      8  C   UNL     1      -2.131  12.410  21.118  0.00  0.00    +0.000 A 
ATOM      9  C   UNL     1      -1.865  12.144  22.457  0.00  0.00    +0.000 A 
ATOM     10  C   UNL     1      -0.927  11.172  22.824  0.00  0.00    +0.000 A 
ATOM     11  C   UNL     1      -0.269  10.455  21.806  0.00  0.00    +0.000 A 
ATOM     12  S   UNL     1       0.877   9.164  21.925  0.00  0.00    +0.000 S 
ATOM     13  H   UNL     1       2.230   7.454  20.330  0.00  0.00    +0.000 HD
ENDROOT
BRANCH   1  21
ATOM     14  C   UNL     1       7.321   6.825  17.131  0.00  0.00    +0.000 C 
ATOM     15  C   UNL     1       6.245   5.786  17.042  0.00  0.00    +0.000 A 
ATOM     16  C   UNL     1       6.487   4.519  16.662  0.00  0.00    +0.000 A 
ATOM     17  C   UNL     1       5.302   3.617  16.631  0.00  0.00    +0.000 A 
ATOM     18  N   UNL     1       4.082   3.931  16.946  0.00  0.00    +0.000 NA
ATOM     19  C   UNL     1       3.876   5.228  17.333  0.00  0.00    +0.000 A 
ATOM     20  N   UNL     1       2.762   5.829  17.716  0.00  0.00    +0.000 NA
ATOM     21  C   UNL     1       3.157   7.131  17.961  0.00  0.00    +0.000 A 
ATOM     22  N   UNL     1       4.469   7.346  17.772  0.00  0.00    +0.000 NA
ATOM     23  N   UNL     1       4.933   6.150  17.376  0.00  0.00    +0.000 N 
ENDBRANCH   1  21
TORSDOF 1
ENDMDL
MODEL 8
REMARK VINA RESULT:      -7.2      1.982      8.477
REMARK  Name = 
REMARK  2 active torsions:
REMARK  status: ('A' for Active; 'I' for Inactive)
REMARK    1  A    between atoms: C_1  and  C_2
REMARK    2  A    between atoms: C_8  and  C_9
REMARK                            x       y       z     vdW  Elec       q    Type
REMARK                         _______ _______ _______ _____ _____    ______ ____
ROOT
ATOM      1  C   UNL     1       1.737   8.543  19.242  0.00  0.00    +0.000 C 
ATOM      2  O   UNL     1       1.645   9.454  18.420  0.00  0.00    +0.000 OA
ATOM      3  N   UNL     1       1.148   8.553  20.492  0.00  0.00    +0.000 N 
ATOM      4  C   UNL     1       0.330   9.593  20.867  0.00  0.00    +0.000 A 
ATOM      5  N   UNL     1      -0.238  10.492  20.105  0.00  0.00    +0.000 NA
ATOM      6  C   UNL     1      -0.998  11.360  20.871  0.00  0.00    +0.000 A 
ATOM      7  C   UNL     1      -1.787  12.427  20.389  0.00  0.00    +0.000 A 
ATOM      8  C   UNL     1      -2.515  13.220  21.283  0.00  0.00    +0.000 A 
ATOM      9  C   UNL     1      -2.452  12.972  22.650  0.00  0.00    +0.000 A 
ATOM     10  C   UNL     1      -1.672  11.925  23.155  0.00  0.00    +0.000 A 
ATOM     11  C   UNL     1      -0.964  11.115  22.246  0.00  0.00    +0.000 A 
ATOM     12  S   UNL     1       0.021   9.723  22.539  0.00  0.00    +0.000 S 
ATOM     13  H   UNL     1       1.388   7.839  21.168  0.00  0.00    +0.000 HD
ENDROOT
BRANCH   1  21
ATOM     14  C   UNL     1       5.197   6.230  15.787  0.00  0.00    +0.000 C 
ATOM     15  C   UNL     1       4.799   5.474  17.018  0.00  0.00    +0.000 A 
ATOM     16  C   UNL     1       5.265   4.246  17.300  0.00  0.00    +0.000 A 
ATOM     17  C   UNL     1       4.767   3.641  18.566  0.00  0.00    +0.000 A 
ATOM     18  N   UNL     1       3.948   4.186  19.415  0.00  0.00    +0.000 NA
ATOM     19  C   UNL     1       3.498   5.439  19.095  0.00  0.00    +0.000 A 
ATOM     20  N   UNL     1       2.678   6.237  19.759  0.00  0.00    +0.000 NA
ATOM     21  C   UNL     1       2.575   7.351  18.948  0.00  0.00    +0.000 A 
ATOM     22  N   UNL     1       3.316   7.282  17.830  0.00  0.00    +0.000 NA
ATOM     23  N   UNL     1       3.905   6.077  17.914  0.00  0.00    +0.000 N 
ENDBRANCH   1  21
TORSDOF 1
ENDMDL
MODEL 9
REMARK VINA RESULT:      -7.1      2.744      8.285
REMARK  Name = 
REMARK  2 active torsions:
REMARK  status: ('A' for Active; 'I' for Inactive)
REMARK    1  A    between atoms: C_1  and  C_2
REMARK    2  A    between atoms: C_8  and  C_9
REMARK                            x       y       z     vdW  Elec       q    Type
REMARK                         _______ _______ _______ _____ _____    ______ ____
ROOT
ATOM      1  C   UNL     1       2.087   7.488  19.545  0.00  0.00    +0.000 C 
ATOM      2  O   UNL     1       2.367   8.316  18.677  0.00  0.00    +0.000 OA
ATOM      3  N   UNL     1       1.346   7.762  20.679  0.00  0.00    +0.000 N 
ATOM      4  C   UNL     1       0.793   9.007  20.864  0.00  0.00    +0.000 A 
ATOM      5  N   UNL     1       0.606   9.952  19.977  0.00  0.00    +0.000 NA
ATOM      6  C   UNL     1       0.004  11.051  20.566  0.00  0.00    +0.000 A 
ATOM      7  C   UNL     1      -0.388  12.238  19.910  0.00  0.00    +0.000 A 
ATOM      8  C   UNL     1      -0.999  13.269  20.633  0.00  0.00    +0.000 A 
ATOM      9  C   UNL     1      -1.207  13.136  22.002  0.00  0.00    +0.000 A 
ATOM     10  C   UNL     1      -0.822  11.972  22.677  0.00  0.00    +0.000 A 
ATOM     11  C   UNL     1      -0.232  10.929  21.937  0.00  0.00    +0.000 A 
ATOM     12  S   UNL     1       0.287   9.361  22.453  0.00  0.00    +0.000 S 
ATOM     13  H   UNL     1       1.282   7.073  21.417  0.00  0.00    +0.000 HD
ENDROOT
BRANCH   1  21
ATOM     14  C   UNL     1       0.868   2.287  18.697  0.00  0.00    +0.000 C 
ATOM     15  C   UNL     1       2.292   2.653  18.986  0.00  0.00    +0.000 A 
ATOM     16  C   UNL     1       3.280   1.743  19.042  0.00  0.00    +0.000 A 
ATOM     17  C   UNL     1       4.637   2.281  19.338  0.00  0.00    +0.000 A 
ATOM     18  N   UNL     1       4.951   3.526  19.531  0.00  0.00    +0.000 NA
ATOM     19  C   UNL     1       3.919   4.424  19.461  0.00  0.00    +0.000 A 
ATOM     20  N   UNL     1       3.933   5.739  19.600  0.00  0.00    +0.000 NA
ATOM     21  C   UNL     1       2.607   6.100  19.449  0.00  0.00    +0.000 A 
ATOM     22  N   UNL     1       1.787   5.066  19.197  0.00  0.00    +0.000 NA
ATOM     23  N   UNL     1       2.607   4.002  19.201  0.00  0.00    +0.000 N 
ENDBRANCH   1  21
TORSDOF 1
ENDMDL
