MODEL 1
REMARK VINA RESULT:      -6.9      0.000      0.000
REMARK  Name = 
REMARK  11 active torsions:
REMARK  status: ('A' for Active; 'I' for Inactive)
REMARK    1  A    between atoms: C_2  and  C_3
REMARK    2  A    between atoms: C_3  and  C_4
REMARK    3  A    between atoms: C_4  and  C_5
REMARK    4  A    between atoms: C_5  and  C_6
REMARK    5  A    between atoms: C_6  and  C_7
REMARK    6  A    between atoms: C_7  and  N_8
REMARK    7  A    between atoms: C_9  and  C_11
REMARK    8  A    between atoms: C_11  and  C_12
REMARK    9  A    between atoms: C_12  and  C_13
REMARK   10  A    between atoms: C_13  and  C_14
REMARK   11  A    between atoms: N_20  and  O_21
REMARK                            x       y       z     vdW  Elec       q    Type
REMARK                         _______ _______ _______ _____ _____    ______ ____
ROOT
ATOM      1  N   UNL     1       5.068   3.105  18.777  0.00  0.00    +0.000 N 
ATOM      2  C   UNL     1       4.229   2.275  19.481  0.00  0.00    +0.000 C 
ATOM      3  O   UNL     1       4.116   2.309  20.702  0.00  0.00    +0.000 OA
ATOM      4  H   UNL     1       5.150   3.005  17.774  0.00  0.00    +0.000 HD
ENDROOT
BRANCH   1   5
ATOM      5  C   UNL     1       5.860   4.107  19.462  0.00  0.00    +0.000 C 
BRANCH   5   6
ATOM      6  C   UNL     1       5.891   5.447  18.732  0.00  0.00    +0.000 C 
BRANCH   6   7
ATOM      7  C   UNL     1       7.217   5.696  18.005  0.00  0.00    +0.000 C 
BRANCH   7   8
ATOM      8  C   UNL     1       7.463   4.636  16.929  0.00  0.00    +0.000 C 
BRANCH   8   9
ATOM      9  C   UNL     1       6.343   4.626  15.890  0.00  0.00    +0.000 C 
BRANCH   9  11
ATOM     10  O   UNL     1       6.420   4.113  13.513  0.00  0.00    +0.000 OA
ATOM     11  C   UNL     1       6.875   4.726  14.475  0.00  0.00    +0.000 C 
ATOM     12  N   UNL     1       7.935   5.588  14.353  0.00  0.00    +0.000 N 
ATOM     13  H   UNL     1       8.354   6.120  15.109  0.00  0.00    +0.000 HD
BRANCH  12  14
ATOM     14  O   UNL     1       8.487   5.743  13.065  0.00  0.00    +0.000 OA
ATOM     15  H   UNL     1       7.927   5.149  12.522  0.00  0.00    +0.000 HD
ENDBRANCH  12  14
ENDBRANCH   9  11
ENDBRANCH   8   9
ENDBRANCH   7   8
ENDBRANCH   6   7
ENDBRANCH   5   6
ENDBRANCH   1   5
BRANCH   2  16
ATOM     16  C   UNL     1       3.435   1.312  18.621  0.00  0.00    +0.000 C 
BRANCH  16  17
ATOM     17  C   UNL     1       2.427   2.080  17.772  0.00  0.00    +0.000 C 
BRANCH  17  18
ATOM     18  C   UNL     1       1.319   2.700  18.627  0.00  0.00    +0.000 C 
BRANCH  18  19
ATOM     19  C   UNL     1       1.627   4.144  18.933  0.00  0.00    +0.000 A 
ATOM     20  C   UNL     1       2.064   5.011  17.922  0.00  0.00    +0.000 A 
ATOM     21  C   UNL     1       2.438   6.320  18.229  0.00  0.00    +0.000 A 
ATOM     22  C   UNL     1       2.370   6.777  19.543  0.00  0.00    +0.000 A 
ATOM     23  C   UNL     1       1.916   5.930  20.552  0.00  0.00    +0.000 A 
ATOM     24  C   UNL     1       1.546   4.619  20.249  0.00  0.00    +0.000 A 
ENDBRANCH  18  19
ENDBRANCH  17  18
ENDBRANCH  16  17
ENDBRANCH   2  16
TORSDOF 11
ENDMDL
MODEL 2
REMARK VINA RESULT:      -6.5      2.769      6.649
REMARK  Name = 
REMARK  11 active torsions:
REMARK  status: ('A' for Active; 'I' for Inactive)
REMARK    1  A    between atoms: C_2  and  C_3
REMARK    2  A    between atoms: C_3  and  C_4
REMARK    3  A    between atoms: C_4  and  C_5
REMARK    4  A    between atoms: C_5  and  C_6
REMARK    5  A    between atoms: C_6  and  C_7
REMARK    6  A    between atoms: C_7  and  N_8
REMARK    7  A    between atoms: C_9  and  C_11
REMARK    8  A    between atoms: C_11  and  C_12
REMARK    9  A    between atoms: C_12  and  C_13
REMARK   10  A    between atoms: C_13  and  C_14
REMARK   11  A    between atoms: N_20  and  O_21
REMARK                            x       y       z     vdW  Elec       q    Type
REMARK                         _______ _______ _______ _____ _____    ______ ____
ROOT
ATOM      1  N   UNL     1       5.651   3.503  18.983  0.00  0.00    +0.000 N 
ATOM      2  C   UNL     1       5.694   4.876  18.954  0.00  0.00    +0.000 C 
ATOM      3  O   UNL     1       4.864   5.588  19.509  0.00  0.00    +0.000 OA
ATOM      4  H   UNL     1       6.340   2.966  18.473  0.00  0.00    +0.000 HD
ENDROOT
BRANCH   1   5
ATOM      5  C   UNL     1       4.609   2.812  19.717  0.00  0.00    +0.000 C 
BRANCH   5   6
ATOM      6  C   UNL     1       3.864   1.784  18.872  0.00  0.00    +0.000 C 
BRANCH   6   7
ATOM      7  C   UNL     1       2.375   2.113  18.713  0.00  0.00    +0.000 C 
BRANCH   7   8
ATOM      8  C   UNL     1       1.718   2.362  20.072  0.00  0.00    +0.000 C 
BRANCH   8   9
ATOM      9  C   UNL     1       0.813   3.592  20.037  0.00  0.00    +0.000 C 
BRANCH   9  11
ATOM     10  O   UNL     1       1.892   5.145  18.505  0.00  0.00    +0.000 OA
ATOM     11  C   UNL     1       1.569   4.848  19.652  0.00  0.00    +0.000 C 
ATOM     12  N   UNL     1       1.865   5.652  20.723  0.00  0.00    +0.000 N 
ATOM     13  H   UNL     1       1.627   5.460  21.691  0.00  0.00    +0.000 HD
BRANCH  12  14
ATOM     14  O   UNL     1       2.565   6.845  20.450  0.00  0.00    +0.000 OA
ATOM     15  H   UNL     1       3.331   6.785  21.058  0.00  0.00    +0.000 HD
ENDBRANCH  12  14
ENDBRANCH   9  11
ENDBRANCH   8   9
ENDBRANCH   7   8
ENDBRANCH   6   7
ENDBRANCH   5   6
ENDBRANCH   1   5
BRANCH   2  16
ATOM     16  C   UNL     1       6.867   5.450  18.184  0.00  0.00    +0.000 C 
BRANCH  16  17
ATOM     17  C   UNL     1       7.092   4.651  16.904  0.00  0.00    +0.000 C 
BRANCH  17  18
ATOM     18  C   UNL     1       5.936   4.823  15.916  0.00  0.00    +0.000 C 
BRANCH  18  19
ATOM     19  C   UNL     1       6.397   4.555  14.506  0.00  0.00    +0.000 A 
ATOM     20  C   UNL     1       7.479   5.260  13.961  0.00  0.00    +0.000 A 
ATOM     21  C   UNL     1       7.841   5.077  12.626  0.00  0.00    +0.000 A 
ATOM     22  C   UNL     1       7.131   4.183  11.825  0.00  0.00    +0.000 A 
ATOM     23  C   UNL     1       6.067   3.461  12.363  0.00  0.00    +0.000 A 
ATOM     24  C   UNL     1       5.701   3.647  13.697  0.00  0.00    +0.000 A 
ENDBRANCH  18  19
ENDBRANCH  17  18
ENDBRANCH  16  17
ENDBRANCH   2  16
TORSDOF 11
ENDMDL
MODEL 3
REMARK VINA RESULT:      -6.5      4.928      6.188
REMARK  Name = 
REMARK  11 active torsions:
REMARK  status: ('A' for Active; 'I' for Inactive)
REMARK    1  A    between atoms: C_2  and  C_3
REMARK    2  A    between atoms: C_3  and  C_4
REMARK    3  A    between atoms: C_4  and  C_5
REMARK    4  A    between atoms: C_5  and  C_6
REMARK    5  A    between atoms: C_6  and  C_7
REMARK    6  A    between atoms: C_7  and  N_8
REMARK    7  A    between atoms: C_9  and  C_11
REMARK    8  A    between atoms: C_11  and  C_12
REMARK    9  A    between atoms: C_12  and  C_13
REMARK   10  A    between atoms: C_13  and  C_14
REMARK   11  A    between atoms: N_20  and  O_21
REMARK                            x       y       z     vdW  Elec       q    Type
REMARK                         _______ _______ _______ _____ _____    ______ ____
ROOT
ATOM      1  N   UNL     1       6.656   7.564  17.232  0.00  0.00    +0.000 N 
ATOM      2  C   UNL     1       6.471   6.273  16.798  0.00  0.00    +0.000 C 
ATOM      3  O   UNL     1       7.386   5.463  16.688  0.00  0.00    +0.000 OA
ATOM      4  H   UNL     1       5.870   8.201  17.265  0.00  0.00    +0.000 HD
ENDROOT
BRANCH   1   5
ATOM      5  C   UNL     1       7.971   8.033  17.618  0.00  0.00    +0.000 C 
BRANCH   5   6
ATOM      6  C   UNL     1       8.031   9.543  17.825  0.00  0.00    +0.000 C 
BRANCH   6   7
ATOM      7  C   UNL     1       9.086   9.960  18.855  0.00  0.00    +0.000 C 
BRANCH   7   8
ATOM      8  C   UNL     1       9.890  11.165  18.364  0.00  0.00    +0.000 C 
BRANCH   8   9
ATOM      9  C   UNL     1       9.109  12.466  18.541  0.00  0.00    +0.000 C 
BRANCH   9  11
ATOM     10  O   UNL     1       9.450  14.795  17.924  0.00  0.00    +0.000 OA
ATOM     11  C   UNL     1       9.712  13.608  17.748  0.00  0.00    +0.000 C 
ATOM     12  N   UNL     1      10.605  13.194  16.794  0.00  0.00    +0.000 N 
ATOM     13  H   UNL     1      10.861  12.231  16.601  0.00  0.00    +0.000 HD
BRANCH  12  14
ATOM     14  O   UNL     1      11.216  14.197  16.013  0.00  0.00    +0.000 OA
ATOM     15  H   UNL     1      10.918  15.020  16.456  0.00  0.00    +0.000 HD
ENDBRANCH  12  14
ENDBRANCH   9  11
ENDBRANCH   8   9
ENDBRANCH   7   8
ENDBRANCH   6   7
ENDBRANCH   5   6
ENDBRANCH   1   5
BRANCH   2  16
ATOM     16  C   UNL     1       5.034   5.919  16.475  0.00  0.00    +0.000 C 
BRANCH  16  17
ATOM     17  C   UNL     1       4.130   6.286  17.648  0.00  0.00    +0.000 C 
BRANCH  17  18
ATOM     18  C   UNL     1       4.295   5.315  18.819  0.00  0.00    +0.000 C 
BRANCH  18  19
ATOM     19  C   UNL     1       3.009   4.573  19.082  0.00  0.00    +0.000 A 
ATOM     20  C   UNL     1       2.220   4.885  20.198  0.00  0.00    +0.000 A 
ATOM     21  C   UNL     1       1.081   4.133  20.490  0.00  0.00    +0.000 A 
ATOM     22  C   UNL     1       0.715   3.071  19.666  0.00  0.00    +0.000 A 
ATOM     23  C   UNL     1       1.480   2.766  18.541  0.00  0.00    +0.000 A 
ATOM     24  C   UNL     1       2.622   3.513  18.251  0.00  0.00    +0.000 A 
ENDBRANCH  18  19
ENDBRANCH  17  18
ENDBRANCH  16  17
ENDBRANCH   2  16
TORSDOF 11
ENDMDL
MODEL 4
REMARK VINA RESULT:      -6.5      1.976      3.262
REMARK  Name = 
REMARK  11 active torsions:
REMARK  status: ('A' for Active; 'I' for Inactive)
REMARK    1  A    between atoms: C_2  and  C_3
REMARK    2  A    between atoms: C_3  and  C_4
REMARK    3  A    between atoms: C_4  and  C_5
REMARK    4  A    between atoms: C_5  and  C_6
REMARK    5  A    between atoms: C_6  and  C_7
REMARK    6  A    between atoms: C_7  and  N_8
REMARK    7  A    between atoms: C_9  and  C_11
REMARK    8  A    between atoms: C_11  and  C_12
REMARK    9  A    between atoms: C_12  and  C_13
REMARK   10  A    between atoms: C_13  and  C_14
REMARK   11  A    between atoms: N_20  and  O_21
REMARK                            x       y       z     vdW  Elec       q    Type
REMARK                         _______ _______ _______ _____ _____    ______ ____
ROOT
ATOM      1  N   UNL     1       2.268   2.613  19.247  0.00  0.00    +0.000 N 
ATOM      2  C   UNL     1       2.846   2.830  20.475  0.00  0.00    +0.000 C 
ATOM      3  O   UNL     1       3.918   2.339  20.811  0.00  0.00    +0.000 OA
ATOM      4  H   UNL     1       1.362   3.012  19.039  0.00  0.00    +0.000 HD
ENDROOT
BRANCH   1   5
ATOM      5  C   UNL     1       2.931   1.792  18.253  0.00  0.00    +0.000 C 
BRANCH   5   6
ATOM      6  C   UNL     1       3.399   2.585  17.037  0.00  0.00    +0.000 C 
BRANCH   6   7
ATOM      7  C   UNL     1       3.491   4.091  17.310  0.00  0.00    +0.000 C 
BRANCH   7   8
ATOM      8  C   UNL     1       4.948   4.535  17.458  0.00  0.00    +0.000 C 
BRANCH   8   9
ATOM      9  C   UNL     1       5.770   4.173  16.223  0.00  0.00    +0.000 C 
BRANCH   9  11
ATOM     10  O   UNL     1       7.484   5.246  14.869  0.00  0.00    +0.000 OA
ATOM     11  C   UNL     1       6.798   5.234  15.888  0.00  0.00    +0.000 C 
ATOM     12  N   UNL     1       6.898   6.213  16.843  0.00  0.00    +0.000 N 
ATOM     13  H   UNL     1       6.361   6.257  17.704  0.00  0.00    +0.000 HD
BRANCH  12  14
ATOM     14  O   UNL     1       7.831   7.243  16.606  0.00  0.00    +0.000 OA
ATOM     15  H   UNL     1       8.665   6.746  16.467  0.00  0.00    +0.000 HD
ENDBRANCH  12  14
ENDBRANCH   9  11
ENDBRANCH   8   9
ENDBRANCH   7   8
ENDBRANCH   6   7
ENDBRANCH   5   6
ENDBRANCH   1   5
BRANCH   2  16
ATOM     16  C   UNL     1       2.054   3.745  21.387  0.00  0.00    +0.000 C 
BRANCH  16  17
ATOM     17  C   UNL     1       1.573   4.967  20.610  0.00  0.00    +0.000 C 
BRANCH  17  18
ATOM     18  C   UNL     1       2.740   5.844  20.151  0.00  0.00    +0.000 C 
BRANCH  18  19
ATOM     19  C   UNL     1       2.243   7.186  19.675  0.00  0.00    +0.000 A 
ATOM     20  C   UNL     1       1.515   8.023  20.531  0.00  0.00    +0.000 A 
ATOM     21  C   UNL     1       0.976   9.220  20.058  0.00  0.00    +0.000 A 
ATOM     22  C   UNL     1       1.166   9.596  18.730  0.00  0.00    +0.000 A 
ATOM     23  C   UNL     1       1.907   8.781  17.875  0.00  0.00    +0.000 A 
ATOM     24  C   UNL     1       2.442   7.581  18.345  0.00  0.00    +0.000 A 
ENDBRANCH  18  19
ENDBRANCH  17  18
ENDBRANCH  16  17
ENDBRANCH   2  16
TORSDOF 11
ENDMDL
MODEL 5
REMARK VINA RESULT:      -6.4      4.420      8.095
REMARK  Name = 
REMARK  11 active torsions:
REMARK  status: ('A' for Active; 'I' for Inactive)
REMARK    1  A    between atoms: C_2  and  C_3
REMARK    2  A    between atoms: C_3  and  C_4
REMARK    3  A    between atoms: C_4  and  C_5
REMARK    4  A    between atoms: C_5  and  C_6
REMARK    5  A    between atoms: C_6  and  C_7
REMARK    6  A    between atoms: C_7  and  N_8
REMARK    7  A    between atoms: C_9  and  C_11
REMARK    8  A    between atoms: C_11  and  C_12
REMARK    9  A    between atoms: C_12  and  C_13
REMARK   10  A    between atoms: C_13  and  C_14
REMARK   11  A    between atoms: N_20  and  O_21
REMARK                            x       y       z     vdW  Elec       q    Type
REMARK                         _______ _______ _______ _____ _____    ______ ____
ROOT
ATOM      1  N   UNL     1       5.994   6.565  17.963  0.00  0.00    +0.000 N 
ATOM      2  C   UNL     1       7.212   6.841  17.389  0.00  0.00    +0.000 C 
ATOM      3  O   UNL     1       7.497   6.537  16.235  0.00  0.00    +0.000 OA
ATOM      4  H   UNL     1       5.829   6.803  18.932  0.00  0.00    +0.000 HD
ENDROOT
BRANCH   1   5
ATOM      5  C   UNL     1       4.950   5.909  17.201  0.00  0.00    +0.000 C 
BRANCH   5   6
ATOM      6  C   UNL     1       3.547   6.340  17.615  0.00  0.00    +0.000 C 
BRANCH   6   7
ATOM      7  C   UNL     1       2.578   5.160  17.747  0.00  0.00    +0.000 C 
BRANCH   7   8
ATOM      8  C   UNL     1       2.181   4.933  19.207  0.00  0.00    +0.000 C 
BRANCH   8   9
ATOM      9  C   UNL     1       3.350   4.387  20.024  0.00  0.00    +0.000 C 
BRANCH   9  11
ATOM     10  O   UNL     1       2.668   2.111  19.499  0.00  0.00    +0.000 OA
ATOM     11  C   UNL     1       3.556   2.901  19.807  0.00  0.00    +0.000 C 
ATOM     12  N   UNL     1       4.855   2.502  19.984  0.00  0.00    +0.000 N 
ATOM     13  H   UNL     1       5.631   3.106  20.240  0.00  0.00    +0.000 HD
BRANCH  12  14
ATOM     14  O   UNL     1       5.133   1.132  19.797  0.00  0.00    +0.000 OA
ATOM     15  H   UNL     1       4.728   0.952  18.923  0.00  0.00    +0.000 HD
ENDBRANCH  12  14
ENDBRANCH   9  11
ENDBRANCH   8   9
ENDBRANCH   7   8
ENDBRANCH   6   7
ENDBRANCH   5   6
ENDBRANCH   1   5
BRANCH   2  16
ATOM     16  C   UNL     1       8.182   7.569  18.297  0.00  0.00    +0.000 C 
BRANCH  16  17
ATOM     17  C   UNL     1       8.260   9.041  17.904  0.00  0.00    +0.000 C 
BRANCH  17  18
ATOM     18  C   UNL     1       8.992   9.874  18.959  0.00  0.00    +0.000 C 
BRANCH  18  19
ATOM     19  C   UNL     1       9.568  11.125  18.345  0.00  0.00    +0.000 A 
ATOM     20  C   UNL     1      10.942  11.226  18.087  0.00  0.00    +0.000 A 
ATOM     21  C   UNL     1      11.484  12.420  17.608  0.00  0.00    +0.000 A 
ATOM     22  C   UNL     1      10.658  13.519  17.375  0.00  0.00    +0.000 A 
ATOM     23  C   UNL     1       9.288  13.421  17.608  0.00  0.00    +0.000 A 
ATOM     24  C   UNL     1       8.745  12.230  18.091  0.00  0.00    +0.000 A 
ENDBRANCH  18  19
ENDBRANCH  17  18
ENDBRANCH  16  17
ENDBRANCH   2  16
TORSDOF 11
ENDMDL
MODEL 6
REMARK VINA RESULT:      -6.4      2.548      4.015
REMARK  Name = 
REMARK  11 active torsions:
REMARK  status: ('A' for Active; 'I' for Inactive)
REMARK    1  A    between atoms: C_2  and  C_3
REMARK    2  A    between atoms: C_3  and  C_4
REMARK    3  A    between atoms: C_4  and  C_5
REMARK    4  A    between atoms: C_5  and  C_6
REMARK    5  A    between atoms: C_6  and  C_7
REMARK    6  A    between atoms: C_7  and  N_8
REMARK    7  A    between atoms: C_9  and  C_11
REMARK    8  A    between atoms: C_11  and  C_12
REMARK    9  A    between atoms: C_12  and  C_13
REMARK   10  A    between atoms: C_13  and  C_14
REMARK   11  A    between atoms: N_20  and  O_21
REMARK                            x       y       z     vdW  Elec       q    Type
REMARK                         _______ _______ _______ _____ _____    ______ ____
ROOT
ATOM      1  N   UNL     1       3.787   5.105  17.593  0.00  0.00    +0.000 N 
ATOM      2  C   UNL     1       4.204   5.572  18.817  0.00  0.00    +0.000 C 
ATOM      3  O   UNL     1       4.999   4.971  19.532  0.00  0.00    +0.000 OA
ATOM      4  H   UNL     1       3.098   5.624  17.064  0.00  0.00    +0.000 HD
ENDROOT
BRANCH   1   5
ATOM      5  C   UNL     1       4.303   3.859  17.063  0.00  0.00    +0.000 C 
BRANCH   5   6
ATOM      6  C   UNL     1       5.036   4.031  15.737  0.00  0.00    +0.000 C 
BRANCH   6   7
ATOM      7  C   UNL     1       5.539   5.462  15.517  0.00  0.00    +0.000 C 
BRANCH   7   8
ATOM      8  C   UNL     1       7.037   5.570  15.808  0.00  0.00    +0.000 C 
BRANCH   8   9
ATOM      9  C   UNL     1       7.301   6.357  17.091  0.00  0.00    +0.000 C 
BRANCH   9  11
ATOM     10  O   UNL     1       7.987   4.268  18.131  0.00  0.00    +0.000 OA
ATOM     11  C   UNL     1       7.706   5.458  18.241  0.00  0.00    +0.000 C 
ATOM     12  N   UNL     1       7.740   6.105  19.449  0.00  0.00    +0.000 N 
ATOM     13  H   UNL     1       7.519   7.084  19.603  0.00  0.00    +0.000 HD
BRANCH  12  14
ATOM     14  O   UNL     1       8.114   5.339  20.573  0.00  0.00    +0.000 OA
ATOM     15  H   UNL     1       8.784   4.729  20.199  0.00  0.00    +0.000 HD
ENDBRANCH  12  14
ENDBRANCH   9  11
ENDBRANCH   8   9
ENDBRANCH   7   8
ENDBRANCH   6   7
ENDBRANCH   5   6
ENDBRANCH   1   5
BRANCH   2  16
ATOM     16  C   UNL     1       3.609   6.909  19.213  0.00  0.00    +0.000 C 
BRANCH  16  17
ATOM     17  C   UNL     1       2.086   6.818  19.226  0.00  0.00    +0.000 C 
BRANCH  17  18
ATOM     18  C   UNL     1       1.560   6.275  20.556  0.00  0.00    +0.000 C 
BRANCH  18  19
ATOM     19  C   UNL     1       1.585   4.767  20.564  0.00  0.00    +0.000 A 
ATOM     20  C   UNL     1       2.292   4.070  21.553  0.00  0.00    +0.000 A 
ATOM     21  C   UNL     1       2.391   2.678  21.501  0.00  0.00    +0.000 A 
ATOM     22  C   UNL     1       1.780   1.972  20.467  0.00  0.00    +0.000 A 
ATOM     23  C   UNL     1       1.056   2.655  19.490  0.00  0.00    +0.000 A 
ATOM     24  C   UNL     1       0.960   4.046  19.538  0.00  0.00    +0.000 A 
ENDBRANCH  18  19
ENDBRANCH  17  18
ENDBRANCH  16  17
ENDBRANCH   2  16
TORSDOF 11
ENDMDL
MODEL 7
REMARK VINA RESULT:      -6.4      3.113      5.543
REMARK  Name = 
REMARK  11 active torsions:
REMARK  status: ('A' for Active; 'I' for Inactive)
REMARK    1  A    between atoms: C_2  and  C_3
REMARK    2  A    between atoms: C_3  and  C_4
REMARK    3  A    between atoms: C_4  and  C_5
REMARK    4  A    between atoms: C_5  and  C_6
REMARK    5  A    between atoms: C_6  and  C_7
REMARK    6  A    between atoms: C_7  and  N_8
REMARK    7  A    between atoms: C_9  and  C_11
REMARK    8  A    between atoms: C_11  and  C_12
REMARK    9  A    between atoms: C_12  and  C_13
REMARK   10  A    between atoms: C_13  and  C_14
REMARK   11  A    between atoms: N_20  and  O_21
REMARK                            x       y       z     vdW  Elec       q    Type
REMARK                         _______ _______ _______ _____ _____    ______ ____
ROOT
ATOM      1  N   UNL     1       2.190   5.913  19.526  0.00  0.00    +0.000 N 
ATOM      2  C   UNL     1       3.390   6.314  18.989  0.00  0.00    +0.000 C 
ATOM      3  O   UNL     1       4.471   5.847  19.334  0.00  0.00    +0.000 OA
ATOM      4  H   UNL     1       1.332   6.361  19.232  0.00  0.00    +0.000 HD
ENDROOT
BRANCH   1   5
ATOM      5  C   UNL     1       2.142   4.871  20.532  0.00  0.00    +0.000 C 
BRANCH   5   6
ATOM      6  C   UNL     1       0.916   3.972  20.405  0.00  0.00    +0.000 C 
BRANCH   6   7
ATOM      7  C   UNL     1       0.958   3.083  19.158  0.00  0.00    +0.000 C 
BRANCH   7   8
ATOM      8  C   UNL     1       1.888   1.887  19.365  0.00  0.00    +0.000 C 
BRANCH   8   9
ATOM      9  C   UNL     1       3.033   1.888  18.354  0.00  0.00    +0.000 C 
BRANCH   9  11
ATOM     10  O   UNL     1       4.726   2.214  20.071  0.00  0.00    +0.000 OA
ATOM     11  C   UNL     1       4.313   2.450  18.939  0.00  0.00    +0.000 C 
ATOM     12  N   UNL     1       4.994   3.264  18.071  0.00  0.00    +0.000 N 
ATOM     13  H   UNL     1       4.704   3.498  17.126  0.00  0.00    +0.000 HD
BRANCH  12  14
ATOM     14  O   UNL     1       6.201   3.826  18.537  0.00  0.00    +0.000 OA
ATOM     15  H   UNL     1       6.093   3.781  19.510  0.00  0.00    +0.000 HD
ENDBRANCH  12  14
ENDBRANCH   9  11
ENDBRANCH   8   9
ENDBRANCH   7   8
ENDBRANCH   6   7
ENDBRANCH   5   6
ENDBRANCH   1   5
BRANCH   2  16
ATOM     16  C   UNL     1       3.272   7.379  17.917  0.00  0.00    +0.000 C 
BRANCH  16  17
ATOM     17  C   UNL     1       1.849   7.928  17.881  0.00  0.00    +0.000 C 
BRANCH  17  18
ATOM     18  C   UNL     1       1.813   9.432  18.158  0.00  0.00    +0.000 C 
BRANCH  18  19
ATOM     19  C   UNL     1       0.966   9.731  19.369  0.00  0.00    +0.000 A 
ATOM     20  C   UNL     1       0.093  10.828  19.376  0.00  0.00    +0.000 A 
ATOM     21  C   UNL     1      -0.619  11.156  20.532  0.00  0.00    +0.000 A 
ATOM     22  C   UNL     1      -0.471  10.388  21.685  0.00  0.00    +0.000 A 
ATOM     23  C   UNL     1       0.378   9.283  21.682  0.00  0.00    +0.000 A 
ATOM     24  C   UNL     1       1.094   8.956  20.529  0.00  0.00    +0.000 A 
ENDBRANCH  18  19
ENDBRANCH  17  18
ENDBRANCH  16  17
ENDBRANCH   2  16
TORSDOF 11
ENDMDL
MODEL 8
REMARK VINA RESULT:      -6.4      3.150      5.215
REMARK  Name = 
REMARK  11 active torsions:
REMARK  status: ('A' for Active; 'I' for Inactive)
REMARK    1  A    between atoms: C_2  and  C_3
REMARK    2  A    between atoms: C_3  and  C_4
REMARK    3  A    between atoms: C_4  and  C_5
REMARK    4  A    between atoms: C_5  and  C_6
REMARK    5  A    between atoms: C_6  and  C_7
REMARK    6  A    between atoms: C_7  and  N_8
REMARK    7  A    between atoms: C_9  and  C_11
REMARK    8  A    between atoms: C_11  and  C_12
REMARK    9  A    between atoms: C_12  and  C_13
REMARK   10  A    between atoms: C_13  and  C_14
REMARK   11  A    between atoms: N_20  and  O_21
REMARK                            x       y       z     vdW  Elec       q    Type
REMARK                         _______ _______ _______ _____ _____    ______ ____
ROOT
ATOM      1  N   UNL     1       2.307   2.417  19.870  0.00  0.00    +0.000 N 
ATOM      2  C   UNL     1       1.882   2.544  18.569  0.00  0.00    +0.000 C 
ATOM      3  O   UNL     1       0.858   3.139  18.251  0.00  0.00    +0.000 OA
ATOM      4  H   UNL     1       3.139   1.880  20.077  0.00  0.00    +0.000 HD
ENDROOT
BRANCH   1   5
ATOM      5  C   UNL     1       1.559   3.021  20.954  0.00  0.00    +0.000 C 
BRANCH   5   6
ATOM      6  C   UNL     1       2.146   4.350  21.418  0.00  0.00    +0.000 C 
BRANCH   6   7
ATOM      7  C   UNL     1       1.616   5.545  20.618  0.00  0.00    +0.000 C 
BRANCH   7   8
ATOM      8  C   UNL     1       2.721   6.170  19.765  0.00  0.00    +0.000 C 
BRANCH   8   9
ATOM      9  C   UNL     1       2.221   6.501  18.360  0.00  0.00    +0.000 C 
BRANCH   9  11
ATOM     10  O   UNL     1       3.817   8.190  17.637  0.00  0.00    +0.000 OA
ATOM     11  C   UNL     1       2.660   7.879  17.906  0.00  0.00    +0.000 C 
ATOM     12  N   UNL     1       1.625   8.774  17.813  0.00  0.00    +0.000 N 
ATOM     13  H   UNL     1       0.651   8.577  18.022  0.00  0.00    +0.000 HD
BRANCH  12  14
ATOM     14  O   UNL     1       1.948  10.081  17.392  0.00  0.00    +0.000 OA
ATOM     15  H   UNL     1       1.078  10.531  17.415  0.00  0.00    +0.000 HD
ENDBRANCH  12  14
ENDBRANCH   9  11
ENDBRANCH   8   9
ENDBRANCH   7   8
ENDBRANCH   6   7
ENDBRANCH   5   6
ENDBRANCH   1   5
BRANCH   2  16
ATOM     16  C   UNL     1       2.793   1.897  17.545  0.00  0.00    +0.000 C 
BRANCH  16  17
ATOM     17  C   UNL     1       4.177   2.537  17.600  0.00  0.00    +0.000 C 
BRANCH  17  18
ATOM     18  C   UNL     1       4.199   3.902  16.908  0.00  0.00    +0.000 C 
BRANCH  18  19
ATOM     19  C   UNL     1       5.384   4.713  17.367  0.00  0.00    +0.000 A 
ATOM     20  C   UNL     1       5.759   4.729  18.717  0.00  0.00    +0.000 A 
ATOM     21  C   UNL     1       6.797   5.555  19.152  0.00  0.00    +0.000 A 
ATOM     22  C   UNL     1       7.474   6.365  18.242  0.00  0.00    +0.000 A 
ATOM     23  C   UNL     1       7.123   6.341  16.893  0.00  0.00    +0.000 A 
ATOM     24  C   UNL     1       6.083   5.519  16.457  0.00  0.00    +0.000 A 
ENDBRANCH  18  19
ENDBRANCH  17  18
ENDBRANCH  16  17
ENDBRANCH   2  16
TORSDOF 11
ENDMDL
MODEL 9
REMARK VINA RESULT:      -6.4      1.414      1.725
REMARK  Name = 
REMARK  11 active torsions:
REMARK  status: ('A' for Active; 'I' for Inactive)
REMARK    1  A    between atoms: C_2  and  C_3
REMARK    2  A    between atoms: C_3  and  C_4
REMARK    3  A    between atoms: C_4  and  C_5
REMARK    4  A    between atoms: C_5  and  C_6
REMARK    5  A    between atoms: C_6  and  C_7
REMARK    6  A    between atoms: C_7  and  N_8
REMARK    7  A    between atoms: C_9  and  C_11
REMARK    8  A    between atoms: C_11  and  C_12
REMARK    9  A    between atoms: C_12  and  C_13
REMARK   10  A    between atoms: C_13  and  C_14
REMARK   11  A    between atoms: N_20  and  O_21
REMARK                            x       y       z     vdW  Elec       q    Type
REMARK                         _______ _______ _______ _____ _____    ______ ____
ROOT
ATOM      1  N   UNL     1       4.572   3.339  18.669  0.00  0.00    +0.000 N 
ATOM      2  C   UNL     1       4.406   2.277  19.527  0.00  0.00    +0.000 C 
ATOM      3  O   UNL     1       5.190   2.014  20.432  0.00  0.00    +0.000 OA
ATOM      4  H   UNL     1       3.914   3.484  17.915  0.00  0.00    +0.000 HD
ENDROOT
BRANCH   1   5
ATOM      5  C   UNL     1       5.698   4.238  18.817  0.00  0.00    +0.000 C 
BRANCH   5   6
ATOM      6  C   UNL     1       6.387   4.557  17.494  0.00  0.00    +0.000 C 
BRANCH   6   7
ATOM      7  C   UNL     1       5.441   4.457  16.293  0.00  0.00    +0.000 C 
BRANCH   7   8
ATOM      8  C   UNL     1       5.880   5.395  15.166  0.00  0.00    +0.000 C 
BRANCH   8   9
ATOM      9  C   UNL     1       6.768   4.673  14.154  0.00  0.00    +0.000 C 
BRANCH   9  11
ATOM     10  O   UNL     1       4.752   3.804  13.106  0.00  0.00    +0.000 OA
ATOM     11  C   UNL     1       5.973   3.768  13.237  0.00  0.00    +0.000 C 
ATOM     12  N   UNL     1       6.752   2.881  12.539  0.00  0.00    +0.000 N 
ATOM     13  H   UNL     1       7.762   2.803  12.606  0.00  0.00    +0.000 HD
BRANCH  12  14
ATOM     14  O   UNL     1       6.089   2.003  11.658  0.00  0.00    +0.000 OA
ATOM     15  H   UNL     1       5.352   1.667  12.210  0.00  0.00    +0.000 HD
ENDBRANCH  12  14
ENDBRANCH   9  11
ENDBRANCH   8   9
ENDBRANCH   7   8
ENDBRANCH   6   7
ENDBRANCH   5   6
ENDBRANCH   1   5
BRANCH   2  16
ATOM     16  C   UNL     1       3.158   1.456  19.273  0.00  0.00    +0.000 C 
BRANCH  16  17
ATOM     17  C   UNL     1       2.397   2.019  18.076  0.00  0.00    +0.000 C 
BRANCH  17  18
ATOM     18  C   UNL     1       1.150   2.793  18.508  0.00  0.00    +0.000 C 
BRANCH  18  19
ATOM     19  C   UNL     1       1.507   4.206  18.897  0.00  0.00    +0.000 A 
ATOM     20  C   UNL     1       2.030   5.096  17.950  0.00  0.00    +0.000 A 
ATOM     21  C   UNL     1       2.448   6.372  18.335  0.00  0.00    +0.000 A 
ATOM     22  C   UNL     1       2.339   6.770  19.666  0.00  0.00    +0.000 A 
ATOM     23  C   UNL     1       1.800   5.900  20.611  0.00  0.00    +0.000 A 
ATOM     24  C   UNL     1       1.387   4.623  20.229  0.00  0.00    +0.000 A 
ENDBRANCH  18  19
ENDBRANCH  17  18
ENDBRANCH  16  17
ENDBRANCH   2  16
TORSDOF 11
ENDMDL
