MODEL 1
REMARK VINA RESULT:      -8.5      0.000      0.000
REMARK  Name = 
REMARK  3 active torsions:
REMARK  status: ('A' for Active; 'I' for Inactive)
REMARK    1  A    between atoms: C_2  and  C_3
REMARK    2  A    between atoms: C_6  and  C_7
REMARK    3  A    between atoms: C_21  and  C_22
REMARK                            x       y       z     vdW  Elec       q    Type
REMARK                         _______ _______ _______ _____ _____    ______ ____
ROOT
ATOM      1  O   UNL     1       0.751  10.930  20.809  0.00  0.00    +0.000 OA
ATOM      2  C   UNL     1       0.492  10.428  19.714  0.00  0.00    +0.000 C 
ATOM      3  N   UNL     1      -0.579  10.872  18.929  0.00  0.00    +0.000 N 
ATOM      4  C   UNL     1      -1.300  12.085  19.332  0.00  0.00    +0.000 C 
ATOM      5  C   UNL     1      -2.816  11.890  19.272  0.00  0.00    +0.000 C 
ATOM      6  N   UNL     1      -3.203  11.272  18.022  0.00  0.00    +0.000 N 
ATOM      7  C   UNL     1      -2.344  10.548  17.252  0.00  0.00    +0.000 A 
ATOM      8  N   UNL     1      -2.955  10.154  16.158  0.00  0.00    +0.000 NA
ATOM      9  N   UNL     1      -4.232  10.641  16.209  0.00  0.00    +0.000 NA
ATOM     10  C   UNL     1      -4.384  11.313  17.338  0.00  0.00    +0.000 A 
ATOM     11  C   UNL     1      -0.935  10.323  17.614  0.00  0.00    +0.000 C 
ENDROOT
BRANCH   2  12
ATOM     12  C   UNL     1       1.337   9.275  19.271  0.00  0.00    +0.000 A 
ATOM     13  C   UNL     1       1.508   8.186  20.136  0.00  0.00    +0.000 A 
ATOM     14  C   UNL     1       2.238   7.062  19.725  0.00  0.00    +0.000 A 
ATOM     15  C   UNL     1       2.785   6.983  18.434  0.00  0.00    +0.000 A 
ATOM     16  C   UNL     1       2.616   8.086  17.590  0.00  0.00    +0.000 A 
ATOM     17  C   UNL     1       1.974   9.239  18.032  0.00  0.00    +0.000 A 
BRANCH  15  18
ATOM     18  C   UNL     1       3.537   5.800  17.983  0.00  0.00    +0.000 A 
ATOM     19  C   UNL     1       3.186   4.463  18.031  0.00  0.00    +0.000 A 
ATOM     20  C   UNL     1       4.191   3.604  17.495  0.00  0.00    +0.000 A 
ATOM     21  C   UNL     1       5.286   4.304  17.049  0.00  0.00    +0.000 A 
ATOM     22  S   UNL     1       5.113   5.978  17.300  0.00  0.00    +0.000 S 
ENDBRANCH  15  18
ENDBRANCH   2  12
BRANCH  10  23
ATOM     23  C   UNL     1      -5.585  12.015  17.744  0.00  0.00    +0.000 A 
ATOM     24  C   UNL     1      -6.292  11.602  18.869  0.00  0.00    +0.000 A 
ATOM     25  C   UNL     1      -7.465  12.270  19.200  0.00  0.00    +0.000 A 
ATOM     26  C   UNL     1      -7.883  13.334  18.411  0.00  0.00    +0.000 A 
ATOM     27  C   UNL     1      -7.113  13.685  17.314  0.00  0.00    +0.000 A 
ATOM     28  N   UNL     1      -5.982  13.040  16.952  0.00  0.00    +0.000 NA
ENDBRANCH  10  23
TORSDOF 3
ENDMDL
MODEL 2
REMARK VINA RESULT:      -8.4      0.826      1.210
REMARK  Name = 
REMARK  3 active torsions:
REMARK  status: ('A' for Active; 'I' for Inactive)
REMARK    1  A    between atoms: C_2  and  C_3
REMARK    2  A    between atoms: C_6  and  C_7
REMARK    3  A    between atoms: C_21  and  C_22
REMARK                            x       y       z     vdW  Elec       q    Type
REMARK                         _______ _______ _______ _____ _____    ______ ____
ROOT
ATOM      1  O   UNL     1       0.548  10.956  20.962  0.00  0.00    +0.000 OA
ATOM      2  C   UNL     1       0.339  10.469  19.850  0.00  0.00    +0.000 C 
ATOM      3  N   UNL     1      -0.698  10.924  19.025  0.00  0.00    +0.000 N 
ATOM      4  C   UNL     1      -1.437  12.131  19.413  0.00  0.00    +0.000 C 
ATOM      5  C   UNL     1      -2.949  11.936  19.284  0.00  0.00    +0.000 C 
ATOM      6  N   UNL     1      -3.281  11.335  18.011  0.00  0.00    +0.000 N 
ATOM      7  C   UNL     1      -2.388  10.622  17.269  0.00  0.00    +0.000 A 
ATOM      8  N   UNL     1      -2.950  10.242  16.144  0.00  0.00    +0.000 NA
ATOM      9  N   UNL     1      -4.229  10.728  16.146  0.00  0.00    +0.000 NA
ATOM     10  C   UNL     1      -4.431  11.385  17.276  0.00  0.00    +0.000 A 
ATOM     11  C   UNL     1      -0.997  10.393  17.689  0.00  0.00    +0.000 C 
ENDROOT
BRANCH   2  12
ATOM     12  C   UNL     1       1.202   9.322  19.429  0.00  0.00    +0.000 A 
ATOM     13  C   UNL     1       1.339   8.223  20.287  0.00  0.00    +0.000 A 
ATOM     14  C   UNL     1       2.087   7.106  19.893  0.00  0.00    +0.000 A 
ATOM     15  C   UNL     1       2.688   7.043  18.625  0.00  0.00    +0.000 A 
ATOM     16  C   UNL     1       2.553   8.156  17.788  0.00  0.00    +0.000 A 
ATOM     17  C   UNL     1       1.891   9.302  18.217  0.00  0.00    +0.000 A 
BRANCH  15  18
ATOM     18  C   UNL     1       3.461   5.866  18.191  0.00  0.00    +0.000 A 
ATOM     19  C   UNL     1       4.784   5.778  17.797  0.00  0.00    +0.000 A 
ATOM     20  C   UNL     1       5.170   4.451  17.442  0.00  0.00    +0.000 A 
ATOM     21  C   UNL     1       4.135   3.557  17.573  0.00  0.00    +0.000 A 
ATOM     22  S   UNL     1       2.704   4.317  18.094  0.00  0.00    +0.000 S 
ENDBRANCH  15  18
ENDBRANCH   2  12
BRANCH  10  23
ATOM     23  C   UNL     1      -5.649  12.080  17.640  0.00  0.00    +0.000 A 
ATOM     24  C   UNL     1      -6.053  13.207  16.931  0.00  0.00    +0.000 A 
ATOM     25  C   UNL     1      -7.201  13.874  17.340  0.00  0.00    +0.000 A 
ATOM     26  C   UNL     1      -7.916  13.387  18.427  0.00  0.00    +0.000 A 
ATOM     27  C   UNL     1      -7.448  12.252  19.069  0.00  0.00    +0.000 A 
ATOM     28  N   UNL     1      -6.323  11.596  18.712  0.00  0.00    +0.000 NA
ENDBRANCH  10  23
TORSDOF 3
ENDMDL
MODEL 3
REMARK VINA RESULT:      -8.3      1.025      1.081
REMARK  Name = 
REMARK  3 active torsions:
REMARK  status: ('A' for Active; 'I' for Inactive)
REMARK    1  A    between atoms: C_2  and  C_3
REMARK    2  A    between atoms: C_6  and  C_7
REMARK    3  A    between atoms: C_21  and  C_22
REMARK                            x       y       z     vdW  Elec       q    Type
REMARK                         _______ _______ _______ _____ _____    ______ ____
ROOT
ATOM      1  O   UNL     1       1.030  11.388  21.048  0.00  0.00    +0.000 OA
ATOM      2  C   UNL     1       0.557  10.850  20.046  0.00  0.00    +0.000 C 
ATOM      3  N   UNL     1      -0.635  11.295  19.460  0.00  0.00    +0.000 N 
ATOM      4  C   UNL     1      -1.239  12.544  19.937  0.00  0.00    +0.000 C 
ATOM      5  C   UNL     1      -2.743  12.392  20.176  0.00  0.00    +0.000 C 
ATOM      6  N   UNL     1      -3.375  11.737  19.052  0.00  0.00    +0.000 N 
ATOM      7  C   UNL     1      -2.695  10.957  18.165  0.00  0.00    +0.000 A 
ATOM      8  N   UNL     1      -3.512  10.538  17.227  0.00  0.00    +0.000 NA
ATOM      9  N   UNL     1      -4.745  11.065  17.497  0.00  0.00    +0.000 NA
ATOM     10  C   UNL     1      -4.664  11.786  18.603  0.00  0.00    +0.000 A 
ATOM     11  C   UNL     1      -1.248  10.705  18.263  0.00  0.00    +0.000 C 
ENDROOT
BRANCH   2  12
ATOM     12  C   UNL     1       1.275   9.655  19.503  0.00  0.00    +0.000 A 
ATOM     13  C   UNL     1       1.442   8.532  20.323  0.00  0.00    +0.000 A 
ATOM     14  C   UNL     1       2.051   7.374  19.823  0.00  0.00    +0.000 A 
ATOM     15  C   UNL     1       2.479   7.296  18.487  0.00  0.00    +0.000 A 
ATOM     16  C   UNL     1       2.317   8.432  17.688  0.00  0.00    +0.000 A 
ATOM     17  C   UNL     1       1.800   9.613  18.212  0.00  0.00    +0.000 A 
BRANCH  15  18
ATOM     18  C   UNL     1       3.103   6.077  17.943  0.00  0.00    +0.000 A 
ATOM     19  C   UNL     1       2.604   4.789  17.873  0.00  0.00    +0.000 A 
ATOM     20  C   UNL     1       3.517   3.871  17.274  0.00  0.00    +0.000 A 
ATOM     21  C   UNL     1       4.692   4.478  16.902  0.00  0.00    +0.000 A 
ATOM     22  S   UNL     1       4.702   6.134  17.294  0.00  0.00    +0.000 S 
ENDBRANCH  15  18
ENDBRANCH   2  12
BRANCH  10  23
ATOM     23  C   UNL     1      -5.749  12.539  19.198  0.00  0.00    +0.000 A 
ATOM     24  C   UNL     1      -6.416  12.046  20.315  0.00  0.00    +0.000 A 
ATOM     25  C   UNL     1      -7.483  12.773  20.828  0.00  0.00    +0.000 A 
ATOM     26  C   UNL     1      -7.836  13.973  20.225  0.00  0.00    +0.000 A 
ATOM     27  C   UNL     1      -7.111  14.396  19.122  0.00  0.00    +0.000 A 
ATOM     28  N   UNL     1      -6.086  13.700  18.584  0.00  0.00    +0.000 NA
ENDBRANCH  10  23
TORSDOF 3
ENDMDL
MODEL 4
REMARK VINA RESULT:      -8.2      1.261      1.497
REMARK  Name = 
REMARK  3 active torsions:
REMARK  status: ('A' for Active; 'I' for Inactive)
REMARK    1  A    between atoms: C_2  and  C_3
REMARK    2  A    between atoms: C_6  and  C_7
REMARK    3  A    between atoms: C_21  and  C_22
REMARK                            x       y       z     vdW  Elec       q    Type
REMARK                         _______ _______ _______ _____ _____    ______ ____
ROOT
ATOM      1  O   UNL     1       1.153  11.777  20.488  0.00  0.00    +0.000 OA
ATOM      2  C   UNL     1       0.583  11.036  19.686  0.00  0.00    +0.000 C 
ATOM      3  N   UNL     1      -0.666  11.356  19.138  0.00  0.00    +0.000 N 
ATOM      4  C   UNL     1      -1.227  12.690  19.381  0.00  0.00    +0.000 C 
ATOM      5  C   UNL     1      -2.698  12.619  19.799  0.00  0.00    +0.000 C 
ATOM      6  N   UNL     1      -3.437  11.738  18.921  0.00  0.00    +0.000 N 
ATOM      7  C   UNL     1      -2.845  10.769  18.169  0.00  0.00    +0.000 A 
ATOM      8  N   UNL     1      -3.751  10.162  17.436  0.00  0.00    +0.000 NA
ATOM      9  N   UNL     1      -4.954  10.756  17.705  0.00  0.00    +0.000 NA
ATOM     10  C   UNL     1      -4.765  11.706  18.606  0.00  0.00    +0.000 A 
ATOM     11  C   UNL     1      -1.394  10.522  18.174  0.00  0.00    +0.000 C 
ENDROOT
BRANCH   2  12
ATOM     12  C   UNL     1       1.251   9.738  19.356  0.00  0.00    +0.000 A 
ATOM     13  C   UNL     1       1.319   8.740  20.337  0.00  0.00    +0.000 A 
ATOM     14  C   UNL     1       1.879   7.491  20.038  0.00  0.00    +0.000 A 
ATOM     15  C   UNL     1       2.354   7.196  18.749  0.00  0.00    +0.000 A 
ATOM     16  C   UNL     1       2.290   8.209  17.788  0.00  0.00    +0.000 A 
ATOM     17  C   UNL     1       1.822   9.479  18.111  0.00  0.00    +0.000 A 
BRANCH  15  18
ATOM     18  C   UNL     1       2.926   5.880  18.417  0.00  0.00    +0.000 A 
ATOM     19  C   UNL     1       2.338   4.797  17.789  0.00  0.00    +0.000 A 
ATOM     20  C   UNL     1       3.223   3.688  17.648  0.00  0.00    +0.000 A 
ATOM     21  C   UNL     1       4.467   3.947  18.172  0.00  0.00    +0.000 A 
ATOM     22  S   UNL     1       4.556   5.505  18.849  0.00  0.00    +0.000 S 
ENDBRANCH  15  18
ENDBRANCH   2  12
BRANCH  10  23
ATOM     23  C   UNL     1      -5.789  12.590  19.124  0.00  0.00    +0.000 A 
ATOM     24  C   UNL     1      -6.324  13.592  18.320  0.00  0.00    +0.000 A 
ATOM     25  C   UNL     1      -7.270  14.450  18.868  0.00  0.00    +0.000 A 
ATOM     26  C   UNL     1      -7.663  14.271  20.188  0.00  0.00    +0.000 A 
ATOM     27  C   UNL     1      -7.086  13.241  20.914  0.00  0.00    +0.000 A 
ATOM     28  N   UNL     1      -6.147  12.406  20.419  0.00  0.00    +0.000 NA
ENDBRANCH  10  23
TORSDOF 3
ENDMDL
MODEL 5
REMARK VINA RESULT:      -8.2      0.795      1.400
REMARK  Name = 
REMARK  3 active torsions:
REMARK  status: ('A' for Active; 'I' for Inactive)
REMARK    1  A    between atoms: C_2  and  C_3
REMARK    2  A    between atoms: C_6  and  C_7
REMARK    3  A    between atoms: C_21  and  C_22
REMARK                            x       y       z     vdW  Elec       q    Type
REMARK                         _______ _______ _______ _____ _____    ______ ____
ROOT
ATOM      1  O   UNL     1       0.993  11.154  20.670  0.00  0.00    +0.000 OA
ATOM      2  C   UNL     1       0.583  10.522  19.695  0.00  0.00    +0.000 C 
ATOM      3  N   UNL     1      -0.544  10.927  18.969  0.00  0.00    +0.000 N 
ATOM      4  C   UNL     1      -1.144  12.233  19.259  0.00  0.00    +0.000 C 
ATOM      5  C   UNL     1      -2.666  12.142  19.388  0.00  0.00    +0.000 C 
ATOM      6  N   UNL     1      -3.228  11.383  18.292  0.00  0.00    +0.000 N 
ATOM      7  C   UNL     1      -2.503  10.497  17.553  0.00  0.00    +0.000 A 
ATOM      8  N   UNL     1      -3.256   9.996  16.600  0.00  0.00    +0.000 NA
ATOM      9  N   UNL     1      -4.490  10.577  16.710  0.00  0.00    +0.000 NA
ATOM     10  C   UNL     1      -4.474  11.412  17.736  0.00  0.00    +0.000 A 
ATOM     11  C   UNL     1      -1.078  10.224  17.795  0.00  0.00    +0.000 C 
ENDROOT
BRANCH   2  12
ATOM     12  C   UNL     1       1.305   9.259  19.344  0.00  0.00    +0.000 A 
ATOM     13  C   UNL     1       1.922   9.155  18.091  0.00  0.00    +0.000 A 
ATOM     14  C   UNL     1       2.661   8.012  17.758  0.00  0.00    +0.000 A 
ATOM     15  C   UNL     1       2.830   6.963  18.676  0.00  0.00    +0.000 A 
ATOM     16  C   UNL     1       2.195   7.078  19.917  0.00  0.00    +0.000 A 
ATOM     17  C   UNL     1       1.383   8.169  20.210  0.00  0.00    +0.000 A 
BRANCH  15  18
ATOM     18  C   UNL     1       3.622   5.765  18.346  0.00  0.00    +0.000 A 
ATOM     19  C   UNL     1       3.310   4.706  17.512  0.00  0.00    +0.000 A 
ATOM     20  C   UNL     1       4.343   3.724  17.451  0.00  0.00    +0.000 A 
ATOM     21  C   UNL     1       5.419   4.054  18.239  0.00  0.00    +0.000 A 
ATOM     22  S   UNL     1       5.174   5.522  19.064  0.00  0.00    +0.000 S 
ENDBRANCH  15  18
ENDBRANCH   2  12
BRANCH  10  23
ATOM     23  C   UNL     1      -5.579  12.249  18.157  0.00  0.00    +0.000 A 
ATOM     24  C   UNL     1      -6.201  13.100  17.249  0.00  0.00    +0.000 A 
ATOM     25  C   UNL     1      -7.226  13.923  17.701  0.00  0.00    +0.000 A 
ATOM     26  C   UNL     1      -7.608  13.856  19.035  0.00  0.00    +0.000 A 
ATOM     27  C   UNL     1      -6.941  12.973  19.869  0.00  0.00    +0.000 A 
ATOM     28  N   UNL     1      -5.925  12.180  19.466  0.00  0.00    +0.000 NA
ENDBRANCH  10  23
TORSDOF 3
ENDMDL
MODEL 6
REMARK VINA RESULT:      -8.2      0.729      1.176
REMARK  Name = 
REMARK  3 active torsions:
REMARK  status: ('A' for Active; 'I' for Inactive)
REMARK    1  A    between atoms: C_2  and  C_3
REMARK    2  A    between atoms: C_6  and  C_7
REMARK    3  A    between atoms: C_21  and  C_22
REMARK                            x       y       z     vdW  Elec       q    Type
REMARK                         _______ _______ _______ _____ _____    ______ ____
ROOT
ATOM      1  O   UNL     1       1.069  11.183  20.723  0.00  0.00    +0.000 OA
ATOM      2  C   UNL     1       0.587  10.607  19.746  0.00  0.00    +0.000 C 
ATOM      3  N   UNL     1      -0.597  11.044  19.138  0.00  0.00    +0.000 N 
ATOM      4  C   UNL     1      -1.179  12.325  19.555  0.00  0.00    +0.000 C 
ATOM      5  C   UNL     1      -2.685  12.211  19.798  0.00  0.00    +0.000 C 
ATOM      6  N   UNL     1      -3.328  11.514  18.706  0.00  0.00    +0.000 N 
ATOM      7  C   UNL     1      -2.661  10.682  17.858  0.00  0.00    +0.000 A 
ATOM      8  N   UNL     1      -3.485  10.233  16.940  0.00  0.00    +0.000 NA
ATOM      9  N   UNL     1      -4.709  10.794  17.183  0.00  0.00    +0.000 NA
ATOM     10  C   UNL     1      -4.616  11.565  18.253  0.00  0.00    +0.000 A 
ATOM     11  C   UNL     1      -1.220  10.408  17.970  0.00  0.00    +0.000 C 
ENDROOT
BRANCH   2  12
ATOM     12  C   UNL     1       1.284   9.375  19.262  0.00  0.00    +0.000 A 
ATOM     13  C   UNL     1       1.807   9.356  17.962  0.00  0.00    +0.000 A 
ATOM     14  C   UNL     1       2.523   8.243  17.503  0.00  0.00    +0.000 A 
ATOM     15  C   UNL     1       2.763   7.138  18.336  0.00  0.00    +0.000 A 
ATOM     16  C   UNL     1       2.222   7.169  19.626  0.00  0.00    +0.000 A 
ATOM     17  C   UNL     1       1.430   8.233  20.048  0.00  0.00    +0.000 A 
BRANCH  15  18
ATOM     18  C   UNL     1       3.532   5.970  17.872  0.00  0.00    +0.000 A 
ATOM     19  C   UNL     1       3.135   4.651  17.741  0.00  0.00    +0.000 A 
ATOM     20  C   UNL     1       4.176   3.804  17.258  0.00  0.00    +0.000 A 
ATOM     21  C   UNL     1       5.343   4.494  17.031  0.00  0.00    +0.000 A 
ATOM     22  S   UNL     1       5.190   6.142  17.422  0.00  0.00    +0.000 S 
ENDBRANCH  15  18
ENDBRANCH   2  12
BRANCH  10  23
ATOM     23  C   UNL     1      -5.688  12.364  18.811  0.00  0.00    +0.000 A 
ATOM     24  C   UNL     1      -6.258  12.020  20.032  0.00  0.00    +0.000 A 
ATOM     25  C   UNL     1      -7.316  12.783  20.511  0.00  0.00    +0.000 A 
ATOM     26  C   UNL     1      -7.757  13.870  19.768  0.00  0.00    +0.000 A 
ATOM     27  C   UNL     1      -7.126  14.148  18.567  0.00  0.00    +0.000 A 
ATOM     28  N   UNL     1      -6.112  13.411  18.062  0.00  0.00    +0.000 NA
ENDBRANCH  10  23
TORSDOF 3
ENDMDL
MODEL 7
REMARK VINA RESULT:      -8.1      1.376      1.865
REMARK  Name = 
REMARK  3 active torsions:
REMARK  status: ('A' for Active; 'I' for Inactive)
REMARK    1  A    between atoms: C_2  and  C_3
REMARK    2  A    between atoms: C_6  and  C_7
REMARK    3  A    between atoms: C_21  and  C_22
REMARK                            x       y       z     vdW  Elec       q    Type
REMARK                         _______ _______ _______ _____ _____    ______ ____
ROOT
ATOM      1  O   UNL     1       0.813  11.334  21.293  0.00  0.00    +0.000 OA
ATOM      2  C   UNL     1       0.335  10.863  20.260  0.00  0.00    +0.000 C 
ATOM      3  N   UNL     1      -0.837  11.373  19.686  0.00  0.00    +0.000 N 
ATOM      4  C   UNL     1      -1.408  12.613  20.221  0.00  0.00    +0.000 C 
ATOM      5  C   UNL     1      -2.918  12.495  20.437  0.00  0.00    +0.000 C 
ATOM      6  N   UNL     1      -3.558  11.917  19.275  0.00  0.00    +0.000 N 
ATOM      7  C   UNL     1      -2.891  11.163  18.357  0.00  0.00    +0.000 A 
ATOM      8  N   UNL     1      -3.710  10.817  17.390  0.00  0.00    +0.000 NA
ATOM      9  N   UNL     1      -4.930  11.367  17.675  0.00  0.00    +0.000 NA
ATOM     10  C   UNL     1      -4.839  12.028  18.817  0.00  0.00    +0.000 A 
ATOM     11  C   UNL     1      -1.454  10.863  18.455  0.00  0.00    +0.000 C 
ENDROOT
BRANCH   2  12
ATOM     12  C   UNL     1       1.023   9.676  19.664  0.00  0.00    +0.000 A 
ATOM     13  C   UNL     1       1.478   9.747  18.340  0.00  0.00    +0.000 A 
ATOM     14  C   UNL     1       2.185   8.677  17.776  0.00  0.00    +0.000 A 
ATOM     15  C   UNL     1       2.483   7.527  18.524  0.00  0.00    +0.000 A 
ATOM     16  C   UNL     1       2.008   7.467  19.838  0.00  0.00    +0.000 A 
ATOM     17  C   UNL     1       1.225   8.489  20.367  0.00  0.00    +0.000 A 
BRANCH  15  18
ATOM     18  C   UNL     1       3.243   6.403  17.948  0.00  0.00    +0.000 A 
ATOM     19  C   UNL     1       2.942   5.053  17.934  0.00  0.00    +0.000 A 
ATOM     20  C   UNL     1       3.936   4.269  17.277  0.00  0.00    +0.000 A 
ATOM     21  C   UNL     1       4.973   5.038  16.805  0.00  0.00    +0.000 A 
ATOM     22  S   UNL     1       4.760   6.685  17.174  0.00  0.00    +0.000 S 
ENDBRANCH  15  18
ENDBRANCH   2  12
BRANCH  10  23
ATOM     23  C   UNL     1      -5.908  12.782  19.440  0.00  0.00    +0.000 A 
ATOM     24  C   UNL     1      -6.279  14.024  18.935  0.00  0.00    +0.000 A 
ATOM     25  C   UNL     1      -7.276  14.739  19.589  0.00  0.00    +0.000 A 
ATOM     26  C   UNL     1      -7.880  14.185  20.710  0.00  0.00    +0.000 A 
ATOM     27  C   UNL     1      -7.458  12.937  21.139  0.00  0.00    +0.000 A 
ATOM     28  N   UNL     1      -6.474  12.230  20.541  0.00  0.00    +0.000 NA
ENDBRANCH  10  23
TORSDOF 3
ENDMDL
MODEL 8
REMARK VINA RESULT:      -8.1      0.622      1.205
REMARK  Name = 
REMARK  3 active torsions:
REMARK  status: ('A' for Active; 'I' for Inactive)
REMARK    1  A    between atoms: C_2  and  C_3
REMARK    2  A    between atoms: C_6  and  C_7
REMARK    3  A    between atoms: C_21  and  C_22
REMARK                            x       y       z     vdW  Elec       q    Type
REMARK                         _______ _______ _______ _____ _____    ______ ____
ROOT
ATOM      1  O   UNL     1       0.574  10.557  20.973  0.00  0.00    +0.000 OA
ATOM      2  C   UNL     1       0.353  10.165  19.826  0.00  0.00    +0.000 C 
ATOM      3  N   UNL     1      -0.678  10.704  19.045  0.00  0.00    +0.000 N 
ATOM      4  C   UNL     1      -1.393  11.889  19.532  0.00  0.00    +0.000 C 
ATOM      5  C   UNL     1      -2.909  11.732  19.394  0.00  0.00    +0.000 C 
ATOM      6  N   UNL     1      -3.255  11.243  18.078  0.00  0.00    +0.000 N 
ATOM      7  C   UNL     1      -2.377  10.577  17.277  0.00  0.00    +0.000 A 
ATOM      8  N   UNL     1      -2.949  10.300  16.127  0.00  0.00    +0.000 NA
ATOM      9  N   UNL     1      -4.219  10.807  16.173  0.00  0.00    +0.000 NA
ATOM     10  C   UNL     1      -4.406  11.374  17.354  0.00  0.00    +0.000 A 
ATOM     11  C   UNL     1      -0.989  10.289  17.671  0.00  0.00    +0.000 C 
ENDROOT
BRANCH   2  12
ATOM     12  C   UNL     1       1.194   9.041  19.310  0.00  0.00    +0.000 A 
ATOM     13  C   UNL     1       1.728   9.129  18.017  0.00  0.00    +0.000 A 
ATOM     14  C   UNL     1       2.573   8.124  17.530  0.00  0.00    +0.000 A 
ATOM     15  C   UNL     1       2.933   7.026  18.329  0.00  0.00    +0.000 A 
ATOM     16  C   UNL     1       2.379   6.948  19.611  0.00  0.00    +0.000 A 
ATOM     17  C   UNL     1       1.465   7.896  20.058  0.00  0.00    +0.000 A 
BRANCH  15  18
ATOM     18  C   UNL     1       3.837   5.972  17.836  0.00  0.00    +0.000 A 
ATOM     19  C   UNL     1       4.829   6.043  16.874  0.00  0.00    +0.000 A 
ATOM     20  C   UNL     1       5.493   4.797  16.669  0.00  0.00    +0.000 A 
ATOM     21  C   UNL     1       4.995   3.804  17.477  0.00  0.00    +0.000 A 
ATOM     22  S   UNL     1       3.721   4.365  18.455  0.00  0.00    +0.000 S 
ENDBRANCH  15  18
ENDBRANCH   2  12
BRANCH  10  23
ATOM     23  C   UNL     1      -5.610  12.059  17.778  0.00  0.00    +0.000 A 
ATOM     24  C   UNL     1      -6.283  11.651  18.925  0.00  0.00    +0.000 A 
ATOM     25  C   UNL     1      -7.461  12.303  19.272  0.00  0.00    +0.000 A 
ATOM     26  C   UNL     1      -7.916  13.346  18.477  0.00  0.00    +0.000 A 
ATOM     27  C   UNL     1      -7.178  13.694  17.357  0.00  0.00    +0.000 A 
ATOM     28  N   UNL     1      -6.044  13.064  16.979  0.00  0.00    +0.000 NA
ENDBRANCH  10  23
TORSDOF 3
ENDMDL
MODEL 9
REMARK VINA RESULT:      -7.7      1.489      1.727
REMARK  Name = 
REMARK  3 active torsions:
REMARK  status: ('A' for Active; 'I' for Inactive)
REMARK    1  A    between atoms: C_2  and  C_3
REMARK    2  A    between atoms: C_6  and  C_7
REMARK    3  A    between atoms: C_21  and  C_22
REMARK                            x       y       z     vdW  Elec       q    Type
REMARK                         _______ _______ _______ _____ _____    ______ ____
ROOT
ATOM      1  O   UNL     1       0.961  11.087  21.482  0.00  0.00    +0.000 OA
ATOM      2  C   UNL     1       0.525  10.672  20.406  0.00  0.00    +0.000 C 
ATOM      3  N   UNL     1      -0.619  11.219  19.810  0.00  0.00    +0.000 N 
ATOM      4  C   UNL     1      -1.207  12.435  20.382  0.00  0.00    +0.000 C 
ATOM      5  C   UNL     1      -2.726  12.316  20.528  0.00  0.00    +0.000 C 
ATOM      6  N   UNL     1      -3.317  11.802  19.311  0.00  0.00    +0.000 N 
ATOM      7  C   UNL     1      -2.615  11.092  18.385  0.00  0.00    +0.000 A 
ATOM      8  N   UNL     1      -3.393  10.801  17.368  0.00  0.00    +0.000 NA
ATOM      9  N   UNL     1      -4.622  11.344  17.628  0.00  0.00    +0.000 NA
ATOM     10  C   UNL     1      -4.577  11.945  18.806  0.00  0.00    +0.000 A 
ATOM     11  C   UNL     1      -1.185  10.776  18.529  0.00  0.00    +0.000 C 
ENDROOT
BRANCH   2  12
ATOM     12  C   UNL     1       1.232   9.512  19.780  0.00  0.00    +0.000 A 
ATOM     13  C   UNL     1       1.522   8.388  20.565  0.00  0.00    +0.000 A 
ATOM     14  C   UNL     1       2.124   7.260  19.992  0.00  0.00    +0.000 A 
ATOM     15  C   UNL     1       2.422   7.213  18.620  0.00  0.00    +0.000 A 
ATOM     16  C   UNL     1       2.139   8.350  17.856  0.00  0.00    +0.000 A 
ATOM     17  C   UNL     1       1.630   9.504  18.444  0.00  0.00    +0.000 A 
BRANCH  15  18
ATOM     18  C   UNL     1       3.037   6.025  18.002  0.00  0.00    +0.000 A 
ATOM     19  C   UNL     1       4.165   5.932  17.207  0.00  0.00    +0.000 A 
ATOM     20  C   UNL     1       4.443   4.595  16.793  0.00  0.00    +0.000 A 
ATOM     21  C   UNL     1       3.522   3.699  17.279  0.00  0.00    +0.000 A 
ATOM     22  S   UNL     1       2.319   4.468  18.206  0.00  0.00    +0.000 S 
ENDBRANCH  15  18
ENDBRANCH   2  12
BRANCH  10  23
ATOM     23  C   UNL     1      -5.668  12.674  19.420  0.00  0.00    +0.000 A 
ATOM     24  C   UNL     1      -5.584  14.052  19.592  0.00  0.00    +0.000 A 
ATOM     25  C   UNL     1      -6.630  14.709  20.228  0.00  0.00    +0.000 A 
ATOM     26  C   UNL     1      -7.730  13.975  20.655  0.00  0.00    +0.000 A 
ATOM     27  C   UNL     1      -7.736  12.608  20.435  0.00  0.00    +0.000 A 
ATOM     28  N   UNL     1      -6.724  11.936  19.842  0.00  0.00    +0.000 NA
ENDBRANCH  10  23
TORSDOF 3
ENDMDL
