MODEL 1
REMARK VINA RESULT:      -5.8      0.000      0.000
REMARK  Name = 
REMARK  7 active torsions:
REMARK  status: ('A' for Active; 'I' for Inactive)
REMARK    1  A    between atoms: C_1  and  C_2
REMARK    2  A    between atoms: C_2  and  O_4
REMARK    3  A    between atoms: O_4  and  C_5
REMARK    4  A    between atoms: C_5  and  C_6
REMARK    5  A    between atoms: C_6  and  C_7
REMARK    6  A    between atoms: C_7  and  C_8
REMARK    7  A    between atoms: C_13  and  C_14
REMARK                            x       y       z     vdW  Elec       q    Type
REMARK                         _______ _______ _______ _____ _____    ______ ____
ROOT
ATOM      1  C   UNL     1       3.577   4.014  17.231  0.00  0.00    +0.000 C 
ENDROOT
BRANCH   1   2
ATOM      2  C   UNL     1       4.970   4.463  17.595  0.00  0.00    +0.000 A 
ATOM      3  N   UNL     1       5.103   4.968  18.848  0.00  0.00    +0.000 NA
ATOM      4  C   UNL     1       6.337   5.347  19.246  0.00  0.00    +0.000 A 
ATOM      5  C   UNL     1       7.465   5.232  18.458  0.00  0.00    +0.000 A 
ATOM      6  C   UNL     1       7.315   4.733  17.170  0.00  0.00    +0.000 A 
ATOM      7  C   UNL     1       6.048   4.364  16.702  0.00  0.00    +0.000 A 
ATOM      8  C   UNL     1       5.895   3.865  15.296  0.00  0.00    +0.000 C 
ENDBRANCH   1   2
BRANCH   1   9
ATOM      9  C   UNL     1       3.256   2.631  17.798  0.00  0.00    +0.000 C 
BRANCH   9  10
ATOM     10  C   UNL     1       1.932   2.633  18.558  0.00  0.00    +0.000 C 
BRANCH  10  11
ATOM     11  O   UNL     1       2.098   2.093  19.880  0.00  0.00    +0.000 OA
BRANCH  11  13
ATOM     12  C   UNL     1       0.990   4.105  20.345  0.00  0.00    +0.000 C 
ATOM     13  C   UNL     1       1.564   2.836  20.887  0.00  0.00    +0.000 C 
ATOM     14  O   UNL     1       1.582   2.544  22.076  0.00  0.00    +0.000 OA
ENDBRANCH  11  13
ENDBRANCH  10  11
ENDBRANCH   9  10
ENDBRANCH   1   9
TORSDOF 5
ENDMDL
MODEL 2
REMARK VINA RESULT:      -5.8      3.262      5.874
REMARK  Name = 
REMARK  7 active torsions:
REMARK  status: ('A' for Active; 'I' for Inactive)
REMARK    1  A    between atoms: C_1  and  C_2
REMARK    2  A    between atoms: C_2  and  O_4
REMARK    3  A    between atoms: O_4  and  C_5
REMARK    4  A    between atoms: C_5  and  C_6
REMARK    5  A    between atoms: C_6  and  C_7
REMARK    6  A    between atoms: C_7  and  C_8
REMARK    7  A    between atoms: C_13  and  C_14
REMARK                            x       y       z     vdW  Elec       q    Type
REMARK                         _______ _______ _______ _____ _____    ______ ____
ROOT
ATOM      1  C   UNL     1       4.302   5.287  18.730  0.00  0.00    +0.000 C 
ENDROOT
BRANCH   1   2
ATOM      2  C   UNL     1       3.165   4.296  18.742  0.00  0.00    +0.000 A 
ATOM      3  N   UNL     1       3.294   3.263  17.869  0.00  0.00    +0.000 NA
ATOM      4  C   UNL     1       2.328   2.320  17.864  0.00  0.00    +0.000 A 
ATOM      5  C   UNL     1       1.234   2.339  18.706  0.00  0.00    +0.000 A 
ATOM      6  C   UNL     1       1.100   3.410  19.581  0.00  0.00    +0.000 A 
ATOM      7  C   UNL     1       2.059   4.432  19.593  0.00  0.00    +0.000 A 
ATOM      8  C   UNL     1       1.881   5.602  20.514  0.00  0.00    +0.000 C 
ENDBRANCH   1   2
BRANCH   1   9
ATOM      9  C   UNL     1       4.307   6.137  17.459  0.00  0.00    +0.000 C 
BRANCH   9  10
ATOM     10  C   UNL     1       5.707   6.655  17.140  0.00  0.00    +0.000 C 
BRANCH  10  11
ATOM     11  O   UNL     1       6.176   6.131  15.887  0.00  0.00    +0.000 OA
BRANCH  11  13
ATOM     12  C   UNL     1       6.120   3.971  14.980  0.00  0.00    +0.000 C 
ATOM     13  C   UNL     1       6.768   4.907  15.948  0.00  0.00    +0.000 C 
ATOM     14  O   UNL     1       7.671   4.589  16.712  0.00  0.00    +0.000 OA
ENDBRANCH  11  13
ENDBRANCH  10  11
ENDBRANCH   9  10
ENDBRANCH   1   9
TORSDOF 5
ENDMDL
MODEL 3
REMARK VINA RESULT:      -5.8      3.224      5.821
REMARK  Name = 
REMARK  7 active torsions:
REMARK  status: ('A' for Active; 'I' for Inactive)
REMARK    1  A    between atoms: C_1  and  C_2
REMARK    2  A    between atoms: C_2  and  O_4
REMARK    3  A    between atoms: O_4  and  C_5
REMARK    4  A    between atoms: C_5  and  C_6
REMARK    5  A    between atoms: C_6  and  C_7
REMARK    6  A    between atoms: C_7  and  C_8
REMARK    7  A    between atoms: C_13  and  C_14
REMARK                            x       y       z     vdW  Elec       q    Type
REMARK                         _______ _______ _______ _____ _____    ______ ____
ROOT
ATOM      1  C   UNL     1       5.036   5.692  18.009  0.00  0.00    +0.000 C 
ENDROOT
BRANCH   1   2
ATOM      2  C   UNL     1       3.876   4.729  17.976  0.00  0.00    +0.000 A 
ATOM      3  N   UNL     1       4.218   3.420  17.854  0.00  0.00    +0.000 NA
ATOM      4  C   UNL     1       3.223   2.507  17.863  0.00  0.00    +0.000 A 
ATOM      5  C   UNL     1       1.889   2.829  18.006  0.00  0.00    +0.000 A 
ATOM      6  C   UNL     1       1.547   4.172  18.110  0.00  0.00    +0.000 A 
ATOM      7  C   UNL     1       2.543   5.156  18.067  0.00  0.00    +0.000 A 
ATOM      8  C   UNL     1       2.156   6.603  18.139  0.00  0.00    +0.000 C 
ENDBRANCH   1   2
BRANCH   1   9
ATOM      9  C   UNL     1       6.332   5.012  18.452  0.00  0.00    +0.000 C 
BRANCH   9  10
ATOM     10  C   UNL     1       7.472   5.294  17.477  0.00  0.00    +0.000 C 
BRANCH  10  11
ATOM     11  O   UNL     1       7.515   4.302  16.437  0.00  0.00    +0.000 OA
BRANCH  11  13
ATOM     12  C   UNL     1       5.908   4.042  14.752  0.00  0.00    +0.000 C 
ATOM     13  C   UNL     1       7.154   4.736  15.199  0.00  0.00    +0.000 C 
ATOM     14  O   UNL     1       7.773   5.543  14.517  0.00  0.00    +0.000 OA
ENDBRANCH  11  13
ENDBRANCH  10  11
ENDBRANCH   9  10
ENDBRANCH   1   9
TORSDOF 5
ENDMDL
MODEL 4
REMARK VINA RESULT:      -5.7      2.832      5.684
REMARK  Name = 
REMARK  7 active torsions:
REMARK  status: ('A' for Active; 'I' for Inactive)
REMARK    1  A    between atoms: C_1  and  C_2
REMARK    2  A    between atoms: C_2  and  O_4
REMARK    3  A    between atoms: O_4  and  C_5
REMARK    4  A    between atoms: C_5  and  C_6
REMARK    5  A    between atoms: C_6  and  C_7
REMARK    6  A    between atoms: C_7  and  C_8
REMARK    7  A    between atoms: C_13  and  C_14
REMARK                            x       y       z     vdW  Elec       q    Type
REMARK                         _______ _______ _______ _____ _____    ______ ____
ROOT
ATOM      1  C   UNL     1       4.376   3.430  18.358  0.00  0.00    +0.000 C 
ENDROOT
BRANCH   1   2
ATOM      2  C   UNL     1       3.229   3.300  19.329  0.00  0.00    +0.000 A 
ATOM      3  N   UNL     1       3.539   2.705  20.509  0.00  0.00    +0.000 NA
ATOM      4  C   UNL     1       2.562   2.600  21.436  0.00  0.00    +0.000 A 
ATOM      5  C   UNL     1       1.280   3.077  21.255  0.00  0.00    +0.000 A 
ATOM      6  C   UNL     1       0.967   3.667  20.035  0.00  0.00    +0.000 A 
ATOM      7  C   UNL     1       1.939   3.762  19.031  0.00  0.00    +0.000 A 
ATOM      8  C   UNL     1       1.576   4.364  17.706  0.00  0.00    +0.000 C 
ENDBRANCH   1   2
BRANCH   1   9
ATOM      9  C   UNL     1       5.248   4.649  18.662  0.00  0.00    +0.000 C 
BRANCH   9  10
ATOM     10  C   UNL     1       6.436   4.737  17.708  0.00  0.00    +0.000 C 
BRANCH  10  11
ATOM     11  O   UNL     1       6.140   4.091  16.459  0.00  0.00    +0.000 OA
BRANCH  11  13
ATOM     12  C   UNL     1       5.926   4.142  14.126  0.00  0.00    +0.000 C 
ATOM     13  C   UNL     1       5.949   4.924  15.400  0.00  0.00    +0.000 C 
ATOM     14  O   UNL     1       5.851   6.143  15.459  0.00  0.00    +0.000 OA
ENDBRANCH  11  13
ENDBRANCH  10  11
ENDBRANCH   9  10
ENDBRANCH   1   9
TORSDOF 5
ENDMDL
MODEL 5
REMARK VINA RESULT:      -5.7      3.354      5.739
REMARK  Name = 
REMARK  7 active torsions:
REMARK  status: ('A' for Active; 'I' for Inactive)
REMARK    1  A    between atoms: C_1  and  C_2
REMARK    2  A    between atoms: C_2  and  O_4
REMARK    3  A    between atoms: O_4  and  C_5
REMARK    4  A    between atoms: C_5  and  C_6
REMARK    5  A    between atoms: C_6  and  C_7
REMARK    6  A    between atoms: C_7  and  C_8
REMARK    7  A    between atoms: C_13  and  C_14
REMARK                            x       y       z     vdW  Elec       q    Type
REMARK                         _______ _______ _______ _____ _____    ______ ____
ROOT
ATOM      1  C   UNL     1       3.733   5.922  17.570  0.00  0.00    +0.000 C 
ENDROOT
BRANCH   1   2
ATOM      2  C   UNL     1       2.828   5.278  18.590  0.00  0.00    +0.000 A 
ATOM      3  N   UNL     1       2.620   6.008  19.716  0.00  0.00    +0.000 NA
ATOM      4  C   UNL     1       1.784   5.502  20.648  0.00  0.00    +0.000 A 
ATOM      5  C   UNL     1       1.120   4.300  20.510  0.00  0.00    +0.000 A 
ATOM      6  C   UNL     1       1.355   3.551  19.363  0.00  0.00    +0.000 A 
ATOM      7  C   UNL     1       2.245   4.019  18.388  0.00  0.00    +0.000 A 
ATOM      8  C   UNL     1       2.520   3.181  17.174  0.00  0.00    +0.000 C 
ENDBRANCH   1   2
BRANCH   1   9
ATOM      9  C   UNL     1       5.205   5.839  17.976  0.00  0.00    +0.000 C 
BRANCH   9  10
ATOM     10  C   UNL     1       6.087   6.673  17.051  0.00  0.00    +0.000 C 
BRANCH  10  11
ATOM     11  O   UNL     1       5.911   6.278  15.680  0.00  0.00    +0.000 OA
BRANCH  11  13
ATOM     12  C   UNL     1       5.638   4.278  14.490  0.00  0.00    +0.000 C 
ATOM     13  C   UNL     1       6.547   5.132  15.314  0.00  0.00    +0.000 C 
ATOM     14  O   UNL     1       7.682   4.810  15.641  0.00  0.00    +0.000 OA
ENDBRANCH  11  13
ENDBRANCH  10  11
ENDBRANCH   9  10
ENDBRANCH   1   9
TORSDOF 5
ENDMDL
MODEL 6
REMARK VINA RESULT:      -5.6      3.236      6.044
REMARK  Name = 
REMARK  7 active torsions:
REMARK  status: ('A' for Active; 'I' for Inactive)
REMARK    1  A    between atoms: C_1  and  C_2
REMARK    2  A    between atoms: C_2  and  O_4
REMARK    3  A    between atoms: O_4  and  C_5
REMARK    4  A    between atoms: C_5  and  C_6
REMARK    5  A    between atoms: C_6  and  C_7
REMARK    6  A    between atoms: C_7  and  C_8
REMARK    7  A    between atoms: C_13  and  C_14
REMARK                            x       y       z     vdW  Elec       q    Type
REMARK                         _______ _______ _______ _____ _____    ______ ____
ROOT
ATOM      1  C   UNL     1       4.552   4.537  18.574  0.00  0.00    +0.000 C 
ENDROOT
BRANCH   1   2
ATOM      2  C   UNL     1       3.271   4.094  19.236  0.00  0.00    +0.000 A 
ATOM      3  N   UNL     1       3.090   2.749  19.297  0.00  0.00    +0.000 NA
ATOM      4  C   UNL     1       1.982   2.291  19.918  0.00  0.00    +0.000 A 
ATOM      5  C   UNL     1       1.039   3.110  20.505  0.00  0.00    +0.000 A 
ATOM      6  C   UNL     1       1.223   4.485  20.420  0.00  0.00    +0.000 A 
ATOM      7  C   UNL     1       2.338   5.005  19.751  0.00  0.00    +0.000 A 
ATOM      8  C   UNL     1       2.502   6.491  19.632  0.00  0.00    +0.000 C 
ENDBRANCH   1   2
BRANCH   1   9
ATOM      9  C   UNL     1       4.380   4.727  17.066  0.00  0.00    +0.000 C 
BRANCH   9  10
ATOM     10  C   UNL     1       5.301   3.799  16.278  0.00  0.00    +0.000 C 
BRANCH  10  11
ATOM     11  O   UNL     1       6.606   4.381  16.124  0.00  0.00    +0.000 OA
BRANCH  11  13
ATOM     12  C   UNL     1       6.171   3.876  13.878  0.00  0.00    +0.000 C 
ATOM     13  C   UNL     1       6.961   4.693  14.848  0.00  0.00    +0.000 C 
ATOM     14  O   UNL     1       7.831   5.492  14.525  0.00  0.00    +0.000 OA
ENDBRANCH  11  13
ENDBRANCH  10  11
ENDBRANCH   9  10
ENDBRANCH   1   9
TORSDOF 5
ENDMDL
MODEL 7
REMARK VINA RESULT:      -5.6      3.078      5.636
REMARK  Name = 
REMARK  7 active torsions:
REMARK  status: ('A' for Active; 'I' for Inactive)
REMARK    1  A    between atoms: C_1  and  C_2
REMARK    2  A    between atoms: C_2  and  O_4
REMARK    3  A    between atoms: O_4  and  C_5
REMARK    4  A    between atoms: C_5  and  C_6
REMARK    5  A    between atoms: C_6  and  C_7
REMARK    6  A    between atoms: C_7  and  C_8
REMARK    7  A    between atoms: C_13  and  C_14
REMARK                            x       y       z     vdW  Elec       q    Type
REMARK                         _______ _______ _______ _____ _____    ______ ____
ROOT
ATOM      1  C   UNL     1       4.998   4.103  19.112  0.00  0.00    +0.000 C 
ENDROOT
BRANCH   1   2
ATOM      2  C   UNL     1       3.558   3.907  19.517  0.00  0.00    +0.000 A 
ATOM      3  N   UNL     1       3.021   4.924  20.239  0.00  0.00    +0.000 NA
ATOM      4  C   UNL     1       1.722   4.825  20.593  0.00  0.00    +0.000 A 
ATOM      5  C   UNL     1       0.912   3.762  20.247  0.00  0.00    +0.000 A 
ATOM      6  C   UNL     1       1.476   2.718  19.525  0.00  0.00    +0.000 A 
ATOM      7  C   UNL     1       2.830   2.760  19.170  0.00  0.00    +0.000 A 
ATOM      8  C   UNL     1       3.436   1.607  18.426  0.00  0.00    +0.000 C 
ENDBRANCH   1   2
BRANCH   1   9
ATOM      9  C   UNL     1       5.179   5.329  18.217  0.00  0.00    +0.000 C 
BRANCH   9  10
ATOM     10  C   UNL     1       4.527   5.125  16.852  0.00  0.00    +0.000 C 
BRANCH  10  11
ATOM     11  O   UNL     1       5.245   5.834  15.828  0.00  0.00    +0.000 OA
BRANCH  11  13
ATOM     12  C   UNL     1       6.074   3.920  14.761  0.00  0.00    +0.000 C 
ATOM     13  C   UNL     1       6.388   5.236  15.395  0.00  0.00    +0.000 C 
ATOM     14  O   UNL     1       7.522   5.677  15.535  0.00  0.00    +0.000 OA
ENDBRANCH  11  13
ENDBRANCH  10  11
ENDBRANCH   9  10
ENDBRANCH   1   9
TORSDOF 5
ENDMDL
MODEL 8
REMARK VINA RESULT:      -5.6      3.158      5.777
REMARK  Name = 
REMARK  7 active torsions:
REMARK  status: ('A' for Active; 'I' for Inactive)
REMARK    1  A    between atoms: C_1  and  C_2
REMARK    2  A    between atoms: C_2  and  O_4
REMARK    3  A    between atoms: O_4  and  C_5
REMARK    4  A    between atoms: C_5  and  C_6
REMARK    5  A    between atoms: C_6  and  C_7
REMARK    6  A    between atoms: C_7  and  C_8
REMARK    7  A    between atoms: C_13  and  C_14
REMARK                            x       y       z     vdW  Elec       q    Type
REMARK                         _______ _______ _______ _____ _____    ______ ____
ROOT
ATOM      1  C   UNL     1       3.899   4.940  17.237  0.00  0.00    +0.000 C 
ENDROOT
BRANCH   1   2
ATOM      2  C   UNL     1       2.819   4.329  18.096  0.00  0.00    +0.000 A 
ATOM      3  N   UNL     1       2.411   3.092  17.712  0.00  0.00    +0.000 NA
ATOM      4  C   UNL     1       1.477   2.476  18.468  0.00  0.00    +0.000 A 
ATOM      5  C   UNL     1       0.933   3.025  19.612  0.00  0.00    +0.000 A 
ATOM      6  C   UNL     1       1.342   4.300  19.985  0.00  0.00    +0.000 A 
ATOM      7  C   UNL     1       2.281   4.992  19.208  0.00  0.00    +0.000 A 
ATOM      8  C   UNL     1       2.683   6.382  19.600  0.00  0.00    +0.000 C 
ENDBRANCH   1   2
BRANCH   1   9
ATOM      9  C   UNL     1       5.128   4.037  17.135  0.00  0.00    +0.000 C 
BRANCH   9  10
ATOM     10  C   UNL     1       6.147   4.592  16.143  0.00  0.00    +0.000 C 
BRANCH  10  11
ATOM     11  O   UNL     1       7.356   4.985  16.814  0.00  0.00    +0.000 OA
BRANCH  11  13
ATOM     12  C   UNL     1       7.779   6.171  18.790  0.00  0.00    +0.000 C 
ATOM     13  C   UNL     1       7.343   6.230  17.362  0.00  0.00    +0.000 C 
ATOM     14  O   UNL     1       6.985   7.256  16.795  0.00  0.00    +0.000 OA
ENDBRANCH  11  13
ENDBRANCH  10  11
ENDBRANCH   9  10
ENDBRANCH   1   9
TORSDOF 5
ENDMDL
MODEL 9
REMARK VINA RESULT:      -5.6      1.898      2.127
REMARK  Name = 
REMARK  7 active torsions:
REMARK  status: ('A' for Active; 'I' for Inactive)
REMARK    1  A    between atoms: C_1  and  C_2
REMARK    2  A    between atoms: C_2  and  O_4
REMARK    3  A    between atoms: O_4  and  C_5
REMARK    4  A    between atoms: C_5  and  C_6
REMARK    5  A    between atoms: C_6  and  C_7
REMARK    6  A    between atoms: C_7  and  C_8
REMARK    7  A    between atoms: C_13  and  C_14
REMARK                            x       y       z     vdW  Elec       q    Type
REMARK                         _______ _______ _______ _____ _____    ______ ____
ROOT
ATOM      1  C   UNL     1       4.358   4.632  18.710  0.00  0.00    +0.000 C 
ENDROOT
BRANCH   1   2
ATOM      2  C   UNL     1       5.629   5.439  18.607  0.00  0.00    +0.000 A 
ATOM      3  N   UNL     1       6.559   5.172  19.560  0.00  0.00    +0.000 NA
ATOM      4  C   UNL     1       7.735   5.832  19.494  0.00  0.00    +0.000 A 
ATOM      5  C   UNL     1       8.046   6.745  18.506  0.00  0.00    +0.000 A 
ATOM      6  C   UNL     1       7.080   7.026  17.547  0.00  0.00    +0.000 A 
ATOM      7  C   UNL     1       5.832   6.393  17.600  0.00  0.00    +0.000 A 
ATOM      8  C   UNL     1       4.785   6.737  16.582  0.00  0.00    +0.000 C 
ENDBRANCH   1   2
BRANCH   1   9
ATOM      9  C   UNL     1       4.433   3.342  17.893  0.00  0.00    +0.000 C 
BRANCH   9  10
ATOM     10  C   UNL     1       3.198   2.471  18.111  0.00  0.00    +0.000 C 
BRANCH  10  11
ATOM     11  O   UNL     1       1.996   3.255  18.034  0.00  0.00    +0.000 OA
BRANCH  11  13
ATOM     12  C   UNL     1       0.973   3.535  20.124  0.00  0.00    +0.000 C 
ATOM     13  C   UNL     1       0.965   2.823  18.809  0.00  0.00    +0.000 C 
ATOM     14  O   UNL     1       0.163   1.948  18.508  0.00  0.00    +0.000 OA
ENDBRANCH  11  13
ENDBRANCH  10  11
ENDBRANCH   9  10
ENDBRANCH   1   9
TORSDOF 5
ENDMDL
