MODEL 1
REMARK VINA RESULT:      -8.3      0.000      0.000
REMARK  Name = 
REMARK  3 active torsions:
REMARK  status: ('A' for Active; 'I' for Inactive)
REMARK    1  A    between atoms: C_2  and  O_3
REMARK    2  A    between atoms: C_2  and  C_4
REMARK    3  A    between atoms: C_9  and  C_10
REMARK                            x       y       z     vdW  Elec       q    Type
REMARK                         _______ _______ _______ _____ _____    ______ ____
ROOT
ATOM      1  C   UNL     1       3.995   4.405  19.717  0.00  0.00    +0.000 C 
ATOM      2  C   UNL     1       3.652   3.600  18.458  0.00  0.00    +0.000 C 
ATOM      3  C   UNL     1       4.666   4.125  17.511  0.00  0.00    +0.000 A 
ATOM      4  C   UNL     1       4.861   3.778  16.174  0.00  0.00    +0.000 A 
ATOM      5  C   UNL     1       5.917   4.414  15.479  0.00  0.00    +0.000 A 
ATOM      6  C   UNL     1       6.486   4.398  14.160  0.00  0.00    +0.000 A 
ATOM      7  N   UNL     1       7.543   5.227  14.102  0.00  0.00    +0.000 NA
ATOM      8  O   UNL     1       7.668   5.806  15.341  0.00  0.00    +0.000 OA
ATOM      9  C   UNL     1       6.706   5.331  16.170  0.00  0.00    +0.000 A 
ATOM     10  C   UNL     1       6.523   5.692  17.505  0.00  0.00    +0.000 A 
ATOM     11 CL   UNL     1       7.523   6.839  18.289  0.00  0.00    +0.000 Cl
ATOM     12  C   UNL     1       5.472   5.055  18.148  0.00  0.00    +0.000 A 
ATOM     13  O   UNL     1       5.122   5.278  19.456  0.00  0.00    +0.000 OA
ENDROOT
BRANCH   6  14
ATOM     14  C   UNL     1       6.079   3.648  12.965  0.00  0.00    +0.000 A 
ATOM     15  C   UNL     1       6.963   2.791  12.297  0.00  0.00    +0.000 A 
ATOM     16  C   UNL     1       6.541   2.057  11.184  0.00  0.00    +0.000 A 
ATOM     17  C   UNL     1       5.228   2.164  10.729  0.00  0.00    +0.000 A 
ATOM     18  C   UNL     1       4.334   3.006  11.385  0.00  0.00    +0.000 A 
ATOM     19  C   UNL     1       4.757   3.742  12.495  0.00  0.00    +0.000 A 
ENDBRANCH   6  14
BRANCH   1  21
ATOM     20  O   UNL     1       1.756   4.756  20.586  0.00  0.00    +0.000 OA
ATOM     21  C   UNL     1       2.805   5.237  20.177  0.00  0.00    +0.000 C 
BRANCH  21  22
ATOM     22  O   UNL     1       3.004   6.574  20.086  0.00  0.00    +0.000 OA
ATOM     23  H   UNL     1       3.885   6.770  19.698  0.00  0.00    +0.000 HD
ENDBRANCH  21  22
ENDBRANCH   1  21
TORSDOF 3
ENDMDL
MODEL 2
REMARK VINA RESULT:      -8.3      0.346      1.231
REMARK  Name = 
REMARK  3 active torsions:
REMARK  status: ('A' for Active; 'I' for Inactive)
REMARK    1  A    between atoms: C_2  and  O_3
REMARK    2  A    between atoms: C_2  and  C_4
REMARK    3  A    between atoms: C_9  and  C_10
REMARK                            x       y       z     vdW  Elec       q    Type
REMARK                         _______ _______ _______ _____ _____    ______ ____
ROOT
ATOM      1  C   UNL     1       4.017   4.799  19.688  0.00  0.00    +0.000 C 
ATOM      2  C   UNL     1       3.618   3.960  18.469  0.00  0.00    +0.000 C 
ATOM      3  C   UNL     1       4.653   4.383  17.494  0.00  0.00    +0.000 A 
ATOM      4  C   UNL     1       4.817   3.967  16.172  0.00  0.00    +0.000 A 
ATOM      5  C   UNL     1       5.901   4.510  15.443  0.00  0.00    +0.000 A 
ATOM      6  C   UNL     1       6.457   4.402  14.123  0.00  0.00    +0.000 A 
ATOM      7  N   UNL     1       7.560   5.167  14.022  0.00  0.00    +0.000 NA
ATOM      8  O   UNL     1       7.728   5.792  15.233  0.00  0.00    +0.000 OA
ATOM      9  C   UNL     1       6.747   5.410  16.088  0.00  0.00    +0.000 A 
ATOM     10  C   UNL     1       6.596   5.840  17.406  0.00  0.00    +0.000 A 
ATOM     11 CL   UNL     1       7.665   6.962  18.133  0.00  0.00    +0.000 Cl
ATOM     12  C   UNL     1       5.515   5.293  18.083  0.00  0.00    +0.000 A 
ATOM     13  O   UNL     1       5.190   5.594  19.382  0.00  0.00    +0.000 OA
ENDROOT
BRANCH   6  14
ATOM     14  C   UNL     1       5.999   3.625  12.966  0.00  0.00    +0.000 A 
ATOM     15  C   UNL     1       4.694   3.745  12.468  0.00  0.00    +0.000 A 
ATOM     16  C   UNL     1       4.292   3.023  11.339  0.00  0.00    +0.000 A 
ATOM     17  C   UNL     1       5.190   2.179  10.689  0.00  0.00    +0.000 A 
ATOM     18  C   UNL     1       6.491   2.052  11.166  0.00  0.00    +0.000 A 
ATOM     19  C   UNL     1       6.892   2.771  12.296  0.00  0.00    +0.000 A 
ENDBRANCH   6  14
BRANCH   1  21
ATOM     20  O   UNL     1       2.540   6.716  19.495  0.00  0.00    +0.000 OA
ATOM     21  C   UNL     1       2.880   5.718  20.117  0.00  0.00    +0.000 C 
BRANCH  21  22
ATOM     22  O   UNL     1       2.274   5.338  21.267  0.00  0.00    +0.000 OA
ATOM     23  H   UNL     1       2.547   4.429  21.523  0.00  0.00    +0.000 HD
ENDBRANCH  21  22
ENDBRANCH   1  21
TORSDOF 3
ENDMDL
MODEL 3
REMARK VINA RESULT:      -7.7      2.100      2.828
REMARK  Name = 
REMARK  3 active torsions:
REMARK  status: ('A' for Active; 'I' for Inactive)
REMARK    1  A    between atoms: C_2  and  O_3
REMARK    2  A    between atoms: C_2  and  C_4
REMARK    3  A    between atoms: C_9  and  C_10
REMARK                            x       y       z     vdW  Elec       q    Type
REMARK                         _______ _______ _______ _____ _____    ______ ____
ROOT
ATOM      1  C   UNL     1       3.149   3.038  20.520  0.00  0.00    +0.000 C 
ATOM      2  C   UNL     1       3.873   2.409  19.323  0.00  0.00    +0.000 C 
ATOM      3  C   UNL     1       4.077   3.603  18.468  0.00  0.00    +0.000 A 
ATOM      4  C   UNL     1       4.687   3.674  17.214  0.00  0.00    +0.000 A 
ATOM      5  C   UNL     1       4.775   4.945  16.599  0.00  0.00    +0.000 A 
ATOM      6  C   UNL     1       5.284   5.504  15.377  0.00  0.00    +0.000 A 
ATOM      7  N   UNL     1       5.104   6.837  15.368  0.00  0.00    +0.000 NA
ATOM      8  O   UNL     1       4.470   7.165  16.542  0.00  0.00    +0.000 OA
ATOM      9  C   UNL     1       4.268   6.047  17.283  0.00  0.00    +0.000 A 
ATOM     10  C   UNL     1       3.653   5.995  18.533  0.00  0.00    +0.000 A 
ATOM     11 CL   UNL     1       3.036   7.390  19.311  0.00  0.00    +0.000 Cl
ATOM     12  C   UNL     1       3.575   4.730  19.098  0.00  0.00    +0.000 A 
ATOM     13  O   UNL     1       3.000   4.466  20.316  0.00  0.00    +0.000 OA
ENDROOT
BRANCH   6  14
ATOM     14  C   UNL     1       5.918   4.844  14.230  0.00  0.00    +0.000 A 
ATOM     15  C   UNL     1       5.264   3.840  13.503  0.00  0.00    +0.000 A 
ATOM     16  C   UNL     1       5.874   3.253  12.389  0.00  0.00    +0.000 A 
ATOM     17  C   UNL     1       7.140   3.669  11.982  0.00  0.00    +0.000 A 
ATOM     18  C   UNL     1       7.801   4.669  12.688  0.00  0.00    +0.000 A 
ATOM     19  C   UNL     1       7.194   5.253  13.803  0.00  0.00    +0.000 A 
ENDBRANCH   6  14
BRANCH   1  21
ATOM     20  O   UNL     1       1.059   2.030  19.807  0.00  0.00    +0.000 OA
ATOM     21  C   UNL     1       1.776   2.409  20.724  0.00  0.00    +0.000 C 
BRANCH  21  22
ATOM     22  O   UNL     1       1.407   2.311  22.023  0.00  0.00    +0.000 OA
ATOM     23  H   UNL     1       1.741   3.077  22.540  0.00  0.00    +0.000 HD
ENDBRANCH  21  22
ENDBRANCH   1  21
TORSDOF 3
ENDMDL
MODEL 4
REMARK VINA RESULT:      -7.7      4.672      7.849
REMARK  Name = 
REMARK  3 active torsions:
REMARK  status: ('A' for Active; 'I' for Inactive)
REMARK    1  A    between atoms: C_2  and  O_3
REMARK    2  A    between atoms: C_2  and  C_4
REMARK    3  A    between atoms: C_9  and  C_10
REMARK                            x       y       z     vdW  Elec       q    Type
REMARK                         _______ _______ _______ _____ _____    ______ ____
ROOT
ATOM      1  C   UNL     1       3.388   2.177  19.325  0.00  0.00    +0.000 C 
ATOM      2  C   UNL     1       2.504   2.988  20.279  0.00  0.00    +0.000 C 
ATOM      3  C   UNL     1       2.622   4.340  19.680  0.00  0.00    +0.000 A 
ATOM      4  C   UNL     1       2.038   5.531  20.114  0.00  0.00    +0.000 A 
ATOM      5  C   UNL     1       2.293   6.699  19.356  0.00  0.00    +0.000 A 
ATOM      6  C   UNL     1       1.940   8.091  19.395  0.00  0.00    +0.000 A 
ATOM      7  N   UNL     1       2.477   8.734  18.343  0.00  0.00    +0.000 NA
ATOM      8  O   UNL     1       3.193   7.805  17.627  0.00  0.00    +0.000 OA
ATOM      9  C   UNL     1       3.091   6.590  18.221  0.00  0.00    +0.000 A 
ATOM     10  C   UNL     1       3.685   5.409  17.775  0.00  0.00    +0.000 A 
ATOM     11 CL   UNL     1       4.671   5.350  16.376  0.00  0.00    +0.000 Cl
ATOM     12  C   UNL     1       3.421   4.289  18.550  0.00  0.00    +0.000 A 
ATOM     13  O   UNL     1       3.919   3.038  18.287  0.00  0.00    +0.000 OA
ENDROOT
BRANCH   6  14
ATOM     14  C   UNL     1       1.134   8.834  20.371  0.00  0.00    +0.000 A 
ATOM     15  C   UNL     1       1.213   8.571  21.745  0.00  0.00    +0.000 A 
ATOM     16  C   UNL     1       0.464   9.319  22.660  0.00  0.00    +0.000 A 
ATOM     17  C   UNL     1      -0.367  10.344  22.214  0.00  0.00    +0.000 A 
ATOM     18  C   UNL     1      -0.454  10.623  20.853  0.00  0.00    +0.000 A 
ATOM     19  C   UNL     1       0.292   9.874  19.939  0.00  0.00    +0.000 A 
ENDBRANCH   6  14
BRANCH   1  21
ATOM     20  O   UNL     1       5.017   1.954  21.110  0.00  0.00    +0.000 OA
ATOM     21  C   UNL     1       4.538   1.515  20.073  0.00  0.00    +0.000 C 
BRANCH  21  22
ATOM     22  O   UNL     1       5.000   0.387  19.480  0.00  0.00    +0.000 OA
ATOM     23  H   UNL     1       5.981   0.354  19.509  0.00  0.00    +0.000 HD
ENDBRANCH  21  22
ENDBRANCH   1  21
TORSDOF 3
ENDMDL
MODEL 5
REMARK VINA RESULT:      -7.7      4.662      7.865
REMARK  Name = 
REMARK  3 active torsions:
REMARK  status: ('A' for Active; 'I' for Inactive)
REMARK    1  A    between atoms: C_2  and  O_3
REMARK    2  A    between atoms: C_2  and  C_4
REMARK    3  A    between atoms: C_9  and  C_10
REMARK                            x       y       z     vdW  Elec       q    Type
REMARK                         _______ _______ _______ _____ _____    ______ ____
ROOT
ATOM      1  C   UNL     1       3.383   2.213  19.345  0.00  0.00    +0.000 C 
ATOM      2  C   UNL     1       2.511   3.041  20.296  0.00  0.00    +0.000 C 
ATOM      3  C   UNL     1       2.630   4.384  19.677  0.00  0.00    +0.000 A 
ATOM      4  C   UNL     1       2.055   5.584  20.100  0.00  0.00    +0.000 A 
ATOM      5  C   UNL     1       2.308   6.740  19.324  0.00  0.00    +0.000 A 
ATOM      6  C   UNL     1       1.961   8.134  19.348  0.00  0.00    +0.000 A 
ATOM      7  N   UNL     1       2.492   8.760  18.282  0.00  0.00    +0.000 NA
ATOM      8  O   UNL     1       3.197   7.819  17.573  0.00  0.00    +0.000 OA
ATOM      9  C   UNL     1       3.096   6.612  18.183  0.00  0.00    +0.000 A 
ATOM     10  C   UNL     1       3.681   5.423  17.749  0.00  0.00    +0.000 A 
ATOM     11 CL   UNL     1       4.654   5.340  16.342  0.00  0.00    +0.000 Cl
ATOM     12  C   UNL     1       3.419   4.315  18.541  0.00  0.00    +0.000 A 
ATOM     13  O   UNL     1       3.909   3.057  18.291  0.00  0.00    +0.000 OA
ENDROOT
BRANCH   6  14
ATOM     14  C   UNL     1       1.167   8.893  20.321  0.00  0.00    +0.000 A 
ATOM     15  C   UNL     1       0.290   9.911  19.921  0.00  0.00    +0.000 A 
ATOM     16  C   UNL     1      -0.486  10.594  20.864  0.00  0.00    +0.000 A 
ATOM     17  C   UNL     1      -0.402  10.264  22.215  0.00  0.00    +0.000 A 
ATOM     18  C   UNL     1       0.460   9.252  22.628  0.00  0.00    +0.000 A 
ATOM     19  C   UNL     1       1.237   8.571  21.687  0.00  0.00    +0.000 A 
ENDBRANCH   6  14
BRANCH   1  21
ATOM     20  O   UNL     1       5.019   2.000  21.126  0.00  0.00    +0.000 OA
ATOM     21  C   UNL     1       4.538   1.556  20.091  0.00  0.00    +0.000 C 
BRANCH  21  22
ATOM     22  O   UNL     1       4.999   0.427  19.501  0.00  0.00    +0.000 OA
ATOM     23  H   UNL     1       5.239   0.596  18.564  0.00  0.00    +0.000 HD
ENDBRANCH  21  22
ENDBRANCH   1  21
TORSDOF 3
ENDMDL
MODEL 6
REMARK VINA RESULT:      -7.7      5.292      8.493
REMARK  Name = 
REMARK  3 active torsions:
REMARK  status: ('A' for Active; 'I' for Inactive)
REMARK    1  A    between atoms: C_2  and  O_3
REMARK    2  A    between atoms: C_2  and  C_4
REMARK    3  A    between atoms: C_9  and  C_10
REMARK                            x       y       z     vdW  Elec       q    Type
REMARK                         _______ _______ _______ _____ _____    ______ ____
ROOT
ATOM      1  C   UNL     1       2.986   2.982  19.697  0.00  0.00    +0.000 C 
ATOM      2  C   UNL     1       2.081   3.731  20.682  0.00  0.00    +0.000 C 
ATOM      3  C   UNL     1       2.153   5.106  20.129  0.00  0.00    +0.000 A 
ATOM      4  C   UNL     1       1.533   6.262  20.606  0.00  0.00    +0.000 A 
ATOM      5  C   UNL     1       1.746   7.463  19.888  0.00  0.00    +0.000 A 
ATOM      6  C   UNL     1       1.348   8.841  19.976  0.00  0.00    +0.000 A 
ATOM      7  N   UNL     1       1.859   9.536  18.944  0.00  0.00    +0.000 NA
ATOM      8  O   UNL     1       2.600   8.656  18.194  0.00  0.00    +0.000 OA
ATOM      9  C   UNL     1       2.541   7.418  18.746  0.00  0.00    +0.000 A 
ATOM     10  C   UNL     1       3.171   6.274  18.258  0.00  0.00    +0.000 A 
ATOM     11 CL   UNL     1       4.150   6.294  16.854  0.00  0.00    +0.000 Cl
ATOM     12  C   UNL     1       2.947   5.120  18.995  0.00  0.00    +0.000 A 
ATOM     13  O   UNL     1       3.484   3.895  18.687  0.00  0.00    +0.000 OA
ENDROOT
BRANCH   6  14
ATOM     14  C   UNL     1       0.524   9.523  20.980  0.00  0.00    +0.000 A 
ATOM     15  C   UNL     1       0.470   9.085  22.311  0.00  0.00    +0.000 A 
ATOM     16  C   UNL     1      -0.292   9.776  23.259  0.00  0.00    +0.000 A 
ATOM     17  C   UNL     1      -1.003  10.917  22.892  0.00  0.00    +0.000 A 
ATOM     18  C   UNL     1      -0.956  11.369  21.577  0.00  0.00    +0.000 A 
ATOM     19  C   UNL     1      -0.197  10.678  20.629  0.00  0.00    +0.000 A 
ENDBRANCH   6  14
BRANCH   1  21
ATOM     20  O   UNL     1       4.101   1.895  21.559  0.00  0.00    +0.000 OA
ATOM     21  C   UNL     1       4.161   2.332  20.417  0.00  0.00    +0.000 C 
BRANCH  21  22
ATOM     22  O   UNL     1       5.297   2.287  19.680  0.00  0.00    +0.000 OA
ATOM     23  H   UNL     1       6.024   1.862  20.185  0.00  0.00    +0.000 HD
ENDBRANCH  21  22
ENDBRANCH   1  21
TORSDOF 3
ENDMDL
MODEL 7
REMARK VINA RESULT:      -7.7      5.253      8.474
REMARK  Name = 
REMARK  3 active torsions:
REMARK  status: ('A' for Active; 'I' for Inactive)
REMARK    1  A    between atoms: C_2  and  O_3
REMARK    2  A    between atoms: C_2  and  C_4
REMARK    3  A    between atoms: C_9  and  C_10
REMARK                            x       y       z     vdW  Elec       q    Type
REMARK                         _______ _______ _______ _____ _____    ______ ____
ROOT
ATOM      1  C   UNL     1       2.969   2.883  19.759  0.00  0.00    +0.000 C 
ATOM      2  C   UNL     1       2.094   3.664  20.746  0.00  0.00    +0.000 C 
ATOM      3  C   UNL     1       2.175   5.027  20.165  0.00  0.00    +0.000 A 
ATOM      4  C   UNL     1       1.581   6.201  20.630  0.00  0.00    +0.000 A 
ATOM      5  C   UNL     1       1.798   7.384  19.884  0.00  0.00    +0.000 A 
ATOM      6  C   UNL     1       1.423   8.769  19.952  0.00  0.00    +0.000 A 
ATOM      7  N   UNL     1       1.924   9.437  18.897  0.00  0.00    +0.000 NA
ATOM      8  O   UNL     1       2.638   8.531  18.152  0.00  0.00    +0.000 OA
ATOM      9  C   UNL     1       2.571   7.306  18.729  0.00  0.00    +0.000 A 
ATOM     10  C   UNL     1       3.175   6.143  18.252  0.00  0.00    +0.000 A 
ATOM     11 CL   UNL     1       4.128   6.120  16.830  0.00  0.00    +0.000 Cl
ATOM     12  C   UNL     1       2.948   5.007  19.016  0.00  0.00    +0.000 A 
ATOM     13  O   UNL     1       3.461   3.768  18.722  0.00  0.00    +0.000 OA
ENDROOT
BRANCH   6  14
ATOM     14  C   UNL     1       0.627   9.484  20.958  0.00  0.00    +0.000 A 
ATOM     15  C   UNL     1      -0.170  10.585  20.620  0.00  0.00    +0.000 A 
ATOM     16  C   UNL     1      -0.951  11.225  21.589  0.00  0.00    +0.000 A 
ATOM     17  C   UNL     1      -0.950  10.769  22.905  0.00  0.00    +0.000 A 
ATOM     18  C   UNL     1      -0.168   9.672  23.257  0.00  0.00    +0.000 A 
ATOM     19  C   UNL     1       0.614   9.034  22.290  0.00  0.00    +0.000 A 
ENDBRANCH   6  14
BRANCH   1  21
ATOM     20  O   UNL     1       4.115   1.850  21.633  0.00  0.00    +0.000 OA
ATOM     21  C   UNL     1       4.148   2.230  20.470  0.00  0.00    +0.000 C 
BRANCH  21  22
ATOM     22  O   UNL     1       5.255   2.112  19.698  0.00  0.00    +0.000 OA
ATOM     23  H   UNL     1       6.031   1.848  20.239  0.00  0.00    +0.000 HD
ENDBRANCH  21  22
ENDBRANCH   1  21
TORSDOF 3
ENDMDL
MODEL 8
REMARK VINA RESULT:      -7.7      0.976      1.009
REMARK  Name = 
REMARK  3 active torsions:
REMARK  status: ('A' for Active; 'I' for Inactive)
REMARK    1  A    between atoms: C_2  and  O_3
REMARK    2  A    between atoms: C_2  and  C_4
REMARK    3  A    between atoms: C_9  and  C_10
REMARK                            x       y       z     vdW  Elec       q    Type
REMARK                         _______ _______ _______ _____ _____    ______ ____
ROOT
ATOM      1  C   UNL     1       3.246   3.509  20.004  0.00  0.00    +0.000 C 
ATOM      2  C   UNL     1       3.001   2.994  18.581  0.00  0.00    +0.000 C 
ATOM      3  C   UNL     1       4.166   3.579  17.873  0.00  0.00    +0.000 A 
ATOM      4  C   UNL     1       4.500   3.471  16.522  0.00  0.00    +0.000 A 
ATOM      5  C   UNL     1       5.683   4.114  16.086  0.00  0.00    +0.000 A 
ATOM      6  C   UNL     1       6.410   4.286  14.859  0.00  0.00    +0.000 A 
ATOM      7  N   UNL     1       7.530   4.998  15.081  0.00  0.00    +0.000 NA
ATOM      8  O   UNL     1       7.543   5.319  16.417  0.00  0.00    +0.000 OA
ATOM      9  C   UNL     1       6.449   4.798  17.026  0.00  0.00    +0.000 A 
ATOM     10  C   UNL     1       6.129   4.920  18.378  0.00  0.00    +0.000 A 
ATOM     11 CL   UNL     1       7.109   5.791  19.478  0.00  0.00    +0.000 Cl
ATOM     12  C   UNL     1       4.957   4.285  18.764  0.00  0.00    +0.000 A 
ATOM     13  O   UNL     1       4.464   4.295  20.045  0.00  0.00    +0.000 OA
ENDROOT
BRANCH   6  14
ATOM     14  C   UNL     1       6.099   3.819  13.503  0.00  0.00    +0.000 A 
ATOM     15  C   UNL     1       7.095   3.339  12.642  0.00  0.00    +0.000 A 
ATOM     16  C   UNL     1       6.768   2.862  11.368  0.00  0.00    +0.000 A 
ATOM     17  C   UNL     1       5.441   2.853  10.941  0.00  0.00    +0.000 A 
ATOM     18  C   UNL     1       4.439   3.321  11.785  0.00  0.00    +0.000 A 
ATOM     19  C   UNL     1       4.765   3.800  13.057  0.00  0.00    +0.000 A 
ENDBRANCH   6  14
BRANCH   1  21
ATOM     20  O   UNL     1       0.911   3.990  20.458  0.00  0.00    +0.000 OA
ATOM     21  C   UNL     1       2.078   4.358  20.488  0.00  0.00    +0.000 C 
BRANCH  21  22
ATOM     22  O   UNL     1       2.443   5.577  20.954  0.00  0.00    +0.000 OA
ATOM     23  H   UNL     1       2.902   6.094  20.256  0.00  0.00    +0.000 HD
ENDBRANCH  21  22
ENDBRANCH   1  21
TORSDOF 3
ENDMDL
MODEL 9
REMARK VINA RESULT:      -7.7      3.422      7.668
REMARK  Name = 
REMARK  3 active torsions:
REMARK  status: ('A' for Active; 'I' for Inactive)
REMARK    1  A    between atoms: C_2  and  O_3
REMARK    2  A    between atoms: C_2  and  C_4
REMARK    3  A    between atoms: C_9  and  C_10
REMARK                            x       y       z     vdW  Elec       q    Type
REMARK                         _______ _______ _______ _____ _____    ______ ____
ROOT
ATOM      1  C   UNL     1       6.770   4.710  15.825  0.00  0.00    +0.000 C 
ATOM      2  C   UNL     1       6.307   6.101  16.275  0.00  0.00    +0.000 C 
ATOM      3  C   UNL     1       5.154   5.740  17.137  0.00  0.00    +0.000 A 
ATOM      4  C   UNL     1       4.301   6.592  17.840  0.00  0.00    +0.000 A 
ATOM      5  C   UNL     1       3.274   5.999  18.612  0.00  0.00    +0.000 A 
ATOM      6  C   UNL     1       2.200   6.429  19.465  0.00  0.00    +0.000 A 
ATOM      7  N   UNL     1       1.554   5.362  19.968  0.00  0.00    +0.000 NA
ATOM      8  O   UNL     1       2.160   4.244  19.449  0.00  0.00    +0.000 OA
ATOM      9  C   UNL     1       3.185   4.610  18.640  0.00  0.00    +0.000 A 
ATOM     10  C   UNL     1       4.027   3.744  17.942  0.00  0.00    +0.000 A 
ATOM     11 CL   UNL     1       3.851   2.042  18.009  0.00  0.00    +0.000 Cl
ATOM     12  C   UNL     1       5.013   4.363  17.188  0.00  0.00    +0.000 A 
ATOM     13  O   UNL     1       5.932   3.689  16.423  0.00  0.00    +0.000 OA
ENDROOT
BRANCH   6  14
ATOM     14  C   UNL     1       1.759   7.783  19.817  0.00  0.00    +0.000 A 
ATOM     15  C   UNL     1       1.587   8.778  18.845  0.00  0.00    +0.000 A 
ATOM     16  C   UNL     1       1.126  10.051  19.201  0.00  0.00    +0.000 A 
ATOM     17  C   UNL     1       0.825  10.343  20.529  0.00  0.00    +0.000 A 
ATOM     18  C   UNL     1       0.984   9.365  21.507  0.00  0.00    +0.000 A 
ATOM     19  C   UNL     1       1.447   8.094  21.152  0.00  0.00    +0.000 A 
ENDBRANCH   6  14
BRANCH   1  21
ATOM     20  O   UNL     1       5.999   3.791  13.715  0.00  0.00    +0.000 OA
ATOM     21  C   UNL     1       6.723   4.581  14.308  0.00  0.00    +0.000 C 
BRANCH  21  22
ATOM     22  O   UNL     1       7.568   5.418  13.661  0.00  0.00    +0.000 OA
ATOM     23  H   UNL     1       7.364   6.355  13.875  0.00  0.00    +0.000 HD
ENDBRANCH  21  22
ENDBRANCH   1  21
TORSDOF 3
ENDMDL
