MODEL 1
REMARK VINA RESULT:      -8.4      0.000      0.000
REMARK  Name = 
REMARK  11 active torsions:
REMARK  status: ('A' for Active; 'I' for Inactive)
REMARK    1  A    between atoms: C_1  and  C_2
REMARK    2  A    between atoms: C_2  and  O_3
REMARK    3  A    between atoms: O_3  and  C_4
REMARK    4  A    between atoms: C_4  and  C_6
REMARK    5  A    between atoms: C_7  and  N_8
REMARK    6  A    between atoms: C_9  and  C_11
REMARK    7  A    between atoms: C_11  and  C_12
REMARK    8  A    between atoms: C_12  and  N_13
REMARK    9  A    between atoms: C_14  and  C_15
REMARK   10  A    between atoms: C_25  and  C_26
REMARK   11  A    between atoms: C_26  and  C_27
REMARK                            x       y       z     vdW  Elec       q    Type
REMARK                         _______ _______ _______ _____ _____    ______ ____
ROOT
ATOM      1  C   UNL     1       4.082   4.052  18.163  0.00  0.00    +0.000 C 
ATOM      2  C   UNL     1       4.420   5.038  17.096  0.00  0.00    +0.000 C 
ATOM      3  N   UNL     1       3.923   6.680  17.029  0.00  0.00    +0.000 N 
ATOM      4  C   UNL     1       3.014   7.451  18.290  0.00  0.00    +0.000 A 
ATOM      5  C   UNL     1       2.507   8.674  17.858  0.00  0.00    +0.000 A 
ATOM      6  C   UNL     1       1.562   9.288  18.688  0.00  0.00    +0.000 A 
ATOM      7  C   UNL     1       1.158   8.758  19.946  0.00  0.00    +0.000 A 
ATOM      8  C   UNL     1       1.592   7.519  20.448  0.00  0.00    +0.000 A 
ATOM      9  C   UNL     1       2.440   6.732  19.686  0.00  0.00    +0.000 A 
ATOM     10  N   UNL     1       2.611   5.174  20.337  0.00  0.00    +0.000 NA
ATOM     11  C   UNL     1       3.258   4.084  19.759  0.00  0.00    +0.000 C 
ATOM     12  H   UNL     1       4.582   7.322  16.603  0.00  0.00    +0.000 HD
ENDROOT
BRANCH   2  13
ATOM     13  N   UNL     1       5.218   4.565  16.050  0.00  0.00    +0.000 N 
ATOM     14  C   UNL     1       6.296   5.263  15.508  0.00  0.00    +0.000 C 
ATOM     15  O   UNL     1       6.680   6.368  15.884  0.00  0.00    +0.000 OA
ATOM     16  H   UNL     1       4.977   3.654  15.659  0.00  0.00    +0.000 HD
BRANCH  14  17
ATOM     17  C   UNL     1       6.960   4.565  14.344  0.00  0.00    +0.000 C 
BRANCH  17  18
ATOM     18  C   UNL     1       5.877   3.900  13.490  0.00  0.00    +0.000 C 
BRANCH  18  19
ATOM     19  N   UNL     1       6.385   2.859  12.616  0.00  0.00    +0.000 N 
ATOM     20  C   UNL     1       5.589   2.291  11.647  0.00  0.00    +0.000 C 
ATOM     21  C   UNL     1       6.208   1.087  10.979  0.00  0.00    +0.000 C 
ATOM     22  O   UNL     1       4.485   2.714  11.341  0.00  0.00    +0.000 OA
ATOM     23  H   UNL     1       7.194   2.344  12.943  0.00  0.00    +0.000 HD
ENDBRANCH  18  19
ENDBRANCH  17  18
ENDBRANCH  14  17
ENDBRANCH   2  13
BRANCH   1  24
ATOM     24  C   UNL     1       3.686   5.283  18.403  0.00  0.00    +0.000 C 
ATOM     25  O   UNL     1       2.586   5.552  17.811  0.00  0.00    +0.000 OA
BRANCH  24  26
ATOM     26  O   UNL     1       5.052   5.854  18.869  0.00  0.00    +0.000 OA
BRANCH  26  28
ATOM     27  C   UNL     1       7.526   5.864  19.106  0.00  0.00    +0.000 C 
ATOM     28  C   UNL     1       6.229   5.165  19.438  0.00  0.00    +0.000 C 
ENDBRANCH  26  28
ENDBRANCH  24  26
ENDBRANCH   1  24
BRANCH  11  29
ATOM     29  C   UNL     1       3.381   2.760  20.481  0.00  0.00    +0.000 C 
ATOM     30  C   UNL     1       2.311   2.623  21.544  0.00  0.00    +0.000 C 
ENDBRANCH  11  29
TORSDOF 8
ENDMDL
MODEL 2
REMARK VINA RESULT:      -7.5      1.669      3.337
REMARK  Name = 
REMARK  11 active torsions:
REMARK  status: ('A' for Active; 'I' for Inactive)
REMARK    1  A    between atoms: C_1  and  C_2
REMARK    2  A    between atoms: C_2  and  O_3
REMARK    3  A    between atoms: O_3  and  C_4
REMARK    4  A    between atoms: C_4  and  C_6
REMARK    5  A    between atoms: C_7  and  N_8
REMARK    6  A    between atoms: C_9  and  C_11
REMARK    7  A    between atoms: C_11  and  C_12
REMARK    8  A    between atoms: C_12  and  N_13
REMARK    9  A    between atoms: C_14  and  C_15
REMARK   10  A    between atoms: C_25  and  C_26
REMARK   11  A    between atoms: C_26  and  C_27
REMARK                            x       y       z     vdW  Elec       q    Type
REMARK                         _______ _______ _______ _____ _____    ______ ____
ROOT
ATOM      1  C   UNL     1       6.275   4.666  17.397  0.00  0.00    +0.000 C 
ATOM      2  C   UNL     1       5.359   4.177  16.326  0.00  0.00    +0.000 C 
ATOM      3  N   UNL     1       3.703   3.764  16.511  0.00  0.00    +0.000 N 
ATOM      4  C   UNL     1       2.832   3.965  17.997  0.00  0.00    +0.000 A 
ATOM      5  C   UNL     1       1.612   3.295  17.951  0.00  0.00    +0.000 A 
ATOM      6  C   UNL     1       0.918   3.175  19.160  0.00  0.00    +0.000 A 
ATOM      7  C   UNL     1       1.366   3.745  20.384  0.00  0.00    +0.000 A 
ATOM      8  C   UNL     1       2.596   4.410  20.533  0.00  0.00    +0.000 A 
ATOM      9  C   UNL     1       3.455   4.506  19.452  0.00  0.00    +0.000 A 
ATOM     10  N   UNL     1       4.985   5.082  19.909  0.00  0.00    +0.000 NA
ATOM     11  C   UNL     1       6.129   5.161  19.118  0.00  0.00    +0.000 C 
ATOM     12  H   UNL     1       3.112   3.949  15.708  0.00  0.00    +0.000 HD
ENDROOT
BRANCH   2  13
ATOM     13  N   UNL     1       5.917   4.042  15.052  0.00  0.00    +0.000 N 
ATOM     14  C   UNL     1       6.945   4.843  14.557  0.00  0.00    +0.000 C 
ATOM     15  O   UNL     1       7.488   5.755  15.175  0.00  0.00    +0.000 OA
ATOM     16  H   UNL     1       5.530   3.313  14.451  0.00  0.00    +0.000 HD
BRANCH  14  17
ATOM     17  C   UNL     1       7.330   4.537  13.128  0.00  0.00    +0.000 C 
BRANCH  17  18
ATOM     18  C   UNL     1       6.180   3.776  12.463  0.00  0.00    +0.000 C 
BRANCH  18  19
ATOM     19  N   UNL     1       6.553   2.454  11.996  0.00  0.00    +0.000 N 
ATOM     20  C   UNL     1       5.647   1.645  11.349  0.00  0.00    +0.000 C 
ATOM     21  C   UNL     1       6.139   0.235  11.127  0.00  0.00    +0.000 C 
ATOM     22  O   UNL     1       4.545   2.020  10.978  0.00  0.00    +0.000 OA
ATOM     23  H   UNL     1       7.358   2.025  12.438  0.00  0.00    +0.000 HD
ENDBRANCH  18  19
ENDBRANCH  17  18
ENDBRANCH  14  17
ENDBRANCH   2  13
BRANCH   1  24
ATOM     24  C   UNL     1       5.018   4.539  17.762  0.00  0.00    +0.000 C 
ATOM     25  O   UNL     1       4.763   3.358  18.180  0.00  0.00    +0.000 OA
BRANCH  24  26
ATOM     26  O   UNL     1       4.454   5.767  17.000  0.00  0.00    +0.000 OA
BRANCH  26  28
ATOM     27  C   UNL     1       3.127   7.736  17.734  0.00  0.00    +0.000 C 
ATOM     28  C   UNL     1       4.486   7.203  17.351  0.00  0.00    +0.000 C 
ENDBRANCH  26  28
ENDBRANCH  24  26
ENDBRANCH   1  24
BRANCH  11  29
ATOM     29  C   UNL     1       7.419   5.750  19.645  0.00  0.00    +0.000 C 
ATOM     30  C   UNL     1       7.978   6.776  18.682  0.00  0.00    +0.000 C 
ENDBRANCH  11  29
TORSDOF 8
ENDMDL
MODEL 3
REMARK VINA RESULT:      -7.2      1.119      1.282
REMARK  Name = 
REMARK  11 active torsions:
REMARK  status: ('A' for Active; 'I' for Inactive)
REMARK    1  A    between atoms: C_1  and  C_2
REMARK    2  A    between atoms: C_2  and  O_3
REMARK    3  A    between atoms: O_3  and  C_4
REMARK    4  A    between atoms: C_4  and  C_6
REMARK    5  A    between atoms: C_7  and  N_8
REMARK    6  A    between atoms: C_9  and  C_11
REMARK    7  A    between atoms: C_11  and  C_12
REMARK    8  A    between atoms: C_12  and  N_13
REMARK    9  A    between atoms: C_14  and  C_15
REMARK   10  A    between atoms: C_25  and  C_26
REMARK   11  A    between atoms: C_26  and  C_27
REMARK                            x       y       z     vdW  Elec       q    Type
REMARK                         _______ _______ _______ _____ _____    ______ ____
ROOT
ATOM      1  C   UNL     1       4.420   4.373  17.493  0.00  0.00    +0.000 C 
ATOM      2  C   UNL     1       4.519   5.640  16.712  0.00  0.00    +0.000 C 
ATOM      3  N   UNL     1       3.811   7.149  17.122  0.00  0.00    +0.000 N 
ATOM      4  C   UNL     1       2.942   7.424  18.598  0.00  0.00    +0.000 A 
ATOM      5  C   UNL     1       2.241   8.626  18.544  0.00  0.00    +0.000 A 
ATOM      6  C   UNL     1       1.314   8.855  19.566  0.00  0.00    +0.000 A 
ATOM      7  C   UNL     1       1.110   7.965  20.658  0.00  0.00    +0.000 A 
ATOM      8  C   UNL     1       1.748   6.718  20.780  0.00  0.00    +0.000 A 
ATOM      9  C   UNL     1       2.608   6.291  19.782  0.00  0.00    +0.000 A 
ATOM     10  N   UNL     1       3.043   4.662  19.977  0.00  0.00    +0.000 NA
ATOM     11  C   UNL     1       3.763   3.869  19.088  0.00  0.00    +0.000 C 
ATOM     12  H   UNL     1       4.336   7.972  16.843  0.00  0.00    +0.000 HD
ENDROOT
BRANCH   2  13
ATOM     13  N   UNL     1       5.262   5.578  15.530  0.00  0.00    +0.000 N 
ATOM     14  C   UNL     1       6.358   4.739  15.335  0.00  0.00    +0.000 C 
ATOM     15  O   UNL     1       6.799   3.952  16.168  0.00  0.00    +0.000 OA
ATOM     16  H   UNL     1       4.980   6.202  14.772  0.00  0.00    +0.000 HD
BRANCH  14  17
ATOM     17  C   UNL     1       7.029   4.905  13.991  0.00  0.00    +0.000 C 
BRANCH  17  18
ATOM     18  C   UNL     1       6.682   3.697  13.118  0.00  0.00    +0.000 C 
BRANCH  18  19
ATOM     19  N   UNL     1       5.370   3.782  12.504  0.00  0.00    +0.000 N 
ATOM     20  C   UNL     1       4.939   2.831  11.608  0.00  0.00    +0.000 C 
ATOM     21  C   UNL     1       3.648   3.189  10.913  0.00  0.00    +0.000 C 
ATOM     22  O   UNL     1       5.532   1.786  11.388  0.00  0.00    +0.000 OA
ATOM     23  H   UNL     1       4.932   4.696  12.490  0.00  0.00    +0.000 HD
ENDBRANCH  18  19
ENDBRANCH  17  18
ENDBRANCH  14  17
ENDBRANCH   2  13
BRANCH   1  24
ATOM     24  C   UNL     1       3.895   5.426  18.081  0.00  0.00    +0.000 C 
ATOM     25  O   UNL     1       2.700   5.645  17.683  0.00  0.00    +0.000 OA
BRANCH  24  26
ATOM     26  O   UNL     1       5.219   6.085  18.550  0.00  0.00    +0.000 OA
BRANCH  26  28
ATOM     27  C   UNL     1       7.696   6.048  18.762  0.00  0.00    +0.000 C 
ATOM     28  C   UNL     1       6.379   5.497  19.255  0.00  0.00    +0.000 C 
ENDBRANCH  26  28
ENDBRANCH  24  26
ENDBRANCH   1  24
BRANCH  11  29
ATOM     29  C   UNL     1       4.127   2.437  19.417  0.00  0.00    +0.000 C 
ATOM     30  C   UNL     1       3.322   1.468  18.579  0.00  0.00    +0.000 C 
ENDBRANCH  11  29
TORSDOF 8
ENDMDL
MODEL 4
REMARK VINA RESULT:      -7.0      2.391      6.982
REMARK  Name = 
REMARK  11 active torsions:
REMARK  status: ('A' for Active; 'I' for Inactive)
REMARK    1  A    between atoms: C_1  and  C_2
REMARK    2  A    between atoms: C_2  and  O_3
REMARK    3  A    between atoms: O_3  and  C_4
REMARK    4  A    between atoms: C_4  and  C_6
REMARK    5  A    between atoms: C_7  and  N_8
REMARK    6  A    between atoms: C_9  and  C_11
REMARK    7  A    between atoms: C_11  and  C_12
REMARK    8  A    between atoms: C_12  and  N_13
REMARK    9  A    between atoms: C_14  and  C_15
REMARK   10  A    between atoms: C_25  and  C_26
REMARK   11  A    between atoms: C_26  and  C_27
REMARK                            x       y       z     vdW  Elec       q    Type
REMARK                         _______ _______ _______ _____ _____    ______ ____
ROOT
ATOM      1  C   UNL     1       4.424   6.384  16.793  0.00  0.00    +0.000 C 
ATOM      2  C   UNL     1       3.534   6.956  17.844  0.00  0.00    +0.000 C 
ATOM      3  N   UNL     1       2.623   6.072  19.001  0.00  0.00    +0.000 N 
ATOM      4  C   UNL     1       2.705   4.347  19.159  0.00  0.00    +0.000 A 
ATOM      5  C   UNL     1       1.670   3.874  19.962  0.00  0.00    +0.000 A 
ATOM      6  C   UNL     1       1.475   2.488  19.980  0.00  0.00    +0.000 A 
ATOM      7  C   UNL     1       2.305   1.568  19.280  0.00  0.00    +0.000 A 
ATOM      8  C   UNL     1       3.352   1.954  18.424  0.00  0.00    +0.000 A 
ATOM      9  C   UNL     1       3.594   3.300  18.206  0.00  0.00    +0.000 A 
ATOM     10  N   UNL     1       4.694   3.546  16.936  0.00  0.00    +0.000 NA
ATOM     11  C   UNL     1       5.048   4.759  16.350  0.00  0.00    +0.000 C 
ATOM     12  H   UNL     1       2.504   6.521  19.902  0.00  0.00    +0.000 HD
ENDROOT
BRANCH   2  13
ATOM     13  N   UNL     1       3.437   8.349  17.878  0.00  0.00    +0.000 N 
ATOM     14  C   UNL     1       2.235   9.054  17.826  0.00  0.00    +0.000 C 
ATOM     15  O   UNL     1       1.121   8.542  17.751  0.00  0.00    +0.000 OA
ATOM     16  H   UNL     1       4.311   8.874  17.933  0.00  0.00    +0.000 HD
BRANCH  14  17
ATOM     17  C   UNL     1       2.401  10.556  17.815  0.00  0.00    +0.000 C 
BRANCH  17  18
ATOM     18  C   UNL     1       1.377  11.169  18.774  0.00  0.00    +0.000 C 
BRANCH  18  19
ATOM     19  N   UNL     1       0.038  11.245  18.222  0.00  0.00    +0.000 N 
ATOM     20  C   UNL     1      -1.050  10.780  18.924  0.00  0.00    +0.000 C 
ATOM     21  C   UNL     1      -2.326  10.743  18.117  0.00  0.00    +0.000 C 
ATOM     22  O   UNL     1      -1.006  10.432  20.094  0.00  0.00    +0.000 OA
ATOM     23  H   UNL     1      -0.035  11.332  17.215  0.00  0.00    +0.000 HD
ENDBRANCH  18  19
ENDBRANCH  17  18
ENDBRANCH  14  17
ENDBRANCH   2  13
BRANCH   1  24
ATOM     24  C   UNL     1       3.935   5.505  17.639  0.00  0.00    +0.000 C 
ATOM     25  O   UNL     1       2.765   5.118  17.297  0.00  0.00    +0.000 OA
BRANCH  24  26
ATOM     26  O   UNL     1       4.868   5.825  18.836  0.00  0.00    +0.000 OA
BRANCH  26  28
ATOM     27  C   UNL     1       7.342   6.060  18.763  0.00  0.00    +0.000 C 
ATOM     28  C   UNL     1       6.166   5.230  19.219  0.00  0.00    +0.000 C 
ENDBRANCH  26  28
ENDBRANCH  24  26
ENDBRANCH   1  24
BRANCH  11  29
ATOM     29  C   UNL     1       6.090   4.836  15.255  0.00  0.00    +0.000 C 
ATOM     30  C   UNL     1       5.624   4.104  14.014  0.00  0.00    +0.000 C 
ENDBRANCH  11  29
TORSDOF 8
ENDMDL
MODEL 5
REMARK VINA RESULT:      -7.0      1.073      3.288
REMARK  Name = 
REMARK  11 active torsions:
REMARK  status: ('A' for Active; 'I' for Inactive)
REMARK    1  A    between atoms: C_1  and  C_2
REMARK    2  A    between atoms: C_2  and  O_3
REMARK    3  A    between atoms: O_3  and  C_4
REMARK    4  A    between atoms: C_4  and  C_6
REMARK    5  A    between atoms: C_7  and  N_8
REMARK    6  A    between atoms: C_9  and  C_11
REMARK    7  A    between atoms: C_11  and  C_12
REMARK    8  A    between atoms: C_12  and  N_13
REMARK    9  A    between atoms: C_14  and  C_15
REMARK   10  A    between atoms: C_25  and  C_26
REMARK   11  A    between atoms: C_26  and  C_27
REMARK                            x       y       z     vdW  Elec       q    Type
REMARK                         _______ _______ _______ _____ _____    ______ ____
ROOT
ATOM      1  C   UNL     1       4.198   6.031  16.912  0.00  0.00    +0.000 C 
ATOM      2  C   UNL     1       4.678   4.631  16.727  0.00  0.00    +0.000 C 
ATOM      3  N   UNL     1       4.400   3.309  17.786  0.00  0.00    +0.000 N 
ATOM      4  C   UNL     1       3.406   3.418  19.204  0.00  0.00    +0.000 A 
ATOM      5  C   UNL     1       3.582   2.303  20.019  0.00  0.00    +0.000 A 
ATOM      6  C   UNL     1       3.026   2.372  21.301  0.00  0.00    +0.000 A 
ATOM      7  C   UNL     1       2.259   3.476  21.768  0.00  0.00    +0.000 A 
ATOM      8  C   UNL     1       2.054   4.654  21.029  0.00  0.00    +0.000 A 
ATOM      9  C   UNL     1       2.644   4.789  19.783  0.00  0.00    +0.000 A 
ATOM     10  N   UNL     1       2.514   6.375  19.191  0.00  0.00    +0.000 NA
ATOM     11  C   UNL     1       3.117   6.903  18.052  0.00  0.00    +0.000 C 
ATOM     12  H   UNL     1       4.312   2.401  17.342  0.00  0.00    +0.000 HD
ENDROOT
BRANCH   2  13
ATOM     13  N   UNL     1       5.432   4.386  15.577  0.00  0.00    +0.000 N 
ATOM     14  C   UNL     1       6.650   5.000  15.290  0.00  0.00    +0.000 C 
ATOM     15  O   UNL     1       7.210   5.822  16.011  0.00  0.00    +0.000 OA
ATOM     16  H   UNL     1       5.049   3.719  14.905  0.00  0.00    +0.000 HD
BRANCH  14  17
ATOM     17  C   UNL     1       7.237   4.612  13.953  0.00  0.00    +0.000 C 
BRANCH  17  18
ATOM     18  C   UNL     1       6.129   4.005  13.089  0.00  0.00    +0.000 C 
BRANCH  18  19
ATOM     19  N   UNL     1       6.550   2.834  12.342  0.00  0.00    +0.000 N 
ATOM     20  C   UNL     1       5.671   2.150  11.534  0.00  0.00    +0.000 C 
ATOM     21  C   UNL     1       6.218   0.846  11.005  0.00  0.00    +0.000 C 
ATOM     22  O   UNL     1       4.552   2.552  11.255  0.00  0.00    +0.000 OA
ATOM     23  H   UNL     1       7.376   2.353  12.678  0.00  0.00    +0.000 HD
ENDBRANCH  18  19
ENDBRANCH  17  18
ENDBRANCH  14  17
ENDBRANCH   2  13
BRANCH   1  24
ATOM     24  C   UNL     1       3.745   5.171  17.798  0.00  0.00    +0.000 C 
ATOM     25  O   UNL     1       2.556   4.791  17.526  0.00  0.00    +0.000 OA
BRANCH  24  26
ATOM     26  O   UNL     1       4.744   5.502  18.939  0.00  0.00    +0.000 OA
BRANCH  26  28
ATOM     27  C   UNL     1       7.155   5.293  19.505  0.00  0.00    +0.000 C 
ATOM     28  C   UNL     1       6.074   6.145  18.884  0.00  0.00    +0.000 C 
ENDBRANCH  26  28
ENDBRANCH  24  26
ENDBRANCH   1  24
BRANCH  11  29
ATOM     29  C   UNL     1       2.868   8.329  17.611  0.00  0.00    +0.000 C 
ATOM     30  C   UNL     1       1.707   8.935  18.372  0.00  0.00    +0.000 C 
ENDBRANCH  11  29
TORSDOF 8
ENDMDL
MODEL 6
REMARK VINA RESULT:      -7.0      1.174      1.239
REMARK  Name = 
REMARK  11 active torsions:
REMARK  status: ('A' for Active; 'I' for Inactive)
REMARK    1  A    between atoms: C_1  and  C_2
REMARK    2  A    between atoms: C_2  and  O_3
REMARK    3  A    between atoms: O_3  and  C_4
REMARK    4  A    between atoms: C_4  and  C_6
REMARK    5  A    between atoms: C_7  and  N_8
REMARK    6  A    between atoms: C_9  and  C_11
REMARK    7  A    between atoms: C_11  and  C_12
REMARK    8  A    between atoms: C_12  and  N_13
REMARK    9  A    between atoms: C_14  and  C_15
REMARK   10  A    between atoms: C_25  and  C_26
REMARK   11  A    between atoms: C_26  and  C_27
REMARK                            x       y       z     vdW  Elec       q    Type
REMARK                         _______ _______ _______ _____ _____    ______ ____
ROOT
ATOM      1  C   UNL     1       4.896   4.175  17.809  0.00  0.00    +0.000 C 
ATOM      2  C   UNL     1       5.169   5.259  16.822  0.00  0.00    +0.000 C 
ATOM      3  N   UNL     1       4.477   6.831  16.815  0.00  0.00    +0.000 N 
ATOM      4  C   UNL     1       3.411   7.406  18.057  0.00  0.00    +0.000 A 
ATOM      5  C   UNL     1       2.781   8.584  17.663  0.00  0.00    +0.000 A 
ATOM      6  C   UNL     1       1.723   9.026  18.464  0.00  0.00    +0.000 A 
ATOM      7  C   UNL     1       1.318   8.374  19.663  0.00  0.00    +0.000 A 
ATOM      8  C   UNL     1       1.873   7.167  20.122  0.00  0.00    +0.000 A 
ATOM      9  C   UNL     1       2.853   6.537  19.372  0.00  0.00    +0.000 A 
ATOM     10  N   UNL     1       3.179   4.973  19.945  0.00  0.00    +0.000 NA
ATOM     11  C   UNL     1       3.987   4.008  19.350  0.00  0.00    +0.000 C 
ATOM     12  H   UNL     1       5.074   7.573  16.468  0.00  0.00    +0.000 HD
ENDROOT
BRANCH   2  13
ATOM     13  N   UNL     1       6.076   4.953  15.804  0.00  0.00    +0.000 N 
ATOM     14  C   UNL     1       5.718   4.405  14.573  0.00  0.00    +0.000 C 
ATOM     15  O   UNL     1       4.571   4.132  14.230  0.00  0.00    +0.000 OA
ATOM     16  H   UNL     1       7.063   5.135  15.992  0.00  0.00    +0.000 HD
BRANCH  14  17
ATOM     17  C   UNL     1       6.891   4.107  13.668  0.00  0.00    +0.000 C 
BRANCH  17  18
ATOM     18  C   UNL     1       6.359   3.768  12.272  0.00  0.00    +0.000 C 
BRANCH  18  19
ATOM     19  N   UNL     1       5.977   2.377  12.118  0.00  0.00    +0.000 N 
ATOM     20  C   UNL     1       6.697   1.526  11.310  0.00  0.00    +0.000 C 
ATOM     21  C   UNL     1       6.040   0.183  11.101  0.00  0.00    +0.000 C 
ATOM     22  O   UNL     1       7.772   1.814  10.807  0.00  0.00    +0.000 OA
ATOM     23  H   UNL     1       5.017   2.141  12.339  0.00  0.00    +0.000 HD
ENDBRANCH  18  19
ENDBRANCH  17  18
ENDBRANCH  14  17
ENDBRANCH   2  13
BRANCH   1  24
ATOM     24  C   UNL     1       4.339   5.332  18.092  0.00  0.00    +0.000 C 
ATOM     25  O   UNL     1       3.264   5.516  17.426  0.00  0.00    +0.000 OA
BRANCH  24  26
ATOM     26  O   UNL     1       5.585   6.020  18.709  0.00  0.00    +0.000 OA
BRANCH  26  28
ATOM     27  C   UNL     1       8.049   6.132  19.016  0.00  0.00    +0.000 C 
ATOM     28  C   UNL     1       6.763   5.432  19.382  0.00  0.00    +0.000 C 
ENDBRANCH  26  28
ENDBRANCH  24  26
ENDBRANCH   1  24
BRANCH  11  29
ATOM     29  C   UNL     1       4.233   2.665  20.004  0.00  0.00    +0.000 C 
ATOM     30  C   UNL     1       3.214   2.400  21.092  0.00  0.00    +0.000 C 
ENDBRANCH  11  29
TORSDOF 8
ENDMDL
MODEL 7
REMARK VINA RESULT:      -7.0      2.332      7.051
REMARK  Name = 
REMARK  11 active torsions:
REMARK  status: ('A' for Active; 'I' for Inactive)
REMARK    1  A    between atoms: C_1  and  C_2
REMARK    2  A    between atoms: C_2  and  O_3
REMARK    3  A    between atoms: O_3  and  C_4
REMARK    4  A    between atoms: C_4  and  C_6
REMARK    5  A    between atoms: C_7  and  N_8
REMARK    6  A    between atoms: C_9  and  C_11
REMARK    7  A    between atoms: C_11  and  C_12
REMARK    8  A    between atoms: C_12  and  N_13
REMARK    9  A    between atoms: C_14  and  C_15
REMARK   10  A    between atoms: C_25  and  C_26
REMARK   11  A    between atoms: C_26  and  C_27
REMARK                            x       y       z     vdW  Elec       q    Type
REMARK                         _______ _______ _______ _____ _____    ______ ____
ROOT
ATOM      1  C   UNL     1       4.423   6.465  16.799  0.00  0.00    +0.000 C 
ATOM      2  C   UNL     1       3.525   6.990  17.867  0.00  0.00    +0.000 C 
ATOM      3  N   UNL     1       2.625   6.058  18.993  0.00  0.00    +0.000 N 
ATOM      4  C   UNL     1       2.729   4.329  19.096  0.00  0.00    +0.000 A 
ATOM      5  C   UNL     1       1.700   3.816  19.881  0.00  0.00    +0.000 A 
ATOM      6  C   UNL     1       1.523   2.429  19.854  0.00  0.00    +0.000 A 
ATOM      7  C   UNL     1       2.366   1.543  19.126  0.00  0.00    +0.000 A 
ATOM      8  C   UNL     1       3.408   1.970  18.284  0.00  0.00    +0.000 A 
ATOM      9  C   UNL     1       3.632   3.325  18.110  0.00  0.00    +0.000 A 
ATOM     10  N   UNL     1       4.730   3.627  16.850  0.00  0.00    +0.000 NA
ATOM     11  C   UNL     1       5.069   4.863  16.304  0.00  0.00    +0.000 C 
ATOM     12  H   UNL     1       2.499   6.475  19.909  0.00  0.00    +0.000 HD
ENDROOT
BRANCH   2  13
ATOM     13  N   UNL     1       3.409   8.380  17.947  0.00  0.00    +0.000 N 
ATOM     14  C   UNL     1       2.204   9.075  17.854  0.00  0.00    +0.000 C 
ATOM     15  O   UNL     1       1.102   8.554  17.699  0.00  0.00    +0.000 OA
ATOM     16  H   UNL     1       4.273   8.911  18.068  0.00  0.00    +0.000 HD
BRANCH  14  17
ATOM     17  C   UNL     1       2.353  10.577  17.907  0.00  0.00    +0.000 C 
BRANCH  17  18
ATOM     18  C   UNL     1       1.239  11.149  18.789  0.00  0.00    +0.000 C 
BRANCH  18  19
ATOM     19  N   UNL     1       1.024  10.398  20.011  0.00  0.00    +0.000 N 
ATOM     20  C   UNL     1      -0.245  10.163  20.490  0.00  0.00    +0.000 C 
ATOM     21  C   UNL     1      -0.273   9.556  21.872  0.00  0.00    +0.000 C 
ATOM     22  O   UNL     1      -1.264  10.411  19.863  0.00  0.00    +0.000 OA
ATOM     23  H   UNL     1       1.804  10.345  20.657  0.00  0.00    +0.000 HD
ENDBRANCH  18  19
ENDBRANCH  17  18
ENDBRANCH  14  17
ENDBRANCH   2  13
BRANCH   1  24
ATOM     24  C   UNL     1       3.945   5.552  17.616  0.00  0.00    +0.000 C 
ATOM     25  O   UNL     1       2.781   5.160  17.260  0.00  0.00    +0.000 OA
BRANCH  24  26
ATOM     26  O   UNL     1       4.873   5.845  18.824  0.00  0.00    +0.000 OA
BRANCH  26  28
ATOM     27  C   UNL     1       7.355   5.971  18.848  0.00  0.00    +0.000 C 
ATOM     28  C   UNL     1       6.127   5.186  19.245  0.00  0.00    +0.000 C 
ENDBRANCH  26  28
ENDBRANCH  24  26
ENDBRANCH   1  24
BRANCH  11  29
ATOM     29  C   UNL     1       6.110   4.989  15.213  0.00  0.00    +0.000 C 
ATOM     30  C   UNL     1       5.828   4.022  14.083  0.00  0.00    +0.000 C 
ENDBRANCH  11  29
TORSDOF 8
ENDMDL
MODEL 8
REMARK VINA RESULT:      -6.9      0.899      1.903
REMARK  Name = 
REMARK  11 active torsions:
REMARK  status: ('A' for Active; 'I' for Inactive)
REMARK    1  A    between atoms: C_1  and  C_2
REMARK    2  A    between atoms: C_2  and  O_3
REMARK    3  A    between atoms: O_3  and  C_4
REMARK    4  A    between atoms: C_4  and  C_6
REMARK    5  A    between atoms: C_7  and  N_8
REMARK    6  A    between atoms: C_9  and  C_11
REMARK    7  A    between atoms: C_11  and  C_12
REMARK    8  A    between atoms: C_12  and  N_13
REMARK    9  A    between atoms: C_14  and  C_15
REMARK   10  A    between atoms: C_25  and  C_26
REMARK   11  A    between atoms: C_26  and  C_27
REMARK                            x       y       z     vdW  Elec       q    Type
REMARK                         _______ _______ _______ _____ _____    ______ ____
ROOT
ATOM      1  C   UNL     1       4.168   4.103  18.271  0.00  0.00    +0.000 C 
ATOM      2  C   UNL     1       4.420   5.086  17.178  0.00  0.00    +0.000 C 
ATOM      3  N   UNL     1       3.843   6.702  17.107  0.00  0.00    +0.000 N 
ATOM      4  C   UNL     1       2.946   7.449  18.391  0.00  0.00    +0.000 A 
ATOM      5  C   UNL     1       2.366   8.640  17.961  0.00  0.00    +0.000 A 
ATOM      6  C   UNL     1       1.424   9.222  18.817  0.00  0.00    +0.000 A 
ATOM      7  C   UNL     1       1.092   8.694  20.096  0.00  0.00    +0.000 A 
ATOM      8  C   UNL     1       1.602   7.484  20.599  0.00  0.00    +0.000 A 
ATOM      9  C   UNL     1       2.457   6.726  19.817  0.00  0.00    +0.000 A 
ATOM     10  N   UNL     1       2.726   5.188  20.482  0.00  0.00    +0.000 NA
ATOM     11  C   UNL     1       3.402   4.121  19.896  0.00  0.00    +0.000 C 
ATOM     12  H   UNL     1       4.456   7.368  16.648  0.00  0.00    +0.000 HD
ENDROOT
BRANCH   2  13
ATOM     13  N   UNL     1       5.200   4.635  16.110  0.00  0.00    +0.000 N 
ATOM     14  C   UNL     1       6.383   5.242  15.692  0.00  0.00    +0.000 C 
ATOM     15  O   UNL     1       6.886   6.236  16.209  0.00  0.00    +0.000 OA
ATOM     16  H   UNL     1       4.864   3.814  15.605  0.00  0.00    +0.000 HD
BRANCH  14  17
ATOM     17  C   UNL     1       7.008   4.600  14.474  0.00  0.00    +0.000 C 
BRANCH  17  18
ATOM     18  C   UNL     1       5.901   3.939  13.648  0.00  0.00    +0.000 C 
BRANCH  18  19
ATOM     19  N   UNL     1       6.388   2.918  12.739  0.00  0.00    +0.000 N 
ATOM     20  C   UNL     1       5.591   2.421  11.733  0.00  0.00    +0.000 C 
ATOM     21  C   UNL     1       6.178   1.224  11.025  0.00  0.00    +0.000 C 
ATOM     22  O   UNL     1       4.509   2.897  11.425  0.00  0.00    +0.000 OA
ATOM     23  H   UNL     1       7.171   2.359  13.058  0.00  0.00    +0.000 HD
ENDBRANCH  18  19
ENDBRANCH  17  18
ENDBRANCH  14  17
ENDBRANCH   2  13
BRANCH   1  24
ATOM     24  C   UNL     1       3.723   5.317  18.509  0.00  0.00    +0.000 C 
ATOM     25  O   UNL     1       4.538   5.986  19.232  0.00  0.00    +0.000 OA
BRANCH  24  26
ATOM     26  O   UNL     1       2.228   5.060  18.183  0.00  0.00    +0.000 OA
BRANCH  26  28
ATOM     27  C   UNL     1       0.652   3.154  18.423  0.00  0.00    +0.000 C 
ATOM     28  C   UNL     1       1.582   3.914  17.509  0.00  0.00    +0.000 C 
ENDBRANCH  26  28
ENDBRANCH  24  26
ENDBRANCH   1  24
BRANCH  11  29
ATOM     29  C   UNL     1       3.614   2.815  20.631  0.00  0.00    +0.000 C 
ATOM     30  C   UNL     1       2.502   2.571  21.629  0.00  0.00    +0.000 C 
ENDBRANCH  11  29
TORSDOF 8
ENDMDL
MODEL 9
REMARK VINA RESULT:      -6.8      2.610      6.930
REMARK  Name = 
REMARK  11 active torsions:
REMARK  status: ('A' for Active; 'I' for Inactive)
REMARK    1  A    between atoms: C_1  and  C_2
REMARK    2  A    between atoms: C_2  and  O_3
REMARK    3  A    between atoms: O_3  and  C_4
REMARK    4  A    between atoms: C_4  and  C_6
REMARK    5  A    between atoms: C_7  and  N_8
REMARK    6  A    between atoms: C_9  and  C_11
REMARK    7  A    between atoms: C_11  and  C_12
REMARK    8  A    between atoms: C_12  and  N_13
REMARK    9  A    between atoms: C_14  and  C_15
REMARK   10  A    between atoms: C_25  and  C_26
REMARK   11  A    between atoms: C_26  and  C_27
REMARK                            x       y       z     vdW  Elec       q    Type
REMARK                         _______ _______ _______ _____ _____    ______ ____
ROOT
ATOM      1  C   UNL     1       3.900   6.241  16.949  0.00  0.00    +0.000 C 
ATOM      2  C   UNL     1       3.272   7.001  18.068  0.00  0.00    +0.000 C 
ATOM      3  N   UNL     1       2.801   6.369  19.593  0.00  0.00    +0.000 N 
ATOM      4  C   UNL     1       3.099   4.730  20.077  0.00  0.00    +0.000 A 
ATOM      5  C   UNL     1       2.372   4.411  21.221  0.00  0.00    +0.000 A 
ATOM      6  C   UNL     1       2.332   3.060  21.581  0.00  0.00    +0.000 A 
ATOM      7  C   UNL     1       3.034   2.039  20.882  0.00  0.00    +0.000 A 
ATOM      8  C   UNL     1       3.766   2.260  19.702  0.00  0.00    +0.000 A 
ATOM      9  C   UNL     1       3.801   3.529  19.149  0.00  0.00    +0.000 A 
ATOM     10  N   UNL     1       4.488   3.523  17.596  0.00  0.00    +0.000 NA
ATOM     11  C   UNL     1       4.545   4.583  16.695  0.00  0.00    +0.000 C 
ATOM     12  H   UNL     1       2.883   7.007  20.378  0.00  0.00    +0.000 HD
ENDROOT
BRANCH   2  13
ATOM     13  N   UNL     1       3.045   8.361  17.838  0.00  0.00    +0.000 N 
ATOM     14  C   UNL     1       2.030   9.100  18.442  0.00  0.00    +0.000 C 
ATOM     15  O   UNL     1       1.220   8.654  19.250  0.00  0.00    +0.000 OA
ATOM     16  H   UNL     1       3.662   8.828  17.172  0.00  0.00    +0.000 HD
BRANCH  14  17
ATOM     17  C   UNL     1       1.955  10.537  17.980  0.00  0.00    +0.000 C 
BRANCH  17  18
ATOM     18  C   UNL     1       0.610  11.123  18.417  0.00  0.00    +0.000 C 
BRANCH  18  19
ATOM     19  N   UNL     1      -0.533  10.470  17.806  0.00  0.00    +0.000 N 
ATOM     20  C   UNL     1      -1.815  10.732  18.233  0.00  0.00    +0.000 C 
ATOM     21  C   UNL     1      -2.855   9.814  17.637  0.00  0.00    +0.000 C 
ATOM     22  O   UNL     1      -2.102  11.625  19.015  0.00  0.00    +0.000 OA
ATOM     23  H   UNL     1      -0.353   9.603  17.313  0.00  0.00    +0.000 HD
ENDBRANCH  18  19
ENDBRANCH  17  18
ENDBRANCH  14  17
ENDBRANCH   2  13
BRANCH   1  24
ATOM     24  C   UNL     1       3.749   5.559  18.063  0.00  0.00    +0.000 C 
ATOM     25  O   UNL     1       2.549   5.143  18.206  0.00  0.00    +0.000 OA
BRANCH  24  26
ATOM     26  O   UNL     1       5.008   6.084  18.802  0.00  0.00    +0.000 OA
BRANCH  26  28
ATOM     27  C   UNL     1       7.449   5.693  19.059  0.00  0.00    +0.000 C 
ATOM     28  C   UNL     1       6.359   6.391  18.284  0.00  0.00    +0.000 C 
ENDBRANCH  26  28
ENDBRANCH  24  26
ENDBRANCH   1  24
BRANCH  11  29
ATOM     29  C   UNL     1       5.240   4.450  15.357  0.00  0.00    +0.000 C 
ATOM     30  C   UNL     1       6.717   4.169  15.540  0.00  0.00    +0.000 C 
ENDBRANCH  11  29
TORSDOF 8
ENDMDL
