MODEL 1
REMARK VINA RESULT:      -9.0      0.000      0.000
REMARK  Name = 
REMARK  6 active torsions:
REMARK  status: ('A' for Active; 'I' for Inactive)
REMARK    1  A    between atoms: C_2  and  C_3
REMARK    2  A    between atoms: C_8  and  C_9
REMARK    3  A    between atoms: C_12  and  C_13
REMARK    4  A    between atoms: C_13  and  C_14
REMARK    5  A    between atoms: C_13  and  C_15
REMARK    6  A    between atoms: C_20  and  C_21
REMARK                            x       y       z     vdW  Elec       q    Type
REMARK                         _______ _______ _______ _____ _____    ______ ____
ROOT
ATOM      1  C   UNL     1       1.158   8.824  19.193  0.00  0.00    +0.000 A 
ATOM      2  C   UNL     1       1.919   8.467  18.077  0.00  0.00    +0.000 A 
ATOM      3  C   UNL     1       2.801   7.381  18.145  0.00  0.00    +0.000 A 
ATOM      4  C   UNL     1       2.929   6.633  19.328  0.00  0.00    +0.000 A 
ATOM      5  C   UNL     1       2.138   6.983  20.433  0.00  0.00    +0.000 A 
ATOM      6  C   UNL     1       1.266   8.071  20.366  0.00  0.00    +0.000 A 
ENDROOT
BRANCH   1  12
ATOM      7  C   UNL     1      -3.134  12.322  19.516  0.00  0.00    +0.000 C 
ATOM      8  O   UNL     1      -4.119  12.076  18.820  0.00  0.00    +0.000 OA
ATOM      9  N   UNL     1      -1.868  11.848  19.256  0.00  0.00    +0.000 N 
ATOM     10  C   UNL     1      -1.662  11.150  17.990  0.00  0.00    +0.000 C 
ATOM     11  C   UNL     1      -0.565  10.130  18.078  0.00  0.00    +0.000 C 
ATOM     12  C   UNL     1       0.215   9.946  19.156  0.00  0.00    +0.000 C 
ATOM     13  C   UNL     1       0.086  10.813  20.376  0.00  0.00    +0.000 C 
ATOM     14  C   UNL     1      -0.665  12.111  20.058  0.00  0.00    +0.000 C 
BRANCH   7  16
ATOM     15  C   UNL     1      -4.457  13.203  21.373  0.00  0.00    +0.000 C 
ATOM     16  C   UNL     1      -3.295  13.195  20.709  0.00  0.00    +0.000 C 
ENDBRANCH   7  16
ENDBRANCH   1  12
BRANCH   4  17
ATOM     17  C   UNL     1       3.954   5.516  19.426  0.00  0.00    +0.000 C 
ATOM     18  C   UNL     1       3.344   4.319  20.175  0.00  0.00    +0.000 C 
BRANCH  17  19
ATOM     19  C   UNL     1       4.490   5.026  18.077  0.00  0.00    +0.000 C 
ATOM     20  O   UNL     1       4.250   3.880  17.689  0.00  0.00    +0.000 OA
ATOM     21  N   UNL     1       5.331   5.897  17.414  0.00  0.00    +0.000 N 
ATOM     22  C   UNL     1       5.936   5.505  16.240  0.00  0.00    +0.000 A 
ATOM     23  C   UNL     1       5.386   4.681  15.224  0.00  0.00    +0.000 A 
ATOM     24  C   UNL     1       6.441   4.401  14.396  0.00  0.00    +0.000 A 
ATOM     25  N   UNL     1       7.501   5.101  14.890  0.00  0.00    +0.000 N 
ATOM     26  N   UNL     1       7.191   5.863  15.961  0.00  0.00    +0.000 NA
ATOM     27  H   UNL     1       5.816   6.622  17.925  0.00  0.00    +0.000 HD
ATOM     28  H   UNL     1       8.459   5.090  14.561  0.00  0.00    +0.000 HD
BRANCH  24  29
ATOM     29  C   UNL     1       6.383   3.455  13.217  0.00  0.00    +0.000 C 
ATOM     30  C   UNL     1       5.349   3.674  12.137  0.00  0.00    +0.000 C 
ATOM     31  C   UNL     1       6.781   3.990  11.859  0.00  0.00    +0.000 C 
ENDBRANCH  24  29
ENDBRANCH  17  19
ENDBRANCH   4  17
TORSDOF 5
ENDMDL
MODEL 2
REMARK VINA RESULT:      -9.0      2.103      2.750
REMARK  Name = 
REMARK  6 active torsions:
REMARK  status: ('A' for Active; 'I' for Inactive)
REMARK    1  A    between atoms: C_2  and  C_3
REMARK    2  A    between atoms: C_8  and  C_9
REMARK    3  A    between atoms: C_12  and  C_13
REMARK    4  A    between atoms: C_13  and  C_14
REMARK    5  A    between atoms: C_13  and  C_15
REMARK    6  A    between atoms: C_20  and  C_21
REMARK                            x       y       z     vdW  Elec       q    Type
REMARK                         _______ _______ _______ _____ _____    ______ ____
ROOT
ATOM      1  C   UNL     1       0.731   9.817  19.780  0.00  0.00    +0.000 A 
ATOM      2  C   UNL     1       0.595   9.157  21.003  0.00  0.00    +0.000 A 
ATOM      3  C   UNL     1       1.175   7.896  21.192  0.00  0.00    +0.000 A 
ATOM      4  C   UNL     1       1.904   7.279  20.159  0.00  0.00    +0.000 A 
ATOM      5  C   UNL     1       2.057   7.965  18.945  0.00  0.00    +0.000 A 
ATOM      6  C   UNL     1       1.473   9.218  18.757  0.00  0.00    +0.000 A 
ENDROOT
BRANCH   1  12
ATOM      7  C   UNL     1      -0.904  15.116  19.861  0.00  0.00    +0.000 C 
ATOM      8  O   UNL     1      -1.625  15.472  20.793  0.00  0.00    +0.000 OA
ATOM      9  N   UNL     1      -0.767  13.810  19.446  0.00  0.00    +0.000 N 
ATOM     10  C   UNL     1      -1.659  12.821  20.047  0.00  0.00    +0.000 C 
ATOM     11  C   UNL     1      -1.039  11.455  20.092  0.00  0.00    +0.000 C 
ATOM     12  C   UNL     1       0.149  11.143  19.550  0.00  0.00    +0.000 C 
ATOM     13  C   UNL     1       0.952  12.153  18.781  0.00  0.00    +0.000 C 
ATOM     14  C   UNL     1       0.082  13.337  18.344  0.00  0.00    +0.000 C 
BRANCH   7  16
ATOM     15  C   UNL     1      -0.784  17.117  18.461  0.00  0.00    +0.000 C 
ATOM     16  C   UNL     1      -0.133  16.144  19.112  0.00  0.00    +0.000 C 
ENDBRANCH   7  16
ENDBRANCH   1  12
BRANCH   4  17
ATOM     17  C   UNL     1       2.450   5.873  20.336  0.00  0.00    +0.000 C 
ATOM     18  C   UNL     1       1.284   4.880  20.483  0.00  0.00    +0.000 C 
BRANCH  17  19
ATOM     19  C   UNL     1       3.356   5.396  19.197  0.00  0.00    +0.000 C 
ATOM     20  O   UNL     1       2.899   4.709  18.281  0.00  0.00    +0.000 OA
ATOM     21  N   UNL     1       4.699   5.686  19.338  0.00  0.00    +0.000 N 
ATOM     22  C   UNL     1       5.602   5.215  18.411  0.00  0.00    +0.000 A 
ATOM     23  C   UNL     1       5.403   5.071  17.014  0.00  0.00    +0.000 A 
ATOM     24  C   UNL     1       6.491   4.360  16.579  0.00  0.00    +0.000 A 
ATOM     25  N   UNL     1       7.287   4.189  17.672  0.00  0.00    +0.000 N 
ATOM     26  N   UNL     1       6.812   4.791  18.784  0.00  0.00    +0.000 NA
ATOM     27  H   UNL     1       5.084   5.877  20.253  0.00  0.00    +0.000 HD
ATOM     28  H   UNL     1       8.150   3.663  17.734  0.00  0.00    +0.000 HD
BRANCH  24  29
ATOM     29  C   UNL     1       6.680   3.853  15.167  0.00  0.00    +0.000 C 
ATOM     30  C   UNL     1       5.684   4.237  14.098  0.00  0.00    +0.000 C 
ATOM     31  C   UNL     1       7.040   4.858  14.096  0.00  0.00    +0.000 C 
ENDBRANCH  24  29
ENDBRANCH  17  19
ENDBRANCH   4  17
TORSDOF 5
ENDMDL
MODEL 3
REMARK VINA RESULT:      -8.9      1.225      1.330
REMARK  Name = 
REMARK  6 active torsions:
REMARK  status: ('A' for Active; 'I' for Inactive)
REMARK    1  A    between atoms: C_2  and  C_3
REMARK    2  A    between atoms: C_8  and  C_9
REMARK    3  A    between atoms: C_12  and  C_13
REMARK    4  A    between atoms: C_13  and  C_14
REMARK    5  A    between atoms: C_13  and  C_15
REMARK    6  A    between atoms: C_20  and  C_21
REMARK                            x       y       z     vdW  Elec       q    Type
REMARK                         _______ _______ _______ _____ _____    ______ ____
ROOT
ATOM      1  C   UNL     1       1.372   9.154  19.011  0.00  0.00    +0.000 A 
ATOM      2  C   UNL     1       2.087   8.679  17.909  0.00  0.00    +0.000 A 
ATOM      3  C   UNL     1       2.824   7.492  18.006  0.00  0.00    +0.000 A 
ATOM      4  C   UNL     1       2.853   6.761  19.207  0.00  0.00    +0.000 A 
ATOM      5  C   UNL     1       2.108   7.233  20.298  0.00  0.00    +0.000 A 
ATOM      6  C   UNL     1       1.380   8.420  20.201  0.00  0.00    +0.000 A 
ENDROOT
BRANCH   1  12
ATOM      7  C   UNL     1      -1.613  13.745  19.893  0.00  0.00    +0.000 C 
ATOM      8  O   UNL     1      -2.723  13.609  20.408  0.00  0.00    +0.000 OA
ATOM      9  N   UNL     1      -0.944  12.745  19.223  0.00  0.00    +0.000 N 
ATOM     10  C   UNL     1      -1.675  11.504  18.973  0.00  0.00    +0.000 C 
ATOM     11  C   UNL     1      -0.762  10.316  18.897  0.00  0.00    +0.000 C 
ATOM     12  C   UNL     1       0.579  10.385  18.943  0.00  0.00    +0.000 C 
ATOM     13  C   UNL     1       1.295  11.703  19.019  0.00  0.00    +0.000 C 
ATOM     14  C   UNL     1       0.380  12.858  18.597  0.00  0.00    +0.000 C 
BRANCH   7  16
ATOM     15  C   UNL     1      -1.299  15.938  20.925  0.00  0.00    +0.000 C 
ATOM     16  C   UNL     1      -0.938  15.067  19.975  0.00  0.00    +0.000 C 
ENDBRANCH   7  16
ENDBRANCH   1  12
BRANCH   4  17
ATOM     17  C   UNL     1       3.728   5.526  19.336  0.00  0.00    +0.000 C 
ATOM     18  C   UNL     1       2.918   4.382  19.970  0.00  0.00    +0.000 C 
BRANCH  17  19
ATOM     19  C   UNL     1       4.323   5.029  18.015  0.00  0.00    +0.000 C 
ATOM     20  O   UNL     1       4.105   3.880  17.625  0.00  0.00    +0.000 OA
ATOM     21  N   UNL     1       5.189   5.899  17.383  0.00  0.00    +0.000 N 
ATOM     22  C   UNL     1       5.846   5.501  16.239  0.00  0.00    +0.000 A 
ATOM     23  C   UNL     1       5.344   4.668  15.206  0.00  0.00    +0.000 A 
ATOM     24  C   UNL     1       6.435   4.386  14.426  0.00  0.00    +0.000 A 
ATOM     25  N   UNL     1       7.470   5.094  14.961  0.00  0.00    +0.000 N 
ATOM     26  N   UNL     1       7.111   5.862  16.011  0.00  0.00    +0.000 NA
ATOM     27  H   UNL     1       5.649   6.629  17.909  0.00  0.00    +0.000 HD
ATOM     28  H   UNL     1       8.441   5.085  14.673  0.00  0.00    +0.000 HD
BRANCH  24  29
ATOM     29  C   UNL     1       6.431   3.432  13.253  0.00  0.00    +0.000 C 
ATOM     30  C   UNL     1       5.395   3.593  12.164  0.00  0.00    +0.000 C 
ATOM     31  C   UNL     1       6.811   3.978  11.894  0.00  0.00    +0.000 C 
ENDBRANCH  24  29
ENDBRANCH  17  19
ENDBRANCH   4  17
TORSDOF 5
ENDMDL
MODEL 4
REMARK VINA RESULT:      -8.7      0.954      1.056
REMARK  Name = 
REMARK  6 active torsions:
REMARK  status: ('A' for Active; 'I' for Inactive)
REMARK    1  A    between atoms: C_2  and  C_3
REMARK    2  A    between atoms: C_8  and  C_9
REMARK    3  A    between atoms: C_12  and  C_13
REMARK    4  A    between atoms: C_13  and  C_14
REMARK    5  A    between atoms: C_13  and  C_15
REMARK    6  A    between atoms: C_20  and  C_21
REMARK                            x       y       z     vdW  Elec       q    Type
REMARK                         _______ _______ _______ _____ _____    ______ ____
ROOT
ATOM      1  C   UNL     1       1.285   8.654  19.680  0.00  0.00    +0.000 A 
ATOM      2  C   UNL     1       1.952   8.437  18.473  0.00  0.00    +0.000 A 
ATOM      3  C   UNL     1       2.697   7.267  18.280  0.00  0.00    +0.000 A 
ATOM      4  C   UNL     1       2.782   6.295  19.292  0.00  0.00    +0.000 A 
ATOM      5  C   UNL     1       2.084   6.511  20.490  0.00  0.00    +0.000 A 
ATOM      6  C   UNL     1       1.348   7.681  20.682  0.00  0.00    +0.000 A 
ENDROOT
BRANCH   1  12
ATOM      7  C   UNL     1      -2.564  12.476  20.842  0.00  0.00    +0.000 C 
ATOM      8  O   UNL     1      -3.556  12.519  20.115  0.00  0.00    +0.000 OA
ATOM      9  N   UNL     1      -1.357  11.925  20.470  0.00  0.00    +0.000 N 
ATOM     10  C   UNL     1      -1.210  11.521  19.074  0.00  0.00    +0.000 C 
ATOM     11  C   UNL     1      -0.245  10.383  18.914  0.00  0.00    +0.000 C 
ATOM     12  C   UNL     1       0.485   9.860  19.913  0.00  0.00    +0.000 C 
ATOM     13  C   UNL     1       0.434  10.428  21.303  0.00  0.00    +0.000 C 
ATOM     14  C   UNL     1      -0.149  11.846  21.302  0.00  0.00    +0.000 C 
BRANCH   7  16
ATOM     15  C   UNL     1      -3.362  12.441  23.152  0.00  0.00    +0.000 C 
ATOM     16  C   UNL     1      -2.644  13.060  22.208  0.00  0.00    +0.000 C 
ENDBRANCH   7  16
ENDBRANCH   1  12
BRANCH   4  17
ATOM     17  C   UNL     1       3.667   5.073  19.115  0.00  0.00    +0.000 C 
ATOM     18  C   UNL     1       2.886   3.807  19.508  0.00  0.00    +0.000 C 
BRANCH  17  19
ATOM     19  C   UNL     1       4.215   4.887  17.697  0.00  0.00    +0.000 C 
ATOM     20  O   UNL     1       3.595   4.213  16.871  0.00  0.00    +0.000 OA
ATOM     21  N   UNL     1       5.470   5.413  17.465  0.00  0.00    +0.000 N 
ATOM     22  C   UNL     1       6.084   5.212  16.248  0.00  0.00    +0.000 A 
ATOM     23  C   UNL     1       5.466   5.164  14.973  0.00  0.00    +0.000 A 
ATOM     24  C   UNL     1       6.448   4.717  14.127  0.00  0.00    +0.000 A 
ATOM     25  N   UNL     1       7.572   4.600  14.889  0.00  0.00    +0.000 N 
ATOM     26  N   UNL     1       7.399   4.993  16.169  0.00  0.00    +0.000 NA
ATOM     27  H   UNL     1       6.098   5.587  18.238  0.00  0.00    +0.000 HD
ATOM     28  H   UNL     1       8.478   4.245  14.607  0.00  0.00    +0.000 HD
BRANCH  24  29
ATOM     29  C   UNL     1       6.242   4.389  12.665  0.00  0.00    +0.000 C 
ATOM     30  C   UNL     1       7.198   3.446  11.972  0.00  0.00    +0.000 C 
ATOM     31  C   UNL     1       5.820   2.981  12.307  0.00  0.00    +0.000 C 
ENDBRANCH  24  29
ENDBRANCH  17  19
ENDBRANCH   4  17
TORSDOF 5
ENDMDL
MODEL 5
REMARK VINA RESULT:      -8.7      0.965      1.381
REMARK  Name = 
REMARK  6 active torsions:
REMARK  status: ('A' for Active; 'I' for Inactive)
REMARK    1  A    between atoms: C_2  and  C_3
REMARK    2  A    between atoms: C_8  and  C_9
REMARK    3  A    between atoms: C_12  and  C_13
REMARK    4  A    between atoms: C_13  and  C_14
REMARK    5  A    between atoms: C_13  and  C_15
REMARK    6  A    between atoms: C_20  and  C_21
REMARK                            x       y       z     vdW  Elec       q    Type
REMARK                         _______ _______ _______ _____ _____    ______ ____
ROOT
ATOM      1  C   UNL     1       1.557   8.323  19.481  0.00  0.00    +0.000 A 
ATOM      2  C   UNL     1       1.709   7.405  20.522  0.00  0.00    +0.000 A 
ATOM      3  C   UNL     1       2.467   6.243  20.332  0.00  0.00    +0.000 A 
ATOM      4  C   UNL     1       3.089   5.986  19.098  0.00  0.00    +0.000 A 
ATOM      5  C   UNL     1       2.954   6.930  18.069  0.00  0.00    +0.000 A 
ATOM      6  C   UNL     1       2.191   8.083  18.258  0.00  0.00    +0.000 A 
ENDROOT
BRANCH   1  12
ATOM      7  C   UNL     1      -2.211  12.281  20.435  0.00  0.00    +0.000 C 
ATOM      8  O   UNL     1      -3.205  12.302  19.710  0.00  0.00    +0.000 OA
ATOM      9  N   UNL     1      -1.017  11.686  20.091  0.00  0.00    +0.000 N 
ATOM     10  C   UNL     1      -0.884  11.200  18.720  0.00  0.00    +0.000 C 
ATOM     11  C   UNL     1       0.058  10.035  18.622  0.00  0.00    +0.000 C 
ATOM     12  C   UNL     1       0.782   9.557  19.647  0.00  0.00    +0.000 C 
ATOM     13  C   UNL     1       0.749  10.204  21.002  0.00  0.00    +0.000 C 
ATOM     14  C   UNL     1       0.193  11.631  20.921  0.00  0.00    +0.000 C 
BRANCH   7  16
ATOM     15  C   UNL     1      -3.033  12.418  22.732  0.00  0.00    +0.000 C 
ATOM     16  C   UNL     1      -2.273  12.944  21.764  0.00  0.00    +0.000 C 
ENDBRANCH   7  16
ENDBRANCH   1  12
BRANCH   4  17
ATOM     17  C   UNL     1       3.832   4.681  18.867  0.00  0.00    +0.000 C 
ATOM     18  C   UNL     1       2.895   3.495  19.156  0.00  0.00    +0.000 C 
BRANCH  17  19
ATOM     19  C   UNL     1       4.405   4.518  17.456  0.00  0.00    +0.000 C 
ATOM     20  O   UNL     1       4.015   3.604  16.726  0.00  0.00    +0.000 OA
ATOM     21  N   UNL     1       5.439   5.371  17.126  0.00  0.00    +0.000 N 
ATOM     22  C   UNL     1       6.079   5.234  15.914  0.00  0.00    +0.000 A 
ATOM     23  C   UNL     1       5.500   4.866  14.674  0.00  0.00    +0.000 A 
ATOM     24  C   UNL     1       6.567   4.648  13.842  0.00  0.00    +0.000 A 
ATOM     25  N   UNL     1       7.678   4.958  14.570  0.00  0.00    +0.000 N 
ATOM     26  N   UNL     1       7.399   5.416  15.809  0.00  0.00    +0.000 NA
ATOM     27  H   UNL     1       5.988   5.808  17.854  0.00  0.00    +0.000 HD
ATOM     28  H   UNL     1       8.647   4.865  14.292  0.00  0.00    +0.000 HD
BRANCH  24  29
ATOM     29  C   UNL     1       6.465   4.119  12.429  0.00  0.00    +0.000 C 
ATOM     30  C   UNL     1       6.336   2.630  12.199  0.00  0.00    +0.000 C 
ATOM     31  C   UNL     1       5.149   3.511  11.994  0.00  0.00    +0.000 C 
ENDBRANCH  24  29
ENDBRANCH  17  19
ENDBRANCH   4  17
TORSDOF 5
ENDMDL
MODEL 6
REMARK VINA RESULT:      -8.6      1.740      2.280
REMARK  Name = 
REMARK  6 active torsions:
REMARK  status: ('A' for Active; 'I' for Inactive)
REMARK    1  A    between atoms: C_2  and  C_3
REMARK    2  A    between atoms: C_8  and  C_9
REMARK    3  A    between atoms: C_12  and  C_13
REMARK    4  A    between atoms: C_13  and  C_14
REMARK    5  A    between atoms: C_13  and  C_15
REMARK    6  A    between atoms: C_20  and  C_21
REMARK                            x       y       z     vdW  Elec       q    Type
REMARK                         _______ _______ _______ _____ _____    ______ ____
ROOT
ATOM      1  C   UNL     1       1.899   7.614  19.754  0.00  0.00    +0.000 A 
ATOM      2  C   UNL     1       2.686   7.605  18.601  0.00  0.00    +0.000 A 
ATOM      3  C   UNL     1       3.482   6.492  18.299  0.00  0.00    +0.000 A 
ATOM      4  C   UNL     1       3.496   5.370  19.146  0.00  0.00    +0.000 A 
ATOM      5  C   UNL     1       2.679   5.379  20.287  0.00  0.00    +0.000 A 
ATOM      6  C   UNL     1       1.893   6.492  20.588  0.00  0.00    +0.000 A 
ENDROOT
BRANCH   1  12
ATOM      7  C   UNL     1      -0.346  12.490  21.149  0.00  0.00    +0.000 C 
ATOM      8  O   UNL     1      -0.122  12.913  22.284  0.00  0.00    +0.000 OA
ATOM      9  N   UNL     1      -0.253  11.165  20.786  0.00  0.00    +0.000 N 
ATOM     10  C   UNL     1      -0.035  10.194  21.855  0.00  0.00    +0.000 C 
ATOM     11  C   UNL     1       0.708   8.982  21.375  0.00  0.00    +0.000 C 
ATOM     12  C   UNL     1       1.044   8.755  20.095  0.00  0.00    +0.000 C 
ATOM     13  C   UNL     1       0.639   9.699  18.998  0.00  0.00    +0.000 C 
ATOM     14  C   UNL     1      -0.505  10.615  19.448  0.00  0.00    +0.000 C 
BRANCH   7  16
ATOM     15  C   UNL     1       0.155  14.255  19.535  0.00  0.00    +0.000 C 
ATOM     16  C   UNL     1      -0.758  13.450  20.091  0.00  0.00    +0.000 C 
ENDBRANCH   7  16
ENDBRANCH   1  12
BRANCH   4  17
ATOM     17  C   UNL     1       4.430   4.205  18.866  0.00  0.00    +0.000 C 
ATOM     18  C   UNL     1       3.752   2.888  19.279  0.00  0.00    +0.000 C 
BRANCH  17  19
ATOM     19  C   UNL     1       4.877   4.087  17.406  0.00  0.00    +0.000 C 
ATOM     20  O   UNL     1       4.634   3.066  16.759  0.00  0.00    +0.000 OA
ATOM     21  N   UNL     1       5.650   5.127  16.929  0.00  0.00    +0.000 N 
ATOM     22  C   UNL     1       6.176   5.063  15.658  0.00  0.00    +0.000 A 
ATOM     23  C   UNL     1       5.572   4.498  14.506  0.00  0.00    +0.000 A 
ATOM     24  C   UNL     1       6.570   4.473  13.567  0.00  0.00    +0.000 A 
ATOM     25  N   UNL     1       7.649   5.068  14.151  0.00  0.00    +0.000 N 
ATOM     26  N   UNL     1       7.401   5.528  15.397  0.00  0.00    +0.000 NA
ATOM     27  H   UNL     1       6.155   5.721  17.573  0.00  0.00    +0.000 HD
ATOM     28  H   UNL     1       8.580   5.177  13.769  0.00  0.00    +0.000 HD
BRANCH  24  29
ATOM     29  C   UNL     1       6.447   3.848  12.195  0.00  0.00    +0.000 C 
ATOM     30  C   UNL     1       6.174   2.367  12.074  0.00  0.00    +0.000 C 
ATOM     31  C   UNL     1       5.087   3.341  11.768  0.00  0.00    +0.000 C 
ENDBRANCH  24  29
ENDBRANCH  17  19
ENDBRANCH   4  17
TORSDOF 5
ENDMDL
MODEL 7
REMARK VINA RESULT:      -8.5      0.728      1.217
REMARK  Name = 
REMARK  6 active torsions:
REMARK  status: ('A' for Active; 'I' for Inactive)
REMARK    1  A    between atoms: C_2  and  C_3
REMARK    2  A    between atoms: C_8  and  C_9
REMARK    3  A    between atoms: C_12  and  C_13
REMARK    4  A    between atoms: C_13  and  C_14
REMARK    5  A    between atoms: C_13  and  C_15
REMARK    6  A    between atoms: C_20  and  C_21
REMARK                            x       y       z     vdW  Elec       q    Type
REMARK                         _______ _______ _______ _____ _____    ______ ____
ROOT
ATOM      1  C   UNL     1       0.909   9.097  19.614  0.00  0.00    +0.000 A 
ATOM      2  C   UNL     1       1.144   8.301  20.737  0.00  0.00    +0.000 A 
ATOM      3  C   UNL     1       2.036   7.224  20.662  0.00  0.00    +0.000 A 
ATOM      4  C   UNL     1       2.709   6.931  19.463  0.00  0.00    +0.000 A 
ATOM      5  C   UNL     1       2.487   7.756  18.350  0.00  0.00    +0.000 A 
ATOM      6  C   UNL     1       1.592   8.824  18.425  0.00  0.00    +0.000 A 
ENDROOT
BRANCH   1  12
ATOM      7  C   UNL     1      -3.309  12.656  20.171  0.00  0.00    +0.000 C 
ATOM      8  O   UNL     1      -4.289  12.491  19.445  0.00  0.00    +0.000 OA
ATOM      9  N   UNL     1      -2.049  12.176  19.889  0.00  0.00    +0.000 N 
ATOM     10  C   UNL     1      -1.841  11.580  18.572  0.00  0.00    +0.000 C 
ATOM     11  C   UNL     1      -0.769  10.530  18.590  0.00  0.00    +0.000 C 
ATOM     12  C   UNL     1      -0.008  10.240  19.658  0.00  0.00    +0.000 C 
ATOM     13  C   UNL     1      -0.135  11.006  20.944  0.00  0.00    +0.000 C 
ATOM     14  C   UNL     1      -0.853  12.343  20.725  0.00  0.00    +0.000 C 
BRANCH   7  16
ATOM     15  C   UNL     1      -3.799  12.797  22.561  0.00  0.00    +0.000 C 
ATOM     16  C   UNL     1      -3.467  13.431  21.430  0.00  0.00    +0.000 C 
ENDBRANCH   7  16
ENDBRANCH   1  12
BRANCH   4  17
ATOM     17  C   UNL     1       3.603   5.707  19.361  0.00  0.00    +0.000 C 
ATOM     18  C   UNL     1       2.834   4.464  19.840  0.00  0.00    +0.000 C 
BRANCH  17  19
ATOM     19  C   UNL     1       4.145   5.433  17.955  0.00  0.00    +0.000 C 
ATOM     20  O   UNL     1       3.474   4.796  17.139  0.00  0.00    +0.000 OA
ATOM     21  N   UNL     1       5.446   5.836  17.724  0.00  0.00    +0.000 N 
ATOM     22  C   UNL     1       6.050   5.547  16.521  0.00  0.00    +0.000 A 
ATOM     23  C   UNL     1       5.442   5.521  15.239  0.00  0.00    +0.000 A 
ATOM     24  C   UNL     1       6.387   4.963  14.418  0.00  0.00    +0.000 A 
ATOM     25  N   UNL     1       7.489   4.765  15.196  0.00  0.00    +0.000 N 
ATOM     26  N   UNL     1       7.340   5.207  16.464  0.00  0.00    +0.000 NA
ATOM     27  H   UNL     1       6.080   5.974  18.500  0.00  0.00    +0.000 HD
ATOM     28  H   UNL     1       8.361   4.321  14.935  0.00  0.00    +0.000 HD
BRANCH  24  29
ATOM     29  C   UNL     1       6.167   4.616  12.963  0.00  0.00    +0.000 C 
ATOM     30  C   UNL     1       7.185   3.767  12.238  0.00  0.00    +0.000 C 
ATOM     31  C   UNL     1       5.869   3.174  12.616  0.00  0.00    +0.000 C 
ENDBRANCH  24  29
ENDBRANCH  17  19
ENDBRANCH   4  17
TORSDOF 5
ENDMDL
MODEL 8
REMARK VINA RESULT:      -8.4      1.466      1.910
REMARK  Name = 
REMARK  6 active torsions:
REMARK  status: ('A' for Active; 'I' for Inactive)
REMARK    1  A    between atoms: C_2  and  C_3
REMARK    2  A    between atoms: C_8  and  C_9
REMARK    3  A    between atoms: C_12  and  C_13
REMARK    4  A    between atoms: C_13  and  C_14
REMARK    5  A    between atoms: C_13  and  C_15
REMARK    6  A    between atoms: C_20  and  C_21
REMARK                            x       y       z     vdW  Elec       q    Type
REMARK                         _______ _______ _______ _____ _____    ______ ____
ROOT
ATOM      1  C   UNL     1       1.314   9.046  19.163  0.00  0.00    +0.000 A 
ATOM      2  C   UNL     1       1.348   8.295  20.340  0.00  0.00    +0.000 A 
ATOM      3  C   UNL     1       2.033   7.074  20.378  0.00  0.00    +0.000 A 
ATOM      4  C   UNL     1       2.696   6.588  19.237  0.00  0.00    +0.000 A 
ATOM      5  C   UNL     1       2.679   7.364  18.069  0.00  0.00    +0.000 A 
ATOM      6  C   UNL     1       1.991   8.578  18.032  0.00  0.00    +0.000 A 
ENDROOT
BRANCH   1  12
ATOM      7  C   UNL     1      -1.049  13.995  19.994  0.00  0.00    +0.000 C 
ATOM      8  O   UNL     1      -2.022  14.039  20.747  0.00  0.00    +0.000 OA
ATOM      9  N   UNL     1      -0.624  12.856  19.347  0.00  0.00    +0.000 N 
ATOM     10  C   UNL     1      -1.481  11.677  19.437  0.00  0.00    +0.000 C 
ATOM     11  C   UNL     1      -0.699  10.400  19.339  0.00  0.00    +0.000 C 
ATOM     12  C   UNL     1       0.619  10.335  19.090  0.00  0.00    +0.000 C 
ATOM     13  C   UNL     1       1.430  11.571  18.823  0.00  0.00    +0.000 C 
ATOM     14  C   UNL     1       0.531  12.753  18.445  0.00  0.00    +0.000 C 
BRANCH   7  16
ATOM     15  C   UNL     1      -0.814  16.215  18.999  0.00  0.00    +0.000 C 
ATOM     16  C   UNL     1      -0.276  15.240  19.741  0.00  0.00    +0.000 C 
ENDBRANCH   7  16
ENDBRANCH   1  12
BRANCH   4  17
ATOM     17  C   UNL     1       3.357   5.220  19.255  0.00  0.00    +0.000 C 
ATOM     18  C   UNL     1       2.290   4.134  19.479  0.00  0.00    +0.000 C 
BRANCH  17  19
ATOM     19  C   UNL     1       4.143   4.878  17.986  0.00  0.00    +0.000 C 
ATOM     20  O   UNL     1       4.120   3.734  17.527  0.00  0.00    +0.000 OA
ATOM     21  N   UNL     1       4.944   5.886  17.487  0.00  0.00    +0.000 N 
ATOM     22  C   UNL     1       5.760   5.640  16.405  0.00  0.00    +0.000 A 
ATOM     23  C   UNL     1       5.480   4.809  15.290  0.00  0.00    +0.000 A 
ATOM     24  C   UNL     1       6.671   4.713  14.620  0.00  0.00    +0.000 A 
ATOM     25  N   UNL     1       7.544   5.516  15.292  0.00  0.00    +0.000 N 
ATOM     26  N   UNL     1       6.982   6.173  16.330  0.00  0.00    +0.000 NA
ATOM     27  H   UNL     1       5.248   6.639  18.090  0.00  0.00    +0.000 HD
ATOM     28  H   UNL     1       8.532   5.648  15.110  0.00  0.00    +0.000 HD
BRANCH  24  29
ATOM     29  C   UNL     1       6.913   3.833  13.414  0.00  0.00    +0.000 C 
ATOM     30  C   UNL     1       5.814   3.650  12.393  0.00  0.00    +0.000 C 
ATOM     31  C   UNL     1       6.995   4.498  12.057  0.00  0.00    +0.000 C 
ENDBRANCH  24  29
ENDBRANCH  17  19
ENDBRANCH   4  17
TORSDOF 5
ENDMDL
MODEL 9
REMARK VINA RESULT:      -8.3      2.643     10.186
REMARK  Name = 
REMARK  6 active torsions:
REMARK  status: ('A' for Active; 'I' for Inactive)
REMARK    1  A    between atoms: C_2  and  C_3
REMARK    2  A    between atoms: C_8  and  C_9
REMARK    3  A    between atoms: C_12  and  C_13
REMARK    4  A    between atoms: C_13  and  C_14
REMARK    5  A    between atoms: C_13  and  C_15
REMARK    6  A    between atoms: C_20  and  C_21
REMARK                            x       y       z     vdW  Elec       q    Type
REMARK                         _______ _______ _______ _____ _____    ______ ____
ROOT
ATOM      1  C   UNL     1       3.335   6.946  18.216  0.00  0.00    +0.000 A 
ATOM      2  C   UNL     1       2.884   6.507  19.462  0.00  0.00    +0.000 A 
ATOM      3  C   UNL     1       1.968   7.276  20.191  0.00  0.00    +0.000 A 
ATOM      4  C   UNL     1       1.486   8.494  19.679  0.00  0.00    +0.000 A 
ATOM      5  C   UNL     1       1.925   8.910  18.413  0.00  0.00    +0.000 A 
ATOM      6  C   UNL     1       2.843   8.146  17.693  0.00  0.00    +0.000 A 
ENDROOT
BRANCH   1  12
ATOM      7  C   UNL     1       6.338   4.393  14.313  0.00  0.00    +0.000 C 
ATOM      8  O   UNL     1       5.773   3.535  13.634  0.00  0.00    +0.000 OA
ATOM      9  N   UNL     1       5.909   4.799  15.557  0.00  0.00    +0.000 N 
ATOM     10  C   UNL     1       4.816   4.045  16.166  0.00  0.00    +0.000 C 
ATOM     11  C   UNL     1       3.994   4.891  17.094  0.00  0.00    +0.000 C 
ATOM     12  C   UNL     1       4.283   6.161  17.419  0.00  0.00    +0.000 C 
ATOM     13  C   UNL     1       5.522   6.840  16.908  0.00  0.00    +0.000 C 
ATOM     14  C   UNL     1       6.546   5.819  16.401  0.00  0.00    +0.000 C 
BRANCH   7  16
ATOM     15  C   UNL     1       7.737   5.159  12.461  0.00  0.00    +0.000 C 
ATOM     16  C   UNL     1       7.570   5.035  13.783  0.00  0.00    +0.000 C 
ENDBRANCH   7  16
ENDBRANCH   1  12
BRANCH   4  17
ATOM     17  C   UNL     1       0.567   9.369  20.513  0.00  0.00    +0.000 C 
ATOM     18  C   UNL     1       0.778   9.066  22.006  0.00  0.00    +0.000 C 
BRANCH  17  19
ATOM     19  C   UNL     1       0.748  10.874  20.291  0.00  0.00    +0.000 C 
ATOM     20  O   UNL     1       1.350  11.560  21.120  0.00  0.00    +0.000 OA
ATOM     21  N   UNL     1       0.104  11.399  19.188  0.00  0.00    +0.000 N 
ATOM     22  C   UNL     1       0.132  12.757  18.961  0.00  0.00    +0.000 A 
ATOM     23  C   UNL     1       1.205  13.649  19.217  0.00  0.00    +0.000 A 
ATOM     24  C   UNL     1       0.669  14.898  19.044  0.00  0.00    +0.000 A 
ATOM     25  N   UNL     1      -0.617  14.699  18.636  0.00  0.00    +0.000 N 
ATOM     26  N   UNL     1      -0.938  13.397  18.482  0.00  0.00    +0.000 NA
ATOM     27  H   UNL     1      -0.683  10.912  18.781  0.00  0.00    +0.000 HD
ATOM     28  H   UNL     1      -1.329  15.399  18.465  0.00  0.00    +0.000 HD
BRANCH  24  29
ATOM     29  C   UNL     1       1.397  16.194  19.318  0.00  0.00    +0.000 C 
ATOM     30  C   UNL     1       2.866  16.308  18.983  0.00  0.00    +0.000 C 
ATOM     31  C   UNL     1       1.862  17.010  18.132  0.00  0.00    +0.000 C 
ENDBRANCH  24  29
ENDBRANCH  17  19
ENDBRANCH   4  17
TORSDOF 5
ENDMDL
