MODEL 1
REMARK VINA RESULT:      -6.1      0.000      0.000
REMARK  Name = 
REMARK  13 active torsions:
REMARK  status: ('A' for Active; 'I' for Inactive)
REMARK    1  A    between atoms: N_1  and  C_2
REMARK    2  A    between atoms: C_2  and  C_3
REMARK    3  A    between atoms: C_3  and  C_4
REMARK    4  A    between atoms: C_4  and  C_5
REMARK    5  A    between atoms: C_5  and  C_6
REMARK    6  A    between atoms: C_6  and  N_7
REMARK    7  A    between atoms: C_6  and  C_8
REMARK    8  A    between atoms: N_10  and  C_11
REMARK    9  A    between atoms: C_13  and  N_14
REMARK   10  A    between atoms: C_18  and  O_19
REMARK   11  A    between atoms: C_20  and  O_21
REMARK   12  A    between atoms: C_24  and  O_25
REMARK   13  A    between atoms: C_26  and  O_27
REMARK                            x       y       z     vdW  Elec       q    Type
REMARK                         _______ _______ _______ _____ _____    ______ ____
ROOT
ATOM      1  C   UNL     1       4.665   6.661  16.997  0.00  0.00    +0.000 C 
ATOM      2  C   UNL     1       3.149   6.967  17.176  0.00  0.00    +0.000 C 
ATOM      3  C   UNL     1       2.351   6.375  18.393  0.00  0.00    +0.000 C 
ATOM      4  C   UNL     1       2.867   4.968  18.897  0.00  0.00    +0.000 C 
ATOM      5  C   UNL     1       2.302   3.851  17.969  0.00  0.00    +0.000 C 
ATOM      6  C   UNL     1       1.096   3.030  18.407  0.00  0.00    +0.000 C 
ATOM      7  C   UNL     1       1.404   2.106  19.582  0.00  0.00    +0.000 C 
ATOM      8  C   UNL     1       1.297   2.806  20.939  0.00  0.00    +0.000 C 
ATOM      9  C   UNL     1       1.451   4.336  20.891  0.00  0.00    +0.000 C 
ATOM     10  O   UNL     1       2.672   4.775  20.319  0.00  0.00    +0.000 OA
ATOM     11  C   UNL     1       4.431   5.003  18.846  0.00  0.00    +0.000 C 
ATOM     12  C   UNL     1       5.011   5.234  17.448  0.00  0.00    +0.000 C 
ENDROOT
BRANCH   1  15
ATOM     13  C   UNL     1       6.948   7.517  17.366  0.00  0.00    +0.000 C 
ATOM     14  O   UNL     1       7.387   6.836  16.438  0.00  0.00    +0.000 OA
ATOM     15  N   UNL     1       5.581   7.615  17.644  0.00  0.00    +0.000 N 
ATOM     16  H   UNL     1       5.392   7.763  18.628  0.00  0.00    +0.000 HD
BRANCH  13  17
ATOM     17  C   UNL     1       7.899   8.298  18.308  0.00  0.00    +0.000 C 
BRANCH  17  18
ATOM     18  N   UNL     1       8.740   7.338  19.036  0.00  0.00    +0.000 NA
ATOM     19  H   UNL     1       8.565   6.395  18.673  0.00  0.00    +0.000 HD
ATOM     20  H   UNL     1       8.409   7.298  20.010  0.00  0.00    +0.000 HD
ENDBRANCH  17  18
BRANCH  17  21
ATOM     21  C   UNL     1       8.819   9.303  17.597  0.00  0.00    +0.000 C 
BRANCH  21  22
ATOM     22  C   UNL     1       9.004  10.653  18.295  0.00  0.00    +0.000 C 
BRANCH  22  23
ATOM     23  C   UNL     1      10.276  11.416  17.906  0.00  0.00    +0.000 C 
BRANCH  23  24
ATOM     24  C   UNL     1       9.934  12.877  17.596  0.00  0.00    +0.000 C 
BRANCH  24  25
ATOM     25  N   UNL     1       8.518  13.041  17.291  0.00  0.00    +0.000 NA
ATOM     26  H   UNL     1       8.237  12.338  16.608  0.00  0.00    +0.000 HD
ATOM     27  H   UNL     1       8.363  13.945  16.846  0.00  0.00    +0.000 HD
ENDBRANCH  24  25
ENDBRANCH  23  24
ENDBRANCH  22  23
ENDBRANCH  21  22
ENDBRANCH  17  21
ENDBRANCH  13  17
ENDBRANCH   1  15
BRANCH   3  28
ATOM     28  N   UNL     1       2.187   7.376  19.454  0.00  0.00    +0.000 NA
ATOM     29  H   UNL     1       2.164   8.336  19.123  0.00  0.00    +0.000 HD
ATOM     30  H   UNL     1       2.887   7.257  20.186  0.00  0.00    +0.000 HD
ENDBRANCH   3  28
BRANCH   7  31
ATOM     31  O   UNL     1       2.693   1.487  19.453  0.00  0.00    +0.000 OA
ATOM     32  H   UNL     1       2.605   0.556  19.734  0.00  0.00    +0.000 HD
ENDBRANCH   7  31
BRANCH   8  33
ATOM     33  O   UNL     1       2.254   2.237  21.849  0.00  0.00    +0.000 OA
ATOM     34  H   UNL     1       3.036   2.828  21.838  0.00  0.00    +0.000 HD
ENDBRANCH   8  33
BRANCH  11  35
ATOM     35  O   UNL     1       4.940   6.050  19.722  0.00  0.00    +0.000 OA
ATOM     36  H   UNL     1       5.565   5.604  20.331  0.00  0.00    +0.000 HD
ENDBRANCH  11  35
BRANCH  12  37
ATOM     37  O   UNL     1       4.562   4.283  16.489  0.00  0.00    +0.000 OA
ATOM     38  H   UNL     1       4.565   3.411  16.919  0.00  0.00    +0.000 HD
ENDBRANCH  12  37
TORSDOF 13
ENDMDL
MODEL 2
REMARK VINA RESULT:      -6.1      6.334      9.086
REMARK  Name = 
REMARK  13 active torsions:
REMARK  status: ('A' for Active; 'I' for Inactive)
REMARK    1  A    between atoms: N_1  and  C_2
REMARK    2  A    between atoms: C_2  and  C_3
REMARK    3  A    between atoms: C_3  and  C_4
REMARK    4  A    between atoms: C_4  and  C_5
REMARK    5  A    between atoms: C_5  and  C_6
REMARK    6  A    between atoms: C_6  and  N_7
REMARK    7  A    between atoms: C_6  and  C_8
REMARK    8  A    between atoms: N_10  and  C_11
REMARK    9  A    between atoms: C_13  and  N_14
REMARK   10  A    between atoms: C_18  and  O_19
REMARK   11  A    between atoms: C_20  and  O_21
REMARK   12  A    between atoms: C_24  and  O_25
REMARK   13  A    between atoms: C_26  and  O_27
REMARK                            x       y       z     vdW  Elec       q    Type
REMARK                         _______ _______ _______ _____ _____    ______ ____
ROOT
ATOM      1  C   UNL     1       0.644  10.157  18.778  0.00  0.00    +0.000 C 
ATOM      2  C   UNL     1       1.153  11.615  18.976  0.00  0.00    +0.000 C 
ATOM      3  C   UNL     1       0.757  12.434  20.255  0.00  0.00    +0.000 C 
ATOM      4  C   UNL     1      -0.665  12.081  20.850  0.00  0.00    +0.000 C 
ATOM      5  C   UNL     1      -1.764  12.815  20.026  0.00  0.00    +0.000 C 
ATOM      6  C   UNL     1      -2.391  14.098  20.558  0.00  0.00    +0.000 C 
ATOM      7  C   UNL     1      -3.260  13.865  21.790  0.00  0.00    +0.000 C 
ATOM      8  C   UNL     1      -2.456  13.832  23.093  0.00  0.00    +0.000 C 
ATOM      9  C   UNL     1      -0.966  13.490  22.924  0.00  0.00    +0.000 C 
ATOM     10  O   UNL     1      -0.729  12.245  22.287  0.00  0.00    +0.000 OA
ATOM     11  C   UNL     1      -0.834  10.528  20.753  0.00  0.00    +0.000 C 
ATOM     12  C   UNL     1      -0.779   9.975  19.326  0.00  0.00    +0.000 C 
ENDROOT
BRANCH   1  15
ATOM     13  C   UNL     1       2.234   8.304  18.431  0.00  0.00    +0.000 C 
ATOM     14  O   UNL     1       2.353   8.587  17.238  0.00  0.00    +0.000 OA
ATOM     15  N   UNL     1       1.517   9.104  19.325  0.00  0.00    +0.000 N 
ATOM     16  H   UNL     1       1.095   8.571  20.075  0.00  0.00    +0.000 HD
BRANCH  13  17
ATOM     17  C   UNL     1       2.862   7.013  19.015  0.00  0.00    +0.000 C 
BRANCH  17  18
ATOM     18  N   UNL     1       2.119   6.629  20.223  0.00  0.00    +0.000 NA
ATOM     19  H   UNL     1       1.143   6.929  20.126  0.00  0.00    +0.000 HD
ATOM     20  H   UNL     1       2.478   7.186  21.010  0.00  0.00    +0.000 HD
ENDBRANCH  17  18
BRANCH  17  21
ATOM     21  C   UNL     1       2.872   5.814  18.053  0.00  0.00    +0.000 C 
BRANCH  21  22
ATOM     22  C   UNL     1       1.632   4.917  18.086  0.00  0.00    +0.000 C 
BRANCH  22  23
ATOM     23  C   UNL     1       1.920   3.412  18.121  0.00  0.00    +0.000 C 
BRANCH  23  24
ATOM     24  C   UNL     1       1.294   2.789  19.373  0.00  0.00    +0.000 C 
BRANCH  24  25
ATOM     25  N   UNL     1       0.652   3.797  20.207  0.00  0.00    +0.000 NA
ATOM     26  H   UNL     1       0.059   4.388  19.624  0.00  0.00    +0.000 HD
ATOM     27  H   UNL     1       1.357   4.413  20.608  0.00  0.00    +0.000 HD
ENDBRANCH  24  25
ENDBRANCH  23  24
ENDBRANCH  22  23
ENDBRANCH  21  22
ENDBRANCH  17  21
ENDBRANCH  13  17
ENDBRANCH   1  15
BRANCH   3  28
ATOM     28  N   UNL     1       1.844  12.432  21.241  0.00  0.00    +0.000 NA
ATOM     29  H   UNL     1       2.626  11.832  21.000  0.00  0.00    +0.000 HD
ATOM     30  H   UNL     1       1.495  12.222  22.176  0.00  0.00    +0.000 HD
ENDBRANCH   3  28
BRANCH   7  31
ATOM     31  O   UNL     1      -4.046  12.669  21.673  0.00  0.00    +0.000 OA
ATOM     32  H   UNL     1      -4.926  12.924  21.336  0.00  0.00    +0.000 HD
ENDBRANCH   7  31
BRANCH   8  33
ATOM     33  O   UNL     1      -3.077  12.921  24.016  0.00  0.00    +0.000 OA
ATOM     34  H   UNL     1      -3.929  13.327  24.279  0.00  0.00    +0.000 HD
ENDBRANCH   8  33
BRANCH  11  35
ATOM     35  O   UNL     1       0.200   9.859  21.533  0.00  0.00    +0.000 OA
ATOM     36  H   UNL     1      -0.033  10.020  22.471  0.00  0.00    +0.000 HD
ENDBRANCH  11  35
BRANCH  12  37
ATOM     37  O   UNL     1      -1.731  10.575  18.455  0.00  0.00    +0.000 OA
ATOM     38  H   UNL     1      -1.347  11.408  18.131  0.00  0.00    +0.000 HD
ENDBRANCH  12  37
TORSDOF 13
ENDMDL
MODEL 3
REMARK VINA RESULT:      -6.0      6.446      8.862
REMARK  Name = 
REMARK  13 active torsions:
REMARK  status: ('A' for Active; 'I' for Inactive)
REMARK    1  A    between atoms: N_1  and  C_2
REMARK    2  A    between atoms: C_2  and  C_3
REMARK    3  A    between atoms: C_3  and  C_4
REMARK    4  A    between atoms: C_4  and  C_5
REMARK    5  A    between atoms: C_5  and  C_6
REMARK    6  A    between atoms: C_6  and  N_7
REMARK    7  A    between atoms: C_6  and  C_8
REMARK    8  A    between atoms: N_10  and  C_11
REMARK    9  A    between atoms: C_13  and  N_14
REMARK   10  A    between atoms: C_18  and  O_19
REMARK   11  A    between atoms: C_20  and  O_21
REMARK   12  A    between atoms: C_24  and  O_25
REMARK   13  A    between atoms: C_26  and  O_27
REMARK                            x       y       z     vdW  Elec       q    Type
REMARK                         _______ _______ _______ _____ _____    ______ ____
ROOT
ATOM      1  C   UNL     1       0.607  10.232  18.739  0.00  0.00    +0.000 C 
ATOM      2  C   UNL     1       1.141  11.677  18.964  0.00  0.00    +0.000 C 
ATOM      3  C   UNL     1       0.753  12.481  20.256  0.00  0.00    +0.000 C 
ATOM      4  C   UNL     1      -0.678  12.143  20.838  0.00  0.00    +0.000 C 
ATOM      5  C   UNL     1      -1.759  12.912  20.022  0.00  0.00    +0.000 C 
ATOM      6  C   UNL     1      -2.366  14.196  20.574  0.00  0.00    +0.000 C 
ATOM      7  C   UNL     1      -3.245  13.956  21.798  0.00  0.00    +0.000 C 
ATOM      8  C   UNL     1      -2.448  13.887  23.103  0.00  0.00    +0.000 C 
ATOM      9  C   UNL     1      -0.964  13.521  22.936  0.00  0.00    +0.000 C 
ATOM     10  O   UNL     1      -0.746  12.283  22.278  0.00  0.00    +0.000 OA
ATOM     11  C   UNL     1      -0.873  10.595  20.713  0.00  0.00    +0.000 C 
ATOM     12  C   UNL     1      -0.822  10.067  19.277  0.00  0.00    +0.000 C 
ENDROOT
BRANCH   1  15
ATOM     13  C   UNL     1       2.161   8.355  18.366  0.00  0.00    +0.000 C 
ATOM     14  O   UNL     1       2.288   8.654  17.178  0.00  0.00    +0.000 OA
ATOM     15  N   UNL     1       1.458   9.155  19.271  0.00  0.00    +0.000 N 
ATOM     16  H   UNL     1       1.025   8.619  20.012  0.00  0.00    +0.000 HD
BRANCH  13  17
ATOM     17  C   UNL     1       2.763   7.043  18.931  0.00  0.00    +0.000 C 
BRANCH  17  18
ATOM     18  N   UNL     1       2.318   6.878  20.322  0.00  0.00    +0.000 NA
ATOM     19  H   UNL     1       2.001   5.913  20.461  0.00  0.00    +0.000 HD
ATOM     20  H   UNL     1       1.470   7.445  20.456  0.00  0.00    +0.000 HD
ENDBRANCH  17  18
BRANCH  17  21
ATOM     21  C   UNL     1       2.383   5.776  18.150  0.00  0.00    +0.000 C 
BRANCH  21  22
ATOM     22  C   UNL     1       3.548   4.980  17.555  0.00  0.00    +0.000 C 
BRANCH  22  23
ATOM     23  C   UNL     1       3.703   3.554  18.096  0.00  0.00    +0.000 C 
BRANCH  23  24
ATOM     24  C   UNL     1       4.585   3.563  19.349  0.00  0.00    +0.000 C 
BRANCH  24  25
ATOM     25  N   UNL     1       4.955   2.212  19.752  0.00  0.00    +0.000 NA
ATOM     26  H   UNL     1       5.944   2.062  19.553  0.00  0.00    +0.000 HD
ATOM     27  H   UNL     1       4.447   1.532  19.187  0.00  0.00    +0.000 HD
ENDBRANCH  24  25
ENDBRANCH  23  24
ENDBRANCH  22  23
ENDBRANCH  21  22
ENDBRANCH  17  21
ENDBRANCH  13  17
ENDBRANCH   1  15
BRANCH   3  28
ATOM     28  N   UNL     1       1.836  12.442  21.247  0.00  0.00    +0.000 NA
ATOM     29  H   UNL     1       1.595  11.966  22.110  0.00  0.00    +0.000 HD
ATOM     30  H   UNL     1       2.201  13.377  21.432  0.00  0.00    +0.000 HD
ENDBRANCH   3  28
BRANCH   7  31
ATOM     31  O   UNL     1      -4.052  12.778  21.656  0.00  0.00    +0.000 OA
ATOM     32  H   UNL     1      -4.988  13.056  21.658  0.00  0.00    +0.000 HD
ENDBRANCH   7  31
BRANCH   8  33
ATOM     33  O   UNL     1      -3.090  12.971  24.008  0.00  0.00    +0.000 OA
ATOM     34  H   UNL     1      -2.382  12.402  24.378  0.00  0.00    +0.000 HD
ENDBRANCH   8  33
BRANCH  11  35
ATOM     35  O   UNL     1       0.144   9.895  21.486  0.00  0.00    +0.000 OA
ATOM     36  H   UNL     1       0.607  10.588  22.001  0.00  0.00    +0.000 HD
ENDBRANCH  11  35
BRANCH  12  37
ATOM     37  O   UNL     1      -1.759  10.699  18.412  0.00  0.00    +0.000 OA
ATOM     38  H   UNL     1      -1.320  10.836  17.555  0.00  0.00    +0.000 HD
ENDBRANCH  12  37
TORSDOF 13
ENDMDL
MODEL 4
REMARK VINA RESULT:      -6.0      1.107      1.171
REMARK  Name = 
REMARK  13 active torsions:
REMARK  status: ('A' for Active; 'I' for Inactive)
REMARK    1  A    between atoms: N_1  and  C_2
REMARK    2  A    between atoms: C_2  and  C_3
REMARK    3  A    between atoms: C_3  and  C_4
REMARK    4  A    between atoms: C_4  and  C_5
REMARK    5  A    between atoms: C_5  and  C_6
REMARK    6  A    between atoms: C_6  and  N_7
REMARK    7  A    between atoms: C_6  and  C_8
REMARK    8  A    between atoms: N_10  and  C_11
REMARK    9  A    between atoms: C_13  and  N_14
REMARK   10  A    between atoms: C_18  and  O_19
REMARK   11  A    between atoms: C_20  and  O_21
REMARK   12  A    between atoms: C_24  and  O_25
REMARK   13  A    between atoms: C_26  and  O_27
REMARK                            x       y       z     vdW  Elec       q    Type
REMARK                         _______ _______ _______ _____ _____    ______ ____
ROOT
ATOM      1  C   UNL     1       4.655   6.642  16.998  0.00  0.00    +0.000 C 
ATOM      2  C   UNL     1       3.139   6.952  17.171  0.00  0.00    +0.000 C 
ATOM      3  C   UNL     1       2.335   6.367  18.386  0.00  0.00    +0.000 C 
ATOM      4  C   UNL     1       2.844   4.960  18.897  0.00  0.00    +0.000 C 
ATOM      5  C   UNL     1       2.280   3.842  17.971  0.00  0.00    +0.000 C 
ATOM      6  C   UNL     1       1.070   3.026  18.407  0.00  0.00    +0.000 C 
ATOM      7  C   UNL     1       1.371   2.105  19.586  0.00  0.00    +0.000 C 
ATOM      8  C   UNL     1       1.261   2.811  20.940  0.00  0.00    +0.000 C 
ATOM      9  C   UNL     1       1.419   4.340  20.887  0.00  0.00    +0.000 C 
ATOM     10  O   UNL     1       2.644   4.773  20.319  0.00  0.00    +0.000 OA
ATOM     11  C   UNL     1       4.409   4.991  18.852  0.00  0.00    +0.000 C 
ATOM     12  C   UNL     1       4.995   5.215  17.455  0.00  0.00    +0.000 C 
ENDROOT
BRANCH   1  15
ATOM     13  C   UNL     1       6.937   7.500  17.362  0.00  0.00    +0.000 C 
ATOM     14  O   UNL     1       7.375   6.823  16.431  0.00  0.00    +0.000 OA
ATOM     15  N   UNL     1       5.572   7.595  17.645  0.00  0.00    +0.000 N 
ATOM     16  H   UNL     1       5.385   7.739  18.630  0.00  0.00    +0.000 HD
BRANCH  13  17
ATOM     17  C   UNL     1       7.890   8.280  18.303  0.00  0.00    +0.000 C 
BRANCH  17  18
ATOM     18  N   UNL     1       8.737   7.319  19.024  0.00  0.00    +0.000 NA
ATOM     19  H   UNL     1       9.631   7.224  18.531  0.00  0.00    +0.000 HD
ATOM     20  H   UNL     1       8.305   6.388  18.943  0.00  0.00    +0.000 HD
ENDBRANCH  17  18
BRANCH  17  21
ATOM     21  C   UNL     1       8.805   9.291  17.593  0.00  0.00    +0.000 C 
BRANCH  21  22
ATOM     22  C   UNL     1       8.930  10.665  18.258  0.00  0.00    +0.000 C 
BRANCH  22  23
ATOM     23  C   UNL     1       9.884  10.721  19.457  0.00  0.00    +0.000 C 
BRANCH  23  24
ATOM     24  C   UNL     1       9.400  11.771  20.462  0.00  0.00    +0.000 C 
BRANCH  24  25
ATOM     25  N   UNL     1       9.247  11.203  21.796  0.00  0.00    +0.000 NA
ATOM     26  H   UNL     1       8.518  11.710  22.296  0.00  0.00    +0.000 HD
ATOM     27  H   UNL     1      10.104  11.340  22.330  0.00  0.00    +0.000 HD
ENDBRANCH  24  25
ENDBRANCH  23  24
ENDBRANCH  22  23
ENDBRANCH  21  22
ENDBRANCH  17  21
ENDBRANCH  13  17
ENDBRANCH   1  15
BRANCH   3  28
ATOM     28  N   UNL     1       2.170   7.373  19.443  0.00  0.00    +0.000 NA
ATOM     29  H   UNL     1       1.464   8.075  19.245  0.00  0.00    +0.000 HD
ATOM     30  H   UNL     1       3.062   7.806  19.683  0.00  0.00    +0.000 HD
ENDBRANCH   3  28
BRANCH   7  31
ATOM     31  O   UNL     1       2.658   1.482  19.465  0.00  0.00    +0.000 OA
ATOM     32  H   UNL     1       3.158   1.962  18.778  0.00  0.00    +0.000 HD
ENDBRANCH   7  31
BRANCH   8  33
ATOM     33  O   UNL     1       2.213   2.241  21.856  0.00  0.00    +0.000 OA
ATOM     34  H   UNL     1       2.727   2.990  22.225  0.00  0.00    +0.000 HD
ENDBRANCH   8  33
BRANCH  11  35
ATOM     35  O   UNL     1       4.917   6.039  19.726  0.00  0.00    +0.000 OA
ATOM     36  H   UNL     1       4.552   6.877  19.373  0.00  0.00    +0.000 HD
ENDBRANCH  11  35
BRANCH  12  37
ATOM     37  O   UNL     1       4.547   4.262  16.498  0.00  0.00    +0.000 OA
ATOM     38  H   UNL     1       5.232   4.194  15.811  0.00  0.00    +0.000 HD
ENDBRANCH  12  37
TORSDOF 13
ENDMDL
MODEL 5
REMARK VINA RESULT:      -6.0      6.206      8.940
REMARK  Name = 
REMARK  13 active torsions:
REMARK  status: ('A' for Active; 'I' for Inactive)
REMARK    1  A    between atoms: N_1  and  C_2
REMARK    2  A    between atoms: C_2  and  C_3
REMARK    3  A    between atoms: C_3  and  C_4
REMARK    4  A    between atoms: C_4  and  C_5
REMARK    5  A    between atoms: C_5  and  C_6
REMARK    6  A    between atoms: C_6  and  N_7
REMARK    7  A    between atoms: C_6  and  C_8
REMARK    8  A    between atoms: N_10  and  C_11
REMARK    9  A    between atoms: C_13  and  N_14
REMARK   10  A    between atoms: C_18  and  O_19
REMARK   11  A    between atoms: C_20  and  O_21
REMARK   12  A    between atoms: C_24  and  O_25
REMARK   13  A    between atoms: C_26  and  O_27
REMARK                            x       y       z     vdW  Elec       q    Type
REMARK                         _______ _______ _______ _____ _____    ______ ____
ROOT
ATOM      1  C   UNL     1       0.920  10.164  18.368  0.00  0.00    +0.000 C 
ATOM      2  C   UNL     1       1.446  11.449  19.074  0.00  0.00    +0.000 C 
ATOM      3  C   UNL     1       0.715  12.023  20.339  0.00  0.00    +0.000 C 
ATOM      4  C   UNL     1      -0.847  11.774  20.368  0.00  0.00    +0.000 C 
ATOM      5  C   UNL     1      -1.553  12.829  19.467  0.00  0.00    +0.000 C 
ATOM      6  C   UNL     1      -2.220  14.047  20.093  0.00  0.00    +0.000 C 
ATOM      7  C   UNL     1      -3.461  13.690  20.905  0.00  0.00    +0.000 C 
ATOM      8  C   UNL     1      -3.136  13.253  22.336  0.00  0.00    +0.000 C 
ATOM      9  C   UNL     1      -1.705  12.730  22.542  0.00  0.00    +0.000 C 
ATOM     10  O   UNL     1      -1.367  11.631  21.711  0.00  0.00    +0.000 OA
ATOM     11  C   UNL     1      -1.092  10.323  19.833  0.00  0.00    +0.000 C 
ATOM     12  C   UNL     1      -0.614  10.091  18.397  0.00  0.00    +0.000 C 
ENDROOT
BRANCH   1  15
ATOM     13  C   UNL     1       2.288   8.144  18.007  0.00  0.00    +0.000 C 
ATOM     14  O   UNL     1       2.739   8.599  16.955  0.00  0.00    +0.000 OA
ATOM     15  N   UNL     1       1.481   8.897  18.866  0.00  0.00    +0.000 N 
ATOM     16  H   UNL     1       0.817   8.328  19.377  0.00  0.00    +0.000 HD
BRANCH  13  17
ATOM     17  C   UNL     1       2.573   6.683  18.437  0.00  0.00    +0.000 C 
BRANCH  17  18
ATOM     18  N   UNL     1       3.977   6.367  18.139  0.00  0.00    +0.000 NA
ATOM     19  H   UNL     1       4.285   6.926  17.337  0.00  0.00    +0.000 HD
ATOM     20  H   UNL     1       4.021   5.395  17.801  0.00  0.00    +0.000 HD
ENDBRANCH  17  18
BRANCH  17  21
ATOM     21  C   UNL     1       2.318   6.392  19.924  0.00  0.00    +0.000 C 
BRANCH  21  22
ATOM     22  C   UNL     1       2.452   4.928  20.354  0.00  0.00    +0.000 C 
BRANCH  22  23
ATOM     23  C   UNL     1       1.126   4.192  20.572  0.00  0.00    +0.000 C 
BRANCH  23  24
ATOM     24  C   UNL     1       1.395   2.753  21.026  0.00  0.00    +0.000 C 
BRANCH  24  25
ATOM     25  N   UNL     1       2.435   2.701  22.046  0.00  0.00    +0.000 NA
ATOM     26  H   UNL     1       2.829   1.761  22.077  0.00  0.00    +0.000 HD
ATOM     27  H   UNL     1       2.027   2.866  22.964  0.00  0.00    +0.000 HD
ENDBRANCH  24  25
ENDBRANCH  23  24
ENDBRANCH  22  23
ENDBRANCH  21  22
ENDBRANCH  17  21
ENDBRANCH  13  17
ENDBRANCH   1  15
BRANCH   3  28
ATOM     28  N   UNL     1       1.413  11.640  21.572  0.00  0.00    +0.000 NA
ATOM     29  H   UNL     1       1.280  12.284  22.345  0.00  0.00    +0.000 HD
ATOM     30  H   UNL     1       2.405  11.475  21.398  0.00  0.00    +0.000 HD
ENDBRANCH   3  28
BRANCH   7  31
ATOM     31  O   UNL     1      -4.255  12.684  20.257  0.00  0.00    +0.000 OA
ATOM     32  H   UNL     1      -4.460  13.001  19.357  0.00  0.00    +0.000 HD
ENDBRANCH   7  31
BRANCH   8  33
ATOM     33  O   UNL     1      -4.094  12.271  22.766  0.00  0.00    +0.000 OA
ATOM     34  H   UNL     1      -4.926  12.462  22.285  0.00  0.00    +0.000 HD
ENDBRANCH   8  33
BRANCH  11  35
ATOM     35  O   UNL     1      -0.428   9.351  20.691  0.00  0.00    +0.000 OA
ATOM     36  H   UNL     1      -0.134   8.631  20.095  0.00  0.00    +0.000 HD
ENDBRANCH  11  35
BRANCH  12  37
ATOM     37  O   UNL     1      -1.177  11.004  17.463  0.00  0.00    +0.000 OA
ATOM     38  H   UNL     1      -0.559  11.077  16.715  0.00  0.00    +0.000 HD
ENDBRANCH  12  37
TORSDOF 13
ENDMDL
MODEL 6
REMARK VINA RESULT:      -5.9      6.012      8.223
REMARK  Name = 
REMARK  13 active torsions:
REMARK  status: ('A' for Active; 'I' for Inactive)
REMARK    1  A    between atoms: N_1  and  C_2
REMARK    2  A    between atoms: C_2  and  C_3
REMARK    3  A    between atoms: C_3  and  C_4
REMARK    4  A    between atoms: C_4  and  C_5
REMARK    5  A    between atoms: C_5  and  C_6
REMARK    6  A    between atoms: C_6  and  N_7
REMARK    7  A    between atoms: C_6  and  C_8
REMARK    8  A    between atoms: N_10  and  C_11
REMARK    9  A    between atoms: C_13  and  N_14
REMARK   10  A    between atoms: C_18  and  O_19
REMARK   11  A    between atoms: C_20  and  O_21
REMARK   12  A    between atoms: C_24  and  O_25
REMARK   13  A    between atoms: C_26  and  O_27
REMARK                            x       y       z     vdW  Elec       q    Type
REMARK                         _______ _______ _______ _____ _____    ______ ____
ROOT
ATOM      1  C   UNL     1       1.045  10.017  18.362  0.00  0.00    +0.000 C 
ATOM      2  C   UNL     1       1.504  11.409  18.888  0.00  0.00    +0.000 C 
ATOM      3  C   UNL     1       0.789  12.075  20.117  0.00  0.00    +0.000 C 
ATOM      4  C   UNL     1      -0.746  11.723  20.258  0.00  0.00    +0.000 C 
ATOM      5  C   UNL     1      -1.570  12.614  19.283  0.00  0.00    +0.000 C 
ATOM      6  C   UNL     1      -2.297  13.848  19.802  0.00  0.00    +0.000 C 
ATOM      7  C   UNL     1      -3.470  13.502  20.715  0.00  0.00    +0.000 C 
ATOM      8  C   UNL     1      -3.049  13.259  22.166  0.00  0.00    +0.000 C 
ATOM      9  C   UNL     1      -1.574  12.864  22.353  0.00  0.00    +0.000 C 
ATOM     10  O   UNL     1      -1.193  11.702  21.635  0.00  0.00    +0.000 OA
ATOM     11  C   UNL     1      -0.906  10.206  19.905  0.00  0.00    +0.000 C 
ATOM     12  C   UNL     1      -0.476   9.841  18.481  0.00  0.00    +0.000 C 
ENDROOT
BRANCH   1  15
ATOM     13  C   UNL     1       2.499   8.038  18.147  0.00  0.00    +0.000 C 
ATOM     14  O   UNL     1       2.834   8.368  17.009  0.00  0.00    +0.000 OA
ATOM     15  N   UNL     1       1.721   8.859  18.969  0.00  0.00    +0.000 N 
ATOM     16  H   UNL     1       1.138   8.332  19.608  0.00  0.00    +0.000 HD
BRANCH  13  17
ATOM     17  C   UNL     1       2.908   6.665  18.737  0.00  0.00    +0.000 C 
BRANCH  17  18
ATOM     18  N   UNL     1       2.463   6.598  20.136  0.00  0.00    +0.000 NA
ATOM     19  H   UNL     1       3.162   6.089  20.687  0.00  0.00    +0.000 HD
ATOM     20  H   UNL     1       1.626   6.001  20.178  0.00  0.00    +0.000 HD
ENDBRANCH  17  18
BRANCH  17  21
ATOM     21  C   UNL     1       2.333   5.451  17.990  0.00  0.00    +0.000 C 
BRANCH  21  22
ATOM     22  C   UNL     1       3.359   4.461  17.429  0.00  0.00    +0.000 C 
BRANCH  22  23
ATOM     23  C   UNL     1       4.798   4.984  17.367  0.00  0.00    +0.000 C 
BRANCH  23  24
ATOM     24  C   UNL     1       5.179   5.294  15.916  0.00  0.00    +0.000 C 
BRANCH  24  25
ATOM     25  N   UNL     1       5.232   6.730  15.673  0.00  0.00    +0.000 NA
ATOM     26  H   UNL     1       4.431   7.005  15.105  0.00  0.00    +0.000 HD
ATOM     27  H   UNL     1       6.059   6.957  15.122  0.00  0.00    +0.000 HD
ENDBRANCH  24  25
ENDBRANCH  23  24
ENDBRANCH  22  23
ENDBRANCH  21  22
ENDBRANCH  17  21
ENDBRANCH  13  17
ENDBRANCH   1  15
BRANCH   3  28
ATOM     28  N   UNL     1       1.570  11.888  21.347  0.00  0.00    +0.000 NA
ATOM     29  H   UNL     1       1.470  12.637  22.024  0.00  0.00    +0.000 HD
ATOM     30  H   UNL     1       2.552  11.711  21.137  0.00  0.00    +0.000 HD
ENDBRANCH   3  28
BRANCH   7  31
ATOM     31  O   UNL     1      -4.214  12.375  20.228  0.00  0.00    +0.000 OA
ATOM     32  H   UNL     1      -3.949  11.595  20.751  0.00  0.00    +0.000 HD
ENDBRANCH   7  31
BRANCH   8  33
ATOM     33  O   UNL     1      -3.910  12.269  22.756  0.00  0.00    +0.000 OA
ATOM     34  H   UNL     1      -3.812  12.357  23.727  0.00  0.00    +0.000 HD
ENDBRANCH   8  33
BRANCH  11  35
ATOM     35  O   UNL     1      -0.132   9.389  20.831  0.00  0.00    +0.000 OA
ATOM     36  H   UNL     1       0.757   9.800  20.864  0.00  0.00    +0.000 HD
ENDBRANCH  11  35
BRANCH  12  37
ATOM     37  O   UNL     1      -1.149  10.598  17.481  0.00  0.00    +0.000 OA
ATOM     38  H   UNL     1      -1.141  10.073  16.662  0.00  0.00    +0.000 HD
ENDBRANCH  12  37
TORSDOF 13
ENDMDL
MODEL 7
REMARK VINA RESULT:      -5.9      6.063      8.643
REMARK  Name = 
REMARK  13 active torsions:
REMARK  status: ('A' for Active; 'I' for Inactive)
REMARK    1  A    between atoms: N_1  and  C_2
REMARK    2  A    between atoms: C_2  and  C_3
REMARK    3  A    between atoms: C_3  and  C_4
REMARK    4  A    between atoms: C_4  and  C_5
REMARK    5  A    between atoms: C_5  and  C_6
REMARK    6  A    between atoms: C_6  and  N_7
REMARK    7  A    between atoms: C_6  and  C_8
REMARK    8  A    between atoms: N_10  and  C_11
REMARK    9  A    between atoms: C_13  and  N_14
REMARK   10  A    between atoms: C_18  and  O_19
REMARK   11  A    between atoms: C_20  and  O_21
REMARK   12  A    between atoms: C_24  and  O_25
REMARK   13  A    between atoms: C_26  and  O_27
REMARK                            x       y       z     vdW  Elec       q    Type
REMARK                         _______ _______ _______ _____ _____    ______ ____
ROOT
ATOM      1  C   UNL     1       1.045   9.993  18.386  0.00  0.00    +0.000 C 
ATOM      2  C   UNL     1       1.512  11.378  18.924  0.00  0.00    +0.000 C 
ATOM      3  C   UNL     1       0.797  12.041  20.154  0.00  0.00    +0.000 C 
ATOM      4  C   UNL     1      -0.741  11.698  20.286  0.00  0.00    +0.000 C 
ATOM      5  C   UNL     1      -1.554  12.602  19.313  0.00  0.00    +0.000 C 
ATOM      6  C   UNL     1      -2.275  13.838  19.838  0.00  0.00    +0.000 C 
ATOM      7  C   UNL     1      -3.455  13.494  20.743  0.00  0.00    +0.000 C 
ATOM      8  C   UNL     1      -3.042  13.238  22.195  0.00  0.00    +0.000 C 
ATOM      9  C   UNL     1      -1.571  12.831  22.386  0.00  0.00    +0.000 C 
ATOM     10  O   UNL     1      -1.195  11.671  21.661  0.00  0.00    +0.000 OA
ATOM     11  C   UNL     1      -0.911  10.185  19.922  0.00  0.00    +0.000 C 
ATOM     12  C   UNL     1      -0.478   9.828  18.497  0.00  0.00    +0.000 C 
ENDROOT
BRANCH   1  15
ATOM     13  C   UNL     1       2.487   8.005  18.164  0.00  0.00    +0.000 C 
ATOM     14  O   UNL     1       2.830   8.341  17.030  0.00  0.00    +0.000 OA
ATOM     15  N   UNL     1       1.710   8.826  18.987  0.00  0.00    +0.000 N 
ATOM     16  H   UNL     1       1.120   8.299  19.620  0.00  0.00    +0.000 HD
BRANCH  13  17
ATOM     17  C   UNL     1       2.883   6.625  18.746  0.00  0.00    +0.000 C 
BRANCH  17  18
ATOM     18  N   UNL     1       2.436   6.554  20.144  0.00  0.00    +0.000 NA
ATOM     19  H   UNL     1       2.794   5.691  20.567  0.00  0.00    +0.000 HD
ATOM     20  H   UNL     1       1.414   6.431  20.148  0.00  0.00    +0.000 HD
ENDBRANCH  17  18
BRANCH  17  21
ATOM     21  C   UNL     1       2.299   5.420  17.991  0.00  0.00    +0.000 C 
BRANCH  21  22
ATOM     22  C   UNL     1       1.924   4.209  18.849  0.00  0.00    +0.000 C 
BRANCH  22  23
ATOM     23  C   UNL     1       2.761   2.950  18.594  0.00  0.00    +0.000 C 
BRANCH  23  24
ATOM     24  C   UNL     1       3.860   2.829  19.655  0.00  0.00    +0.000 C 
BRANCH  24  25
ATOM     25  N   UNL     1       5.142   3.308  19.153  0.00  0.00    +0.000 NA
ATOM     26  H   UNL     1       5.169   3.197  18.140  0.00  0.00    +0.000 HD
ATOM     27  H   UNL     1       5.895   2.729  19.521  0.00  0.00    +0.000 HD
ENDBRANCH  24  25
ENDBRANCH  23  24
ENDBRANCH  22  23
ENDBRANCH  21  22
ENDBRANCH  17  21
ENDBRANCH  13  17
ENDBRANCH   1  15
BRANCH   3  28
ATOM     28  N   UNL     1       1.571  11.839  21.386  0.00  0.00    +0.000 NA
ATOM     29  H   UNL     1       1.356  12.499  22.127  0.00  0.00    +0.000 HD
ATOM     30  H   UNL     1       2.572  11.816  21.193  0.00  0.00    +0.000 HD
ENDBRANCH   3  28
BRANCH   7  31
ATOM     31  O   UNL     1      -4.205  12.376  20.246  0.00  0.00    +0.000 OA
ATOM     32  H   UNL     1      -3.587  11.628  20.137  0.00  0.00    +0.000 HD
ENDBRANCH   7  31
BRANCH   8  33
ATOM     33  O   UNL     1      -3.912  12.251  22.774  0.00  0.00    +0.000 OA
ATOM     34  H   UNL     1      -3.486  11.381  22.625  0.00  0.00    +0.000 HD
ENDBRANCH   8  33
BRANCH  11  35
ATOM     35  O   UNL     1      -0.147   9.356  20.845  0.00  0.00    +0.000 OA
ATOM     36  H   UNL     1       0.475   9.966  21.294  0.00  0.00    +0.000 HD
ENDBRANCH  11  35
BRANCH  12  37
ATOM     37  O   UNL     1      -1.140  10.596  17.499  0.00  0.00    +0.000 OA
ATOM     38  H   UNL     1      -1.095  11.529  17.771  0.00  0.00    +0.000 HD
ENDBRANCH  12  37
TORSDOF 13
ENDMDL
MODEL 8
REMARK VINA RESULT:      -5.8     10.437     12.895
REMARK  Name = 
REMARK  13 active torsions:
REMARK  status: ('A' for Active; 'I' for Inactive)
REMARK    1  A    between atoms: N_1  and  C_2
REMARK    2  A    between atoms: C_2  and  C_3
REMARK    3  A    between atoms: C_3  and  C_4
REMARK    4  A    between atoms: C_4  and  C_5
REMARK    5  A    between atoms: C_5  and  C_6
REMARK    6  A    between atoms: C_6  and  N_7
REMARK    7  A    between atoms: C_6  and  C_8
REMARK    8  A    between atoms: N_10  and  C_11
REMARK    9  A    between atoms: C_13  and  N_14
REMARK   10  A    between atoms: C_18  and  O_19
REMARK   11  A    between atoms: C_20  and  O_21
REMARK   12  A    between atoms: C_24  and  O_25
REMARK   13  A    between atoms: C_26  and  O_27
REMARK                            x       y       z     vdW  Elec       q    Type
REMARK                         _______ _______ _______ _____ _____    ______ ____
ROOT
ATOM      1  C   UNL     1      -5.531  13.180  20.156  0.00  0.00    +0.000 C 
ATOM      2  C   UNL     1      -5.608  14.735  20.194  0.00  0.00    +0.000 C 
ATOM      3  C   UNL     1      -4.509  15.572  20.941  0.00  0.00    +0.000 C 
ATOM      4  C   UNL     1      -3.872  14.852  22.197  0.00  0.00    +0.000 C 
ATOM      5  C   UNL     1      -4.830  15.000  23.415  0.00  0.00    +0.000 C 
ATOM      6  C   UNL     1      -4.556  16.053  24.482  0.00  0.00    +0.000 C 
ATOM      7  C   UNL     1      -3.310  15.748  25.308  0.00  0.00    +0.000 C 
ATOM      8  C   UNL     1      -2.017  16.225  24.641  0.00  0.00    +0.000 C 
ATOM      9  C   UNL     1      -2.104  16.403  23.116  0.00  0.00    +0.000 C 
ATOM     10  O   UNL     1      -2.493  15.230  22.420  0.00  0.00    +0.000 OA
ATOM     11  C   UNL     1      -3.676  13.346  21.815  0.00  0.00    +0.000 C 
ATOM     12  C   UNL     1      -4.973  12.610  21.469  0.00  0.00    +0.000 C 
ENDROOT
BRANCH   1  15
ATOM     13  C   UNL     1      -5.487  11.840  18.087  0.00  0.00    +0.000 C 
ATOM     14  O   UNL     1      -6.717  11.812  18.041  0.00  0.00    +0.000 OA
ATOM     15  N   UNL     1      -4.788  12.612  19.019  0.00  0.00    +0.000 N 
ATOM     16  H   UNL     1      -3.897  12.204  19.275  0.00  0.00    +0.000 HD
BRANCH  13  17
ATOM     17  C   UNL     1      -4.628  10.993  17.114  0.00  0.00    +0.000 C 
BRANCH  17  18
ATOM     18  N   UNL     1      -3.919  11.897  16.198  0.00  0.00    +0.000 NA
ATOM     19  H   UNL     1      -4.459  11.988  15.331  0.00  0.00    +0.000 HD
ATOM     20  H   UNL     1      -3.047  11.436  15.905  0.00  0.00    +0.000 HD
ENDBRANCH  17  18
BRANCH  17  21
ATOM     21  C   UNL     1      -3.591  10.088  17.798  0.00  0.00    +0.000 C 
BRANCH  21  22
ATOM     22  C   UNL     1      -2.271   9.895  17.047  0.00  0.00    +0.000 C 
BRANCH  22  23
ATOM     23  C   UNL     1      -1.009  10.157  17.877  0.00  0.00    +0.000 C 
BRANCH  23  24
ATOM     24  C   UNL     1      -1.041  11.582  18.442  0.00  0.00    +0.000 C 
BRANCH  24  25
ATOM     25  N   UNL     1      -1.174  12.573  17.382  0.00  0.00    +0.000 NA
ATOM     26  H   UNL     1      -0.992  13.501  17.765  0.00  0.00    +0.000 HD
ATOM     27  H   UNL     1      -2.136  12.591  17.045  0.00  0.00    +0.000 HD
ENDBRANCH  24  25
ENDBRANCH  23  24
ENDBRANCH  22  23
ENDBRANCH  21  22
ENDBRANCH  17  21
ENDBRANCH  13  17
ENDBRANCH   1  15
BRANCH   3  28
ATOM     28  N   UNL     1      -3.530  16.122  19.996  0.00  0.00    +0.000 NA
ATOM     29  H   UNL     1      -3.933  16.701  19.266  0.00  0.00    +0.000 HD
ATOM     30  H   UNL     1      -2.946  15.386  19.599  0.00  0.00    +0.000 HD
ENDBRANCH   3  28
BRANCH   7  31
ATOM     31  O   UNL     1      -3.207  14.352  25.626  0.00  0.00    +0.000 OA
ATOM     32  H   UNL     1      -3.962  13.895  25.210  0.00  0.00    +0.000 HD
ENDBRANCH   7  31
BRANCH   8  33
ATOM     33  O   UNL     1      -0.944  15.329  24.980  0.00  0.00    +0.000 OA
ATOM     34  H   UNL     1      -0.138  15.879  25.068  0.00  0.00    +0.000 HD
ENDBRANCH   8  33
BRANCH  11  35
ATOM     35  O   UNL     1      -2.775  13.229  20.677  0.00  0.00    +0.000 OA
ATOM     36  H   UNL     1      -2.450  14.137  20.502  0.00  0.00    +0.000 HD
ENDBRANCH  11  35
BRANCH  12  37
ATOM     37  O   UNL     1      -5.951  12.678  22.501  0.00  0.00    +0.000 OA
ATOM     38  H   UNL     1      -5.478  12.692  23.351  0.00  0.00    +0.000 HD
ENDBRANCH  12  37
TORSDOF 13
ENDMDL
MODEL 9
REMARK VINA RESULT:      -5.8     10.663     12.903
REMARK  Name = 
REMARK  13 active torsions:
REMARK  status: ('A' for Active; 'I' for Inactive)
REMARK    1  A    between atoms: N_1  and  C_2
REMARK    2  A    between atoms: C_2  and  C_3
REMARK    3  A    between atoms: C_3  and  C_4
REMARK    4  A    between atoms: C_4  and  C_5
REMARK    5  A    between atoms: C_5  and  C_6
REMARK    6  A    between atoms: C_6  and  N_7
REMARK    7  A    between atoms: C_6  and  C_8
REMARK    8  A    between atoms: N_10  and  C_11
REMARK    9  A    between atoms: C_13  and  N_14
REMARK   10  A    between atoms: C_18  and  O_19
REMARK   11  A    between atoms: C_20  and  O_21
REMARK   12  A    between atoms: C_24  and  O_25
REMARK   13  A    between atoms: C_26  and  O_27
REMARK                            x       y       z     vdW  Elec       q    Type
REMARK                         _______ _______ _______ _____ _____    ______ ____
ROOT
ATOM      1  C   UNL     1      -4.684  12.586  20.030  0.00  0.00    +0.000 C 
ATOM      2  C   UNL     1      -5.829  13.624  19.843  0.00  0.00    +0.000 C 
ATOM      3  C   UNL     1      -5.676  15.089  20.387  0.00  0.00    +0.000 C 
ATOM      4  C   UNL     1      -4.791  15.220  21.691  0.00  0.00    +0.000 C 
ATOM      5  C   UNL     1      -5.647  14.836  22.934  0.00  0.00    +0.000 C 
ATOM      6  C   UNL     1      -6.250  15.924  23.814  0.00  0.00    +0.000 C 
ATOM      7  C   UNL     1      -5.196  16.705  24.594  0.00  0.00    +0.000 C 
ATOM      8  C   UNL     1      -4.572  17.843  23.782  0.00  0.00    +0.000 C 
ATOM      9  C   UNL     1      -4.670  17.678  22.256  0.00  0.00    +0.000 C 
ATOM     10  O   UNL     1      -4.086  16.482  21.767  0.00  0.00    +0.000 OA
ATOM     11  C   UNL     1      -3.575  14.248  21.523  0.00  0.00    +0.000 C 
ATOM     12  C   UNL     1      -3.963  12.774  21.373  0.00  0.00    +0.000 C 
ENDROOT
BRANCH   1  15
ATOM     13  C   UNL     1      -3.656  11.406  18.124  0.00  0.00    +0.000 C 
ATOM     14  O   UNL     1      -4.557  10.565  18.118  0.00  0.00    +0.000 OA
ATOM     15  N   UNL     1      -3.692  12.538  18.943  0.00  0.00    +0.000 N 
ATOM     16  H   UNL     1      -2.769  12.851  19.217  0.00  0.00    +0.000 HD
BRANCH  13  17
ATOM     17  C   UNL     1      -2.402  11.244  17.229  0.00  0.00    +0.000 C 
BRANCH  17  18
ATOM     18  N   UNL     1      -1.557  12.437  17.377  0.00  0.00    +0.000 NA
ATOM     19  H   UNL     1      -1.343  12.576  18.370  0.00  0.00    +0.000 HD
ATOM     20  H   UNL     1      -2.119  13.261  17.122  0.00  0.00    +0.000 HD
ENDBRANCH  17  18
BRANCH  17  21
ATOM     21  C   UNL     1      -1.547  10.006  17.541  0.00  0.00    +0.000 C 
BRANCH  21  22
ATOM     22  C   UNL     1      -0.293  10.252  18.384  0.00  0.00    +0.000 C 
BRANCH  22  23
ATOM     23  C   UNL     1      -0.437   9.922  19.874  0.00  0.00    +0.000 C 
BRANCH  23  24
ATOM     24  C   UNL     1      -0.760  11.196  20.663  0.00  0.00    +0.000 C 
BRANCH  24  25
ATOM     25  N   UNL     1      -0.097  12.361  20.090  0.00  0.00    +0.000 NA
ATOM     26  H   UNL     1       0.896  12.159  19.973  0.00  0.00    +0.000 HD
ATOM     27  H   UNL     1      -0.150  13.143  20.741  0.00  0.00    +0.000 HD
ENDBRANCH  24  25
ENDBRANCH  23  24
ENDBRANCH  22  23
ENDBRANCH  21  22
ENDBRANCH  17  21
ENDBRANCH  13  17
ENDBRANCH   1  15
BRANCH   3  28
ATOM     28  N   UNL     1      -5.310  16.017  19.310  0.00  0.00    +0.000 NA
ATOM     29  H   UNL     1      -4.842  15.580  18.523  0.00  0.00    +0.000 HD
ATOM     30  H   UNL     1      -4.768  16.804  19.668  0.00  0.00    +0.000 HD
ENDBRANCH   3  28
BRANCH   7  31
ATOM     31  O   UNL     1      -4.164  15.850  25.107  0.00  0.00    +0.000 OA
ATOM     32  H   UNL     1      -3.878  16.212  25.967  0.00  0.00    +0.000 HD
ENDBRANCH   7  31
BRANCH   8  33
ATOM     33  O   UNL     1      -3.200  18.018  24.179  0.00  0.00    +0.000 OA
ATOM     34  H   UNL     1      -2.742  18.437  23.420  0.00  0.00    +0.000 HD
ENDBRANCH   8  33
BRANCH  11  35
ATOM     35  O   UNL     1      -2.785  14.625  20.358  0.00  0.00    +0.000 OA
ATOM     36  H   UNL     1      -1.861  14.384  20.577  0.00  0.00    +0.000 HD
ENDBRANCH  11  35
BRANCH  12  37
ATOM     37  O   UNL     1      -4.766  12.292  22.445  0.00  0.00    +0.000 OA
ATOM     38  H   UNL     1      -4.653  11.327  22.483  0.00  0.00    +0.000 HD
ENDBRANCH  12  37
TORSDOF 13
ENDMDL
