MODEL 1
REMARK VINA RESULT:      -6.5      0.000      0.000
REMARK  Name = 
REMARK  0 active torsions:
REMARK  status: ('A' for Active; 'I' for Inactive)
REMARK                            x       y       z     vdW  Elec       q    Type
REMARK                         _______ _______ _______ _____ _____    ______ ____
ROOT
ATOM      1  O   UNL     1       7.404   5.066  14.750  0.00  0.00    +0.000 OA
ATOM      2  S   UNL     1       7.110   4.983  16.166  0.00  0.00    +0.000 S 
ATOM      3  O   UNL     1       8.059   4.372  17.076  0.00  0.00    +0.000 OA
ATOM      4  N   UNL     1       6.781   6.474  16.702  0.00  0.00    +0.000 NA
ATOM      5  C   UNL     1       5.659   6.815  17.228  0.00  0.00    +0.000 C 
ATOM      6  C   UNL     1       4.513   5.944  17.398  0.00  0.00    +0.000 A 
ATOM      7  C   UNL     1       3.341   6.417  17.993  0.00  0.00    +0.000 A 
ATOM      8  C   UNL     1       2.248   5.559  18.120  0.00  0.00    +0.000 A 
ATOM      9  C   UNL     1       2.337   4.244  17.659  0.00  0.00    +0.000 A 
ATOM     10  C   UNL     1       3.516   3.789  17.066  0.00  0.00    +0.000 A 
ATOM     11  C   UNL     1       4.607   4.647  16.932  0.00  0.00    +0.000 A 
ATOM     12  O   UNL     1       5.712   4.162  16.311  0.00  0.00    +0.000 OA
ENDROOT
TORSDOF 0
ENDMDL
MODEL 2
REMARK VINA RESULT:      -6.2      1.607      2.291
REMARK  Name = 
REMARK  0 active torsions:
REMARK  status: ('A' for Active; 'I' for Inactive)
REMARK                            x       y       z     vdW  Elec       q    Type
REMARK                         _______ _______ _______ _____ _____    ______ ____
ROOT
ATOM      1  O   UNL     1       8.230   4.142  17.663  0.00  0.00    +0.000 OA
ATOM      2  S   UNL     1       7.181   4.988  17.132  0.00  0.00    +0.000 S 
ATOM      3  O   UNL     1       7.508   6.249  16.494  0.00  0.00    +0.000 OA
ATOM      4  N   UNL     1       6.301   4.110  16.096  0.00  0.00    +0.000 NA
ATOM      5  C   UNL     1       5.045   3.879  16.239  0.00  0.00    +0.000 C 
ATOM      6  C   UNL     1       4.229   4.333  17.348  0.00  0.00    +0.000 A 
ATOM      7  C   UNL     1       2.867   4.032  17.401  0.00  0.00    +0.000 A 
ATOM      8  C   UNL     1       2.115   4.464  18.494  0.00  0.00    +0.000 A 
ATOM      9  C   UNL     1       2.728   5.192  19.515  0.00  0.00    +0.000 A 
ATOM     10  C   UNL     1       4.092   5.483  19.447  0.00  0.00    +0.000 A 
ATOM     11  C   UNL     1       4.845   5.046  18.358  0.00  0.00    +0.000 A 
ATOM     12  O   UNL     1       6.173   5.323  18.365  0.00  0.00    +0.000 OA
ENDROOT
TORSDOF 0
ENDMDL
MODEL 3
REMARK VINA RESULT:      -6.1      1.906      2.291
REMARK  Name = 
REMARK  0 active torsions:
REMARK  status: ('A' for Active; 'I' for Inactive)
REMARK                            x       y       z     vdW  Elec       q    Type
REMARK                         _______ _______ _______ _____ _____    ______ ____
ROOT
ATOM      1  O   UNL     1       7.508   4.499  17.645  0.00  0.00    +0.000 OA
ATOM      2  S   UNL     1       6.509   4.944  18.595  0.00  0.00    +0.000 S 
ATOM      3  O   UNL     1       6.908   5.456  19.892  0.00  0.00    +0.000 OA
ATOM      4  N   UNL     1       5.586   6.059  17.873  0.00  0.00    +0.000 NA
ATOM      5  C   UNL     1       4.318   5.938  17.699  0.00  0.00    +0.000 C 
ATOM      6  C   UNL     1       3.525   4.788  18.087  0.00  0.00    +0.000 A 
ATOM      7  C   UNL     1       2.148   4.763  17.858  0.00  0.00    +0.000 A 
ATOM      8  C   UNL     1       1.417   3.632  18.223  0.00  0.00    +0.000 A 
ATOM      9  C   UNL     1       2.065   2.545  18.813  0.00  0.00    +0.000 A 
ATOM     10  C   UNL     1       3.443   2.587  19.033  0.00  0.00    +0.000 A 
ATOM     11  C   UNL     1       4.175   3.714  18.663  0.00  0.00    +0.000 A 
ATOM     12  O   UNL     1       5.517   3.682  18.864  0.00  0.00    +0.000 OA
ENDROOT
TORSDOF 0
ENDMDL
MODEL 4
REMARK VINA RESULT:      -6.1      1.435      1.595
REMARK  Name = 
REMARK  0 active torsions:
REMARK  status: ('A' for Active; 'I' for Inactive)
REMARK                            x       y       z     vdW  Elec       q    Type
REMARK                         _______ _______ _______ _____ _____    ______ ____
ROOT
ATOM      1  O   UNL     1       8.112   4.149  17.078  0.00  0.00    +0.000 OA
ATOM      2  S   UNL     1       7.500   4.986  18.089  0.00  0.00    +0.000 S 
ATOM      3  O   UNL     1       8.215   5.300  19.311  0.00  0.00    +0.000 OA
ATOM      4  N   UNL     1       7.055   6.377  17.392  0.00  0.00    +0.000 NA
ATOM      5  C   UNL     1       5.842   6.799  17.344  0.00  0.00    +0.000 C 
ATOM      6  C   UNL     1       4.688   6.097  17.871  0.00  0.00    +0.000 A 
ATOM      7  C   UNL     1       3.411   6.652  17.773  0.00  0.00    +0.000 A 
ATOM      8  C   UNL     1       2.318   5.940  18.269  0.00  0.00    +0.000 A 
ATOM      9  C   UNL     1       2.513   4.689  18.858  0.00  0.00    +0.000 A 
ATOM     10  C   UNL     1       3.797   4.148  18.946  0.00  0.00    +0.000 A 
ATOM     11  C   UNL     1       4.888   4.857  18.445  0.00  0.00    +0.000 A 
ATOM     12  O   UNL     1       6.107   4.265  18.522  0.00  0.00    +0.000 OA
ENDROOT
TORSDOF 0
ENDMDL
MODEL 5
REMARK VINA RESULT:      -6.1      1.973      2.444
REMARK  Name = 
REMARK  0 active torsions:
REMARK  status: ('A' for Active; 'I' for Inactive)
REMARK                            x       y       z     vdW  Elec       q    Type
REMARK                         _______ _______ _______ _____ _____    ______ ____
ROOT
ATOM      1  O   UNL     1       8.226   4.173  17.497  0.00  0.00    +0.000 OA
ATOM      2  S   UNL     1       7.034   4.964  17.726  0.00  0.00    +0.000 S 
ATOM      3  O   UNL     1       7.143   6.332  18.196  0.00  0.00    +0.000 OA
ATOM      4  N   UNL     1       6.159   4.965  16.365  0.00  0.00    +0.000 NA
ATOM      5  C   UNL     1       4.961   4.508  16.283  0.00  0.00    +0.000 C 
ATOM      6  C   UNL     1       4.219   3.899  17.370  0.00  0.00    +0.000 A 
ATOM      7  C   UNL     1       2.915   3.442  17.174  0.00  0.00    +0.000 A 
ATOM      8  C   UNL     1       2.236   2.840  18.234  0.00  0.00    +0.000 A 
ATOM      9  C   UNL     1       2.864   2.706  19.474  0.00  0.00    +0.000 A 
ATOM     10  C   UNL     1       4.169   3.168  19.652  0.00  0.00    +0.000 A 
ATOM     11  C   UNL     1       4.849   3.763  18.591  0.00  0.00    +0.000 A 
ATOM     12  O   UNL     1       6.130   4.156  18.811  0.00  0.00    +0.000 OA
ENDROOT
TORSDOF 0
ENDMDL
MODEL 6
REMARK VINA RESULT:      -6.0      2.625      3.502
REMARK  Name = 
REMARK  0 active torsions:
REMARK  status: ('A' for Active; 'I' for Inactive)
REMARK                            x       y       z     vdW  Elec       q    Type
REMARK                         _______ _______ _______ _____ _____    ______ ____
ROOT
ATOM      1  O   UNL     1       6.696   4.771  19.098  0.00  0.00    +0.000 OA
ATOM      2  S   UNL     1       5.468   5.177  18.446  0.00  0.00    +0.000 S 
ATOM      3  O   UNL     1       5.395   6.446  17.747  0.00  0.00    +0.000 OA
ATOM      4  N   UNL     1       5.030   4.007  17.418  0.00  0.00    +0.000 NA
ATOM      5  C   UNL     1       3.922   3.361  17.497  0.00  0.00    +0.000 C 
ATOM      6  C   UNL     1       2.912   3.549  18.520  0.00  0.00    +0.000 A 
ATOM      7  C   UNL     1       1.736   2.797  18.506  0.00  0.00    +0.000 A 
ATOM      8  C   UNL     1       0.794   2.986  19.518  0.00  0.00    +0.000 A 
ATOM      9  C   UNL     1       1.034   3.923  20.525  0.00  0.00    +0.000 A 
ATOM     10  C   UNL     1       2.216   4.666  20.523  0.00  0.00    +0.000 A 
ATOM     11  C   UNL     1       3.160   4.472  19.516  0.00  0.00    +0.000 A 
ATOM     12  O   UNL     1       4.308   5.193  19.588  0.00  0.00    +0.000 OA
ENDROOT
TORSDOF 0
ENDMDL
MODEL 7
REMARK VINA RESULT:      -6.0      2.715      3.120
REMARK  Name = 
REMARK  0 active torsions:
REMARK  status: ('A' for Active; 'I' for Inactive)
REMARK                            x       y       z     vdW  Elec       q    Type
REMARK                         _______ _______ _______ _____ _____    ______ ____
ROOT
ATOM      1  O   UNL     1       6.480   4.356  17.562  0.00  0.00    +0.000 OA
ATOM      2  S   UNL     1       5.958   4.843  18.822  0.00  0.00    +0.000 S 
ATOM      3  O   UNL     1       6.858   5.343  19.843  0.00  0.00    +0.000 OA
ATOM      4  N   UNL     1       4.863   5.991  18.506  0.00  0.00    +0.000 NA
ATOM      5  C   UNL     1       3.628   5.919  18.853  0.00  0.00    +0.000 C 
ATOM      6  C   UNL     1       3.015   4.803  19.546  0.00  0.00    +0.000 A 
ATOM      7  C   UNL     1       1.661   4.831  19.884  0.00  0.00    +0.000 A 
ATOM      8  C   UNL     1       1.097   3.731  20.531  0.00  0.00    +0.000 A 
ATOM      9  C   UNL     1       1.888   2.622  20.835  0.00  0.00    +0.000 A 
ATOM     10  C   UNL     1       3.240   2.610  20.488  0.00  0.00    +0.000 A 
ATOM     11  C   UNL     1       3.803   3.707  19.836  0.00  0.00    +0.000 A 
ATOM     12  O   UNL     1       5.112   3.622  19.487  0.00  0.00    +0.000 OA
ENDROOT
TORSDOF 0
ENDMDL
MODEL 8
REMARK VINA RESULT:      -6.0      2.376      2.844
REMARK  Name = 
REMARK  0 active torsions:
REMARK  status: ('A' for Active; 'I' for Inactive)
REMARK                            x       y       z     vdW  Elec       q    Type
REMARK                         _______ _______ _______ _____ _____    ______ ____
ROOT
ATOM      1  O   UNL     1       8.548   5.038  19.899  0.00  0.00    +0.000 OA
ATOM      2  S   UNL     1       7.726   5.738  18.934  0.00  0.00    +0.000 S 
ATOM      3  O   UNL     1       8.023   7.112  18.578  0.00  0.00    +0.000 OA
ATOM      4  N   UNL     1       7.685   4.861  17.575  0.00  0.00    +0.000 NA
ATOM      5  C   UNL     1       6.608   4.384  17.061  0.00  0.00    +0.000 C 
ATOM      6  C   UNL     1       5.278   4.525  17.622  0.00  0.00    +0.000 A 
ATOM      7  C   UNL     1       4.171   3.972  16.975  0.00  0.00    +0.000 A 
ATOM      8  C   UNL     1       2.908   4.105  17.553  0.00  0.00    +0.000 A 
ATOM      9  C   UNL     1       2.764   4.789  18.761  0.00  0.00    +0.000 A 
ATOM     10  C   UNL     1       3.882   5.334  19.395  0.00  0.00    +0.000 A 
ATOM     11  C   UNL     1       5.146   5.196  18.821  0.00  0.00    +0.000 A 
ATOM     12  O   UNL     1       6.201   5.711  19.501  0.00  0.00    +0.000 OA
ENDROOT
TORSDOF 0
ENDMDL
MODEL 9
REMARK VINA RESULT:      -5.9      2.929      3.813
REMARK  Name = 
REMARK  0 active torsions:
REMARK  status: ('A' for Active; 'I' for Inactive)
REMARK                            x       y       z     vdW  Elec       q    Type
REMARK                         _______ _______ _______ _____ _____    ______ ____
ROOT
ATOM      1  O   UNL     1       6.824   5.449  19.897  0.00  0.00    +0.000 OA
ATOM      2  S   UNL     1       5.791   5.042  18.967  0.00  0.00    +0.000 S 
ATOM      3  O   UNL     1       5.880   5.407  17.566  0.00  0.00    +0.000 OA
ATOM      4  N   UNL     1       5.631   3.434  19.062  0.00  0.00    +0.000 NA
ATOM      5  C   UNL     1       4.544   2.840  19.405  0.00  0.00    +0.000 C 
ATOM      6  C   UNL     1       3.311   3.502  19.786  0.00  0.00    +0.000 A 
ATOM      7  C   UNL     1       2.182   2.758  20.133  0.00  0.00    +0.000 A 
ATOM      8  C   UNL     1       1.018   3.425  20.517  0.00  0.00    +0.000 A 
ATOM      9  C   UNL     1       0.993   4.821  20.546  0.00  0.00    +0.000 A 
ATOM     10  C   UNL     1       2.133   5.549  20.196  0.00  0.00    +0.000 A 
ATOM     11  C   UNL     1       3.298   4.882  19.819  0.00  0.00    +0.000 A 
ATOM     12  O   UNL     1       4.385   5.641  19.529  0.00  0.00    +0.000 OA
ENDROOT
TORSDOF 0
ENDMDL
