MODEL 1
REMARK VINA RESULT:      -8.2      0.000      0.000
REMARK  Name = 
REMARK  3 active torsions:
REMARK  status: ('A' for Active; 'I' for Inactive)
REMARK    1  A    between atoms: N_2  and  C_4
REMARK    2  A    between atoms: C_9  and  N_10
REMARK    3  A    between atoms: C_16  and  O_17
REMARK                            x       y       z     vdW  Elec       q    Type
REMARK                         _______ _______ _______ _____ _____    ______ ____
ROOT
ATOM      1  N   UNL     1       4.099   4.595  18.268  0.00  0.00    +0.000 N 
ATOM      2  C   UNL     1       3.918   4.716  16.901  0.00  0.00    +0.000 A 
ATOM      3  N   UNL     1       4.995   5.131  16.266  0.00  0.00    +0.000 NA
ATOM      4  C   UNL     1       5.927   5.308  17.247  0.00  0.00    +0.000 A 
ATOM      5  C   UNL     1       7.266   5.705  17.169  0.00  0.00    +0.000 A 
ATOM      6  C   UNL     1       7.983   5.791  18.364  0.00  0.00    +0.000 A 
ATOM      7  C   UNL     1       7.336   5.488  19.556  0.00  0.00    +0.000 A 
ATOM      8  N   UNL     1       6.055   5.102  19.682  0.00  0.00    +0.000 NA
ATOM      9  C   UNL     1       5.398   5.029  18.503  0.00  0.00    +0.000 A 
ENDROOT
BRANCH   1  15
ATOM     10  C   UNL     1       3.097   2.848  19.754  0.00  0.00    +0.000 A 
ATOM     11  C   UNL     1       2.135   2.468  20.707  0.00  0.00    +0.000 A 
ATOM     12  C   UNL     1       1.203   3.399  21.156  0.00  0.00    +0.000 A 
ATOM     13  C   UNL     1       1.234   4.698  20.659  0.00  0.00    +0.000 A 
ATOM     14  C   UNL     1       2.199   5.076  19.716  0.00  0.00    +0.000 A 
ATOM     15  C   UNL     1       3.150   4.155  19.241  0.00  0.00    +0.000 A 
BRANCH  10  17
ATOM     16  O   UNL     1       3.886   1.129  18.461  0.00  0.00    +0.000 OA
ATOM     17  N   UNL     1       4.098   1.843  19.447  0.00  0.00    +0.000 N 
ATOM     18  O   UNL     1       5.081   1.776  20.194  0.00  0.00    +0.000 OA
ENDBRANCH  10  17
ENDBRANCH   1  15
BRANCH   7  19
ATOM     19  O   UNL     1       8.009   5.568  20.743  0.00  0.00    +0.000 OA
ATOM     20  H   UNL     1       7.581   6.243  21.290  0.00  0.00    +0.000 HD
ENDBRANCH   7  19
TORSDOF 3
ENDMDL
MODEL 2
REMARK VINA RESULT:      -7.9      1.201      1.352
REMARK  Name = 
REMARK  3 active torsions:
REMARK  status: ('A' for Active; 'I' for Inactive)
REMARK    1  A    between atoms: N_2  and  C_4
REMARK    2  A    between atoms: C_9  and  N_10
REMARK    3  A    between atoms: C_16  and  O_17
REMARK                            x       y       z     vdW  Elec       q    Type
REMARK                         _______ _______ _______ _____ _____    ______ ____
ROOT
ATOM      1  N   UNL     1       3.919   5.211  18.550  0.00  0.00    +0.000 N 
ATOM      2  C   UNL     1       3.534   5.887  17.405  0.00  0.00    +0.000 A 
ATOM      3  N   UNL     1       4.514   6.564  16.844  0.00  0.00    +0.000 NA
ATOM      4  C   UNL     1       5.592   6.344  17.651  0.00  0.00    +0.000 A 
ATOM      5  C   UNL     1       6.917   6.779  17.541  0.00  0.00    +0.000 A 
ATOM      6  C   UNL     1       7.812   6.381  18.536  0.00  0.00    +0.000 A 
ATOM      7  C   UNL     1       7.346   5.586  19.576  0.00  0.00    +0.000 A 
ATOM      8  N   UNL     1       6.086   5.142  19.725  0.00  0.00    +0.000 NA
ATOM      9  C   UNL     1       5.253   5.548  18.741  0.00  0.00    +0.000 A 
ENDROOT
BRANCH   1  15
ATOM     10  C   UNL     1       2.602   3.128  18.987  0.00  0.00    +0.000 A 
ATOM     11  C   UNL     1       1.809   2.348  19.849  0.00  0.00    +0.000 A 
ATOM     12  C   UNL     1       1.515   2.814  21.127  0.00  0.00    +0.000 A 
ATOM     13  C   UNL     1       2.010   4.047  21.540  0.00  0.00    +0.000 A 
ATOM     14  C   UNL     1       2.806   4.817  20.683  0.00  0.00    +0.000 A 
ATOM     15  C   UNL     1       3.116   4.374  19.384  0.00  0.00    +0.000 A 
BRANCH  10  17
ATOM     16  O   UNL     1       2.330   2.867  16.727  0.00  0.00    +0.000 OA
ATOM     17  N   UNL     1       2.954   2.499  17.728  0.00  0.00    +0.000 N 
ATOM     18  O   UNL     1       3.846   1.643  17.753  0.00  0.00    +0.000 OA
ENDBRANCH  10  17
ENDBRANCH   1  15
BRANCH   7  19
ATOM     19  O   UNL     1       8.195   5.183  20.568  0.00  0.00    +0.000 OA
ATOM     20  H   UNL     1       7.665   4.928  21.337  0.00  0.00    +0.000 HD
ENDBRANCH   7  19
TORSDOF 3
ENDMDL
MODEL 3
REMARK VINA RESULT:      -7.6      2.234      2.816
REMARK  Name = 
REMARK  3 active torsions:
REMARK  status: ('A' for Active; 'I' for Inactive)
REMARK    1  A    between atoms: N_2  and  C_4
REMARK    2  A    between atoms: C_9  and  N_10
REMARK    3  A    between atoms: C_16  and  O_17
REMARK                            x       y       z     vdW  Elec       q    Type
REMARK                         _______ _______ _______ _____ _____    ______ ____
ROOT
ATOM      1  N   UNL     1       4.718   5.232  17.440  0.00  0.00    +0.000 N 
ATOM      2  C   UNL     1       4.669   5.980  16.276  0.00  0.00    +0.000 A 
ATOM      3  N   UNL     1       5.706   6.778  16.124  0.00  0.00    +0.000 NA
ATOM      4  C   UNL     1       6.470   6.567  17.234  0.00  0.00    +0.000 A 
ATOM      5  C   UNL     1       7.704   7.109  17.607  0.00  0.00    +0.000 A 
ATOM      6  C   UNL     1       8.253   6.689  18.821  0.00  0.00    +0.000 A 
ATOM      7  C   UNL     1       7.551   5.769  19.590  0.00  0.00    +0.000 A 
ATOM      8  N   UNL     1       6.366   5.219  19.275  0.00  0.00    +0.000 NA
ATOM      9  C   UNL     1       5.871   5.651  18.093  0.00  0.00    +0.000 A 
ENDROOT
BRANCH   1  15
ATOM     10  C   UNL     1       2.689   4.558  18.743  0.00  0.00    +0.000 A 
ATOM     11  C   UNL     1       1.794   3.560  19.169  0.00  0.00    +0.000 A 
ATOM     12  C   UNL     1       1.978   2.245  18.756  0.00  0.00    +0.000 A 
ATOM     13  C   UNL     1       3.047   1.929  17.923  0.00  0.00    +0.000 A 
ATOM     14  C   UNL     1       3.933   2.926  17.493  0.00  0.00    +0.000 A 
ATOM     15  C   UNL     1       3.773   4.263  17.899  0.00  0.00    +0.000 A 
BRANCH  10  17
ATOM     16  O   UNL     1       2.252   6.147  20.335  0.00  0.00    +0.000 OA
ATOM     17  N   UNL     1       2.339   5.913  19.125  0.00  0.00    +0.000 N 
ATOM     18  O   UNL     1       2.150   6.727  18.213  0.00  0.00    +0.000 OA
ENDBRANCH  10  17
ENDBRANCH   1  15
BRANCH   7  19
ATOM     19  O   UNL     1       8.059   5.342  20.785  0.00  0.00    +0.000 OA
ATOM     20  H   UNL     1       7.337   5.317  21.430  0.00  0.00    +0.000 HD
ENDBRANCH   7  19
TORSDOF 3
ENDMDL
MODEL 4
REMARK VINA RESULT:      -7.6      1.735      2.030
REMARK  Name = 
REMARK  3 active torsions:
REMARK  status: ('A' for Active; 'I' for Inactive)
REMARK    1  A    between atoms: N_2  and  C_4
REMARK    2  A    between atoms: C_9  and  N_10
REMARK    3  A    between atoms: C_16  and  O_17
REMARK                            x       y       z     vdW  Elec       q    Type
REMARK                         _______ _______ _______ _____ _____    ______ ____
ROOT
ATOM      1  N   UNL     1       3.441   5.457  18.704  0.00  0.00    +0.000 N 
ATOM      2  C   UNL     1       2.856   6.623  18.241  0.00  0.00    +0.000 A 
ATOM      3  N   UNL     1       3.667   7.361  17.512  0.00  0.00    +0.000 NA
ATOM      4  C   UNL     1       4.844   6.671  17.499  0.00  0.00    +0.000 A 
ATOM      5  C   UNL     1       6.056   6.949  16.859  0.00  0.00    +0.000 A 
ATOM      6  C   UNL     1       7.099   6.036  17.029  0.00  0.00    +0.000 A 
ATOM      7  C   UNL     1       6.885   4.914  17.820  0.00  0.00    +0.000 A 
ATOM      8  N   UNL     1       5.741   4.603  18.453  0.00  0.00    +0.000 NA
ATOM      9  C   UNL     1       4.757   5.510  18.261  0.00  0.00    +0.000 A 
ENDROOT
BRANCH   1  15
ATOM     10  C   UNL     1       2.471   3.170  19.006  0.00  0.00    +0.000 A 
ATOM     11  C   UNL     1       1.877   2.200  19.833  0.00  0.00    +0.000 A 
ATOM     12  C   UNL     1       1.638   2.488  21.173  0.00  0.00    +0.000 A 
ATOM     13  C   UNL     1       1.994   3.734  21.683  0.00  0.00    +0.000 A 
ATOM     14  C   UNL     1       2.593   4.694  20.858  0.00  0.00    +0.000 A 
ATOM     15  C   UNL     1       2.842   4.432  19.498  0.00  0.00    +0.000 A 
BRANCH  10  17
ATOM     16  O   UNL     1       3.697   1.896  17.547  0.00  0.00    +0.000 OA
ATOM     17  N   UNL     1       2.791   2.728  17.661  0.00  0.00    +0.000 N 
ATOM     18  O   UNL     1       2.135   3.218  16.734  0.00  0.00    +0.000 OA
ENDBRANCH  10  17
ENDBRANCH   1  15
BRANCH   7  19
ATOM     19  O   UNL     1       7.887   4.005  18.010  0.00  0.00    +0.000 OA
ATOM     20  H   UNL     1       8.604   4.439  18.494  0.00  0.00    +0.000 HD
ENDBRANCH   7  19
TORSDOF 3
ENDMDL
MODEL 5
REMARK VINA RESULT:      -7.4      1.890      2.403
REMARK  Name = 
REMARK  3 active torsions:
REMARK  status: ('A' for Active; 'I' for Inactive)
REMARK    1  A    between atoms: N_2  and  C_4
REMARK    2  A    between atoms: C_9  and  N_10
REMARK    3  A    between atoms: C_16  and  O_17
REMARK                            x       y       z     vdW  Elec       q    Type
REMARK                         _______ _______ _______ _____ _____    ______ ____
ROOT
ATOM      1  N   UNL     1       4.312   3.759  18.282  0.00  0.00    +0.000 N 
ATOM      2  C   UNL     1       4.265   3.456  16.932  0.00  0.00    +0.000 A 
ATOM      3  N   UNL     1       5.378   3.748  16.292  0.00  0.00    +0.000 NA
ATOM      4  C   UNL     1       6.195   4.280  17.246  0.00  0.00    +0.000 A 
ATOM      5  C   UNL     1       7.514   4.741  17.163  0.00  0.00    +0.000 A 
ATOM      6  C   UNL     1       8.100   5.233  18.331  0.00  0.00    +0.000 A 
ATOM      7  C   UNL     1       7.351   5.245  19.502  0.00  0.00    +0.000 A 
ATOM      8  N   UNL     1       6.085   4.813  19.632  0.00  0.00    +0.000 NA
ATOM      9  C   UNL     1       5.556   4.344  18.480  0.00  0.00    +0.000 A 
ENDROOT
BRANCH   1  15
ATOM     10  C   UNL     1       2.018   4.142  19.207  0.00  0.00    +0.000 A 
ATOM     11  C   UNL     1       1.054   3.908  20.205  0.00  0.00    +0.000 A 
ATOM     12  C   UNL     1       1.361   3.080  21.280  0.00  0.00    +0.000 A 
ATOM     13  C   UNL     1       2.618   2.488  21.356  0.00  0.00    +0.000 A 
ATOM     14  C   UNL     1       3.572   2.716  20.357  0.00  0.00    +0.000 A 
ATOM     15  C   UNL     1       3.292   3.553  19.261  0.00  0.00    +0.000 A 
BRANCH  10  17
ATOM     16  O   UNL     1       1.883   6.108  18.038  0.00  0.00    +0.000 OA
ATOM     17  N   UNL     1       1.558   4.916  18.069  0.00  0.00    +0.000 N 
ATOM     18  O   UNL     1       0.876   4.327  17.222  0.00  0.00    +0.000 OA
ENDBRANCH  10  17
ENDBRANCH   1  15
BRANCH   7  19
ATOM     19  O   UNL     1       7.894   5.725  20.661  0.00  0.00    +0.000 OA
ATOM     20  H   UNL     1       8.858   5.719  20.570  0.00  0.00    +0.000 HD
ENDBRANCH   7  19
TORSDOF 3
ENDMDL
MODEL 6
REMARK VINA RESULT:      -7.4      1.990      2.564
REMARK  Name = 
REMARK  3 active torsions:
REMARK  status: ('A' for Active; 'I' for Inactive)
REMARK    1  A    between atoms: N_2  and  C_4
REMARK    2  A    between atoms: C_9  and  N_10
REMARK    3  A    between atoms: C_16  and  O_17
REMARK                            x       y       z     vdW  Elec       q    Type
REMARK                         _______ _______ _______ _____ _____    ______ ____
ROOT
ATOM      1  N   UNL     1       4.125   4.033  18.132  0.00  0.00    +0.000 N 
ATOM      2  C   UNL     1       4.053   3.825  16.766  0.00  0.00    +0.000 A 
ATOM      3  N   UNL     1       5.179   4.090  16.137  0.00  0.00    +0.000 NA
ATOM      4  C   UNL     1       6.033   4.504  17.117  0.00  0.00    +0.000 A 
ATOM      5  C   UNL     1       7.377   4.885  17.053  0.00  0.00    +0.000 A 
ATOM      6  C   UNL     1       7.999   5.259  18.246  0.00  0.00    +0.000 A 
ATOM      7  C   UNL     1       7.259   5.240  19.422  0.00  0.00    +0.000 A 
ATOM      8  N   UNL     1       5.968   4.880  19.535  0.00  0.00    +0.000 NA
ATOM      9  C   UNL     1       5.405   4.524  18.358  0.00  0.00    +0.000 A 
ENDROOT
BRANCH   1  15
ATOM     10  C   UNL     1       2.293   4.848  19.631  0.00  0.00    +0.000 A 
ATOM     11  C   UNL     1       1.302   4.585  20.593  0.00  0.00    +0.000 A 
ATOM     12  C   UNL     1       1.109   3.285  21.049  0.00  0.00    +0.000 A 
ATOM     13  C   UNL     1       1.899   2.255  20.545  0.00  0.00    +0.000 A 
ATOM     14  C   UNL     1       2.879   2.519  19.580  0.00  0.00    +0.000 A 
ATOM     15  C   UNL     1       3.100   3.824  19.105  0.00  0.00    +0.000 A 
BRANCH  10  17
ATOM     16  O   UNL     1       2.542   7.102  19.960  0.00  0.00    +0.000 OA
ATOM     17  N   UNL     1       2.330   6.210  19.132  0.00  0.00    +0.000 N 
ATOM     18  O   UNL     1       2.143   6.374  17.920  0.00  0.00    +0.000 OA
ENDBRANCH  10  17
ENDBRANCH   1  15
BRANCH   7  19
ATOM     19  O   UNL     1       7.837   5.605  20.605  0.00  0.00    +0.000 OA
ATOM     20  H   UNL     1       7.317   5.224  21.327  0.00  0.00    +0.000 HD
ENDBRANCH   7  19
TORSDOF 3
ENDMDL
MODEL 7
REMARK VINA RESULT:      -7.2      2.697      5.460
REMARK  Name = 
REMARK  3 active torsions:
REMARK  status: ('A' for Active; 'I' for Inactive)
REMARK    1  A    between atoms: N_2  and  C_4
REMARK    2  A    between atoms: C_9  and  N_10
REMARK    3  A    between atoms: C_16  and  O_17
REMARK                            x       y       z     vdW  Elec       q    Type
REMARK                         _______ _______ _______ _____ _____    ______ ____
ROOT
ATOM      1  N   UNL     1       4.701   4.467  18.264  0.00  0.00    +0.000 N 
ATOM      2  C   UNL     1       4.558   3.292  17.546  0.00  0.00    +0.000 A 
ATOM      3  N   UNL     1       3.401   2.695  17.746  0.00  0.00    +0.000 NA
ATOM      4  C   UNL     1       2.752   3.492  18.643  0.00  0.00    +0.000 A 
ATOM      5  C   UNL     1       1.474   3.382  19.202  0.00  0.00    +0.000 A 
ATOM      6  C   UNL     1       1.077   4.372  20.102  0.00  0.00    +0.000 A 
ATOM      7  C   UNL     1       1.961   5.402  20.399  0.00  0.00    +0.000 A 
ATOM      8  N   UNL     1       3.196   5.552  19.888  0.00  0.00    +0.000 NA
ATOM      9  C   UNL     1       3.541   4.574  19.021  0.00  0.00    +0.000 A 
ENDROOT
BRANCH   1  15
ATOM     10  C   UNL     1       5.960   6.434  17.364  0.00  0.00    +0.000 A 
ATOM     11  C   UNL     1       7.082   7.282  17.404  0.00  0.00    +0.000 A 
ATOM     12  C   UNL     1       8.080   7.063  18.349  0.00  0.00    +0.000 A 
ATOM     13  C   UNL     1       7.956   6.007  19.247  0.00  0.00    +0.000 A 
ATOM     14  C   UNL     1       6.835   5.169  19.210  0.00  0.00    +0.000 A 
ATOM     15  C   UNL     1       5.813   5.364  18.262  0.00  0.00    +0.000 A 
BRANCH  10  17
ATOM     16  O   UNL     1       3.903   7.332  16.905  0.00  0.00    +0.000 OA
ATOM     17  N   UNL     1       4.921   6.821  16.428  0.00  0.00    +0.000 N 
ATOM     18  O   UNL     1       5.133   6.609  15.228  0.00  0.00    +0.000 OA
ENDBRANCH  10  17
ENDBRANCH   1  15
BRANCH   7  19
ATOM     19  O   UNL     1       1.604   6.384  21.280  0.00  0.00    +0.000 OA
ATOM     20  H   UNL     1       1.120   5.974  22.011  0.00  0.00    +0.000 HD
ENDBRANCH   7  19
TORSDOF 3
ENDMDL
MODEL 8
REMARK VINA RESULT:      -7.2      1.632      5.424
REMARK  Name = 
REMARK  3 active torsions:
REMARK  status: ('A' for Active; 'I' for Inactive)
REMARK    1  A    between atoms: N_2  and  C_4
REMARK    2  A    between atoms: C_9  and  N_10
REMARK    3  A    between atoms: C_16  and  O_17
REMARK                            x       y       z     vdW  Elec       q    Type
REMARK                         _______ _______ _______ _____ _____    ______ ____
ROOT
ATOM      1  N   UNL     1       3.913   5.350  18.145  0.00  0.00    +0.000 N 
ATOM      2  C   UNL     1       3.591   6.591  18.665  0.00  0.00    +0.000 A 
ATOM      3  N   UNL     1       2.583   6.557  19.512  0.00  0.00    +0.000 NA
ATOM      4  C   UNL     1       2.208   5.246  19.549  0.00  0.00    +0.000 A 
ATOM      5  C   UNL     1       1.216   4.604  20.298  0.00  0.00    +0.000 A 
ATOM      6  C   UNL     1       1.068   3.226  20.125  0.00  0.00    +0.000 A 
ATOM      7  C   UNL     1       1.901   2.571  19.225  0.00  0.00    +0.000 A 
ATOM      8  N   UNL     1       2.867   3.143  18.486  0.00  0.00    +0.000 NA
ATOM      9  C   UNL     1       2.978   4.475  18.685  0.00  0.00    +0.000 A 
ENDROOT
BRANCH   1  15
ATOM     10  C   UNL     1       6.326   5.090  17.533  0.00  0.00    +0.000 A 
ATOM     11  C   UNL     1       7.312   4.772  16.581  0.00  0.00    +0.000 A 
ATOM     12  C   UNL     1       6.935   4.393  15.297  0.00  0.00    +0.000 A 
ATOM     13  C   UNL     1       5.585   4.331  14.966  0.00  0.00    +0.000 A 
ATOM     14  C   UNL     1       4.605   4.640  15.918  0.00  0.00    +0.000 A 
ATOM     15  C   UNL     1       4.957   5.031  17.223  0.00  0.00    +0.000 A 
BRANCH  10  17
ATOM     16  O   UNL     1       7.646   6.258  18.998  0.00  0.00    +0.000 OA
ATOM     17  N   UNL     1       6.817   5.350  18.873  0.00  0.00    +0.000 N 
ATOM     18  O   UNL     1       6.372   4.644  19.786  0.00  0.00    +0.000 OA
ENDBRANCH  10  17
ENDBRANCH   1  15
BRANCH   7  19
ATOM     19  O   UNL     1       1.778   1.224  19.029  0.00  0.00    +0.000 OA
ATOM     20  H   UNL     1       1.211   1.079  18.259  0.00  0.00    +0.000 HD
ENDBRANCH   7  19
TORSDOF 3
ENDMDL
MODEL 9
REMARK VINA RESULT:      -7.1      1.659      2.752
REMARK  Name = 
REMARK  3 active torsions:
REMARK  status: ('A' for Active; 'I' for Inactive)
REMARK    1  A    between atoms: N_2  and  C_4
REMARK    2  A    between atoms: C_9  and  N_10
REMARK    3  A    between atoms: C_16  and  O_17
REMARK                            x       y       z     vdW  Elec       q    Type
REMARK                         _______ _______ _______ _____ _____    ______ ____
ROOT
ATOM      1  N   UNL     1       5.262   4.769  18.812  0.00  0.00    +0.000 N 
ATOM      2  C   UNL     1       6.433   5.070  19.485  0.00  0.00    +0.000 A 
ATOM      3  N   UNL     1       7.480   5.171  18.693  0.00  0.00    +0.000 NA
ATOM      4  C   UNL     1       6.993   4.915  17.444  0.00  0.00    +0.000 A 
ATOM      5  C   UNL     1       7.633   4.912  16.200  0.00  0.00    +0.000 A 
ATOM      6  C   UNL     1       6.858   4.613  15.077  0.00  0.00    +0.000 A 
ATOM      7  C   UNL     1       5.509   4.331  15.251  0.00  0.00    +0.000 A 
ATOM      8  N   UNL     1       4.850   4.323  16.422  0.00  0.00    +0.000 NA
ATOM      9  C   UNL     1       5.635   4.619  17.483  0.00  0.00    +0.000 A 
ENDROOT
BRANCH   1  15
ATOM     10  C   UNL     1       3.361   3.367  19.641  0.00  0.00    +0.000 A 
ATOM     11  C   UNL     1       2.064   3.271  20.176  0.00  0.00    +0.000 A 
ATOM     12  C   UNL     1       1.335   4.428  20.433  0.00  0.00    +0.000 A 
ATOM     13  C   UNL     1       1.899   5.670  20.161  0.00  0.00    +0.000 A 
ATOM     14  C   UNL     1       3.195   5.764  19.637  0.00  0.00    +0.000 A 
ATOM     15  C   UNL     1       3.952   4.610  19.362  0.00  0.00    +0.000 A 
BRANCH  10  17
ATOM     16  O   UNL     1       3.767   1.372  18.590  0.00  0.00    +0.000 OA
ATOM     17  N   UNL     1       4.081   2.113  19.527  0.00  0.00    +0.000 N 
ATOM     18  O   UNL     1       4.950   1.880  20.376  0.00  0.00    +0.000 OA
ENDBRANCH  10  17
ENDBRANCH   1  15
BRANCH   7  19
ATOM     19  O   UNL     1       4.725   4.030  14.173  0.00  0.00    +0.000 OA
ATOM     20  H   UNL     1       5.214   4.258  13.369  0.00  0.00    +0.000 HD
ENDBRANCH   7  19
TORSDOF 3
ENDMDL
