MODEL 1
REMARK VINA RESULT:      -8.5      0.000      0.000
REMARK  Name = 
REMARK  6 active torsions:
REMARK  status: ('A' for Active; 'I' for Inactive)
REMARK    1  A    between atoms: O_1  and  C_2
REMARK    2  A    between atoms: C_4  and  C_5
REMARK    3  A    between atoms: C_8  and  C_9
REMARK    4  A    between atoms: C_9  and  C_10
REMARK    5  A    between atoms: C_10  and  N_11
REMARK    6  A    between atoms: N_14  and  C_15
REMARK                            x       y       z     vdW  Elec       q    Type
REMARK                         _______ _______ _______ _____ _____    ______ ____
ROOT
ATOM      1  N   UNL     1       2.045   3.246  19.633  0.00  0.00    +0.000 NA
ATOM      2  C   UNL     1       1.658   3.204  18.202  0.00  0.00    +0.000 C 
ATOM      3  C   UNL     1       2.365   4.209  17.256  0.00  0.00    +0.000 C 
ATOM      4  N   UNL     1       3.824   4.110  17.449  0.00  0.00    +0.000 N 
ATOM      5  C   UNL     1       4.195   4.421  18.841  0.00  0.00    +0.000 C 
ATOM      6  C   UNL     1       3.516   3.386  19.768  0.00  0.00    +0.000 C 
ENDROOT
BRANCH   4   7
ATOM      7  C   UNL     1       4.713   4.488  16.447  0.00  0.00    +0.000 A 
ATOM      8  N   UNL     1       4.836   3.695  15.354  0.00  0.00    +0.000 NA
ATOM      9  C   UNL     1       5.740   4.052  14.415  0.00  0.00    +0.000 A 
ATOM     10  C   UNL     1       5.704   3.493  13.143  0.00  0.00    +0.000 A 
ATOM     11  C   UNL     1       6.640   3.845  12.166  0.00  0.00    +0.000 A 
ATOM     12  C   UNL     1       7.691   4.693  12.496  0.00  0.00    +0.000 A 
ATOM     13  C   UNL     1       7.714   5.295  13.750  0.00  0.00    +0.000 A 
ATOM     14  C   UNL     1       6.686   5.069  14.654  0.00  0.00    +0.000 A 
ATOM     15  N   UNL     1       6.536   5.909  15.674  0.00  0.00    +0.000 NA
ATOM     16  C   UNL     1       5.434   5.690  16.445  0.00  0.00    +0.000 A 
ATOM     17 CL   UNL     1       4.615   7.199  16.753  0.00  0.00    +0.000 Cl
ENDBRANCH   4   7
BRANCH   1  18
ATOM     18  C   UNL     1       1.309   4.235  20.429  0.00  0.00    +0.000 C 
BRANCH  18  19
ATOM     19  C   UNL     1       2.241   5.330  20.991  0.00  0.00    +0.000 C 
BRANCH  19  23
ATOM     20  C   UNL     1       0.950   9.324  19.916  0.00  0.00    +0.000 A 
ATOM     21  C   UNL     1       0.560   8.745  21.130  0.00  0.00    +0.000 A 
ATOM     22  C   UNL     1       0.974   7.456  21.471  0.00  0.00    +0.000 A 
ATOM     23  C   UNL     1       1.796   6.722  20.609  0.00  0.00    +0.000 A 
ATOM     24  C   UNL     1       2.197   7.300  19.398  0.00  0.00    +0.000 A 
ATOM     25  C   UNL     1       1.779   8.593  19.059  0.00  0.00    +0.000 A 
BRANCH  20  28
ATOM     26  C   UNL     1      -0.583  12.149  18.345  0.00  0.00    +0.000 A 
ATOM     27  N   UNL     1      -0.358  10.867  18.468  0.00  0.00    +0.000 NA
ATOM     28  C   UNL     1       0.511  10.664  19.534  0.00  0.00    +0.000 A 
ATOM     29  C   UNL     1       0.889  11.820  20.196  0.00  0.00    +0.000 A 
ATOM     30  S   UNL     1       0.170  13.190  19.454  0.00  0.00    +0.000 S 
BRANCH  26  31
ATOM     31  O   UNL     1      -1.373  12.573  17.380  0.00  0.00    +0.000 OA
ATOM     32  H   UNL     1      -2.052  13.044  17.892  0.00  0.00    +0.000 HD
ENDBRANCH  26  31
ENDBRANCH  20  28
ENDBRANCH  19  23
ENDBRANCH  18  19
ENDBRANCH   1  18
TORSDOF 6
ENDMDL
MODEL 2
REMARK VINA RESULT:      -8.3      6.574      8.514
REMARK  Name = 
REMARK  6 active torsions:
REMARK  status: ('A' for Active; 'I' for Inactive)
REMARK    1  A    between atoms: O_1  and  C_2
REMARK    2  A    between atoms: C_4  and  C_5
REMARK    3  A    between atoms: C_8  and  C_9
REMARK    4  A    between atoms: C_9  and  C_10
REMARK    5  A    between atoms: C_10  and  N_11
REMARK    6  A    between atoms: N_14  and  C_15
REMARK                            x       y       z     vdW  Elec       q    Type
REMARK                         _______ _______ _______ _____ _____    ______ ____
ROOT
ATOM      1  N   UNL     1       8.068   7.646  17.463  0.00  0.00    +0.000 NA
ATOM      2  C   UNL     1       8.113   6.672  18.580  0.00  0.00    +0.000 C 
ATOM      3  C   UNL     1       6.753   6.222  19.172  0.00  0.00    +0.000 C 
ATOM      4  N   UNL     1       5.870   5.780  18.076  0.00  0.00    +0.000 N 
ATOM      5  C   UNL     1       5.635   6.873  17.115  0.00  0.00    +0.000 C 
ATOM      6  C   UNL     1       6.995   7.282  16.503  0.00  0.00    +0.000 C 
ENDROOT
BRANCH   4   7
ATOM      7  C   UNL     1       4.827   4.888  18.302  0.00  0.00    +0.000 A 
ATOM      8  N   UNL     1       3.894   5.201  19.234  0.00  0.00    +0.000 NA
ATOM      9  C   UNL     1       2.915   4.301  19.475  0.00  0.00    +0.000 A 
ATOM     10  C   UNL     1       1.763   4.666  20.161  0.00  0.00    +0.000 A 
ATOM     11  C   UNL     1       0.749   3.741  20.425  0.00  0.00    +0.000 A 
ATOM     12  C   UNL     1       0.933   2.406  20.090  0.00  0.00    +0.000 A 
ATOM     13  C   UNL     1       2.060   2.034  19.364  0.00  0.00    +0.000 A 
ATOM     14  C   UNL     1       2.979   2.990  18.958  0.00  0.00    +0.000 A 
ATOM     15  N   UNL     1       3.832   2.686  17.984  0.00  0.00    +0.000 NA
ATOM     16  C   UNL     1       4.618   3.716  17.562  0.00  0.00    +0.000 A 
ATOM     17 CL   UNL     1       4.643   3.768  15.819  0.00  0.00    +0.000 Cl
ENDBRANCH   4   7
BRANCH   1  18
ATOM     18  C   UNL     1       7.993   9.049  17.887  0.00  0.00    +0.000 C 
BRANCH  18  19
ATOM     19  C   UNL     1       9.102   9.404  18.901  0.00  0.00    +0.000 C 
BRANCH  19  23
ATOM     20  C   UNL     1      10.186  13.596  18.741  0.00  0.00    +0.000 A 
ATOM     21  C   UNL     1       9.235  13.066  17.860  0.00  0.00    +0.000 A 
ATOM     22  C   UNL     1       8.892  11.713  17.912  0.00  0.00    +0.000 A 
ATOM     23  C   UNL     1       9.485  10.864  18.852  0.00  0.00    +0.000 A 
ATOM     24  C   UNL     1      10.430  11.391  19.741  0.00  0.00    +0.000 A 
ATOM     25  C   UNL     1      10.774  12.747  19.686  0.00  0.00    +0.000 A 
BRANCH  20  28
ATOM     26  C   UNL     1      10.858  16.968  17.754  0.00  0.00    +0.000 A 
ATOM     27  N   UNL     1      10.441  15.751  17.524  0.00  0.00    +0.000 NA
ATOM     28  C   UNL     1      10.573  15.004  18.689  0.00  0.00    +0.000 A 
ATOM     29  C   UNL     1      11.068  15.710  19.772  0.00  0.00    +0.000 A 
ATOM     30  S   UNL     1      11.405  17.331  19.320  0.00  0.00    +0.000 S 
BRANCH  26  31
ATOM     31  O   UNL     1      10.837  17.850  16.776  0.00  0.00    +0.000 OA
ATOM     32  H   UNL     1       9.897  18.098  16.772  0.00  0.00    +0.000 HD
ENDBRANCH  26  31
ENDBRANCH  20  28
ENDBRANCH  19  23
ENDBRANCH  18  19
ENDBRANCH   1  18
TORSDOF 6
ENDMDL
MODEL 3
REMARK VINA RESULT:      -8.2      0.854      1.250
REMARK  Name = 
REMARK  6 active torsions:
REMARK  status: ('A' for Active; 'I' for Inactive)
REMARK    1  A    between atoms: O_1  and  C_2
REMARK    2  A    between atoms: C_4  and  C_5
REMARK    3  A    between atoms: C_8  and  C_9
REMARK    4  A    between atoms: C_9  and  C_10
REMARK    5  A    between atoms: C_10  and  N_11
REMARK    6  A    between atoms: N_14  and  C_15
REMARK                            x       y       z     vdW  Elec       q    Type
REMARK                         _______ _______ _______ _____ _____    ______ ____
ROOT
ATOM      1  N   UNL     1       2.090   3.241  19.636  0.00  0.00    +0.000 NA
ATOM      2  C   UNL     1       1.689   3.214  18.209  0.00  0.00    +0.000 C 
ATOM      3  C   UNL     1       2.398   4.217  17.263  0.00  0.00    +0.000 C 
ATOM      4  N   UNL     1       3.858   4.099  17.440  0.00  0.00    +0.000 N 
ATOM      5  C   UNL     1       4.247   4.396  18.830  0.00  0.00    +0.000 C 
ATOM      6  C   UNL     1       3.565   3.363  19.757  0.00  0.00    +0.000 C 
ENDROOT
BRANCH   4   7
ATOM      7  C   UNL     1       4.741   4.473  16.431  0.00  0.00    +0.000 A 
ATOM      8  N   UNL     1       4.853   3.680  15.338  0.00  0.00    +0.000 NA
ATOM      9  C   UNL     1       5.751   4.032  14.392  0.00  0.00    +0.000 A 
ATOM     10  C   UNL     1       5.704   3.473  13.120  0.00  0.00    +0.000 A 
ATOM     11  C   UNL     1       6.634   3.822  12.137  0.00  0.00    +0.000 A 
ATOM     12  C   UNL     1       7.690   4.665  12.459  0.00  0.00    +0.000 A 
ATOM     13  C   UNL     1       7.725   5.268  13.712  0.00  0.00    +0.000 A 
ATOM     14  C   UNL     1       6.703   5.047  14.624  0.00  0.00    +0.000 A 
ATOM     15  N   UNL     1       6.563   5.887  15.645  0.00  0.00    +0.000 NA
ATOM     16  C   UNL     1       5.466   5.673  16.424  0.00  0.00    +0.000 A 
ATOM     17 CL   UNL     1       4.655   7.185  16.737  0.00  0.00    +0.000 Cl
ENDBRANCH   4   7
BRANCH   1  18
ATOM     18  C   UNL     1       1.375   4.234  20.446  0.00  0.00    +0.000 C 
BRANCH  18  19
ATOM     19  C   UNL     1       2.314   5.351  20.950  0.00  0.00    +0.000 C 
BRANCH  19  23
ATOM     20  C   UNL     1       1.058   9.289  19.649  0.00  0.00    +0.000 A 
ATOM     21  C   UNL     1       1.908   8.508  18.857  0.00  0.00    +0.000 A 
ATOM     22  C   UNL     1       2.314   7.241  19.282  0.00  0.00    +0.000 A 
ATOM     23  C   UNL     1       1.871   6.725  20.504  0.00  0.00    +0.000 A 
ATOM     24  C   UNL     1       1.013   7.498  21.296  0.00  0.00    +0.000 A 
ATOM     25  C   UNL     1       0.608   8.769  20.868  0.00  0.00    +0.000 A 
BRANCH  20  28
ATOM     26  C   UNL     1       0.922  12.708  18.605  0.00  0.00    +0.000 A 
ATOM     27  N   UNL     1       1.563  11.623  18.951  0.00  0.00    +0.000 NA
ATOM     28  C   UNL     1       0.637  10.624  19.230  0.00  0.00    +0.000 A 
ATOM     29  C   UNL     1      -0.683  10.999  19.053  0.00  0.00    +0.000 A 
ATOM     30  S   UNL     1      -0.773  12.639  18.559  0.00  0.00    +0.000 S 
BRANCH  26  31
ATOM     31  O   UNL     1       1.608  13.793  18.309  0.00  0.00    +0.000 OA
ATOM     32  H   UNL     1       1.338  14.384  19.034  0.00  0.00    +0.000 HD
ENDBRANCH  26  31
ENDBRANCH  20  28
ENDBRANCH  19  23
ENDBRANCH  18  19
ENDBRANCH   1  18
TORSDOF 6
ENDMDL
MODEL 4
REMARK VINA RESULT:      -8.2      4.175      5.996
REMARK  Name = 
REMARK  6 active torsions:
REMARK  status: ('A' for Active; 'I' for Inactive)
REMARK    1  A    between atoms: O_1  and  C_2
REMARK    2  A    between atoms: C_4  and  C_5
REMARK    3  A    between atoms: C_8  and  C_9
REMARK    4  A    between atoms: C_9  and  C_10
REMARK    5  A    between atoms: C_10  and  N_11
REMARK    6  A    between atoms: N_14  and  C_15
REMARK                            x       y       z     vdW  Elec       q    Type
REMARK                         _______ _______ _______ _____ _____    ______ ____
ROOT
ATOM      1  N   UNL     1       0.123  10.227  19.568  0.00  0.00    +0.000 NA
ATOM      2  C   UNL     1       0.333   9.914  18.134  0.00  0.00    +0.000 C 
ATOM      3  C   UNL     1       1.676   9.240  17.753  0.00  0.00    +0.000 C 
ATOM      4  N   UNL     1       1.893   8.068  18.622  0.00  0.00    +0.000 N 
ATOM      5  C   UNL     1       1.942   8.465  20.041  0.00  0.00    +0.000 C 
ATOM      6  C   UNL     1       0.581   9.097  20.416  0.00  0.00    +0.000 C 
ENDROOT
BRANCH   4   7
ATOM      7  C   UNL     1       2.705   7.011  18.222  0.00  0.00    +0.000 A 
ATOM      8  N   UNL     1       3.853   7.289  17.557  0.00  0.00    +0.000 NA
ATOM      9  C   UNL     1       4.604   6.248  17.134  0.00  0.00    +0.000 A 
ATOM     10  C   UNL     1       5.923   6.435  16.740  0.00  0.00    +0.000 A 
ATOM     11  C   UNL     1       6.707   5.368  16.290  0.00  0.00    +0.000 A 
ATOM     12  C   UNL     1       6.132   4.113  16.132  0.00  0.00    +0.000 A 
ATOM     13  C   UNL     1       4.827   3.901  16.564  0.00  0.00    +0.000 A 
ATOM     14  C   UNL     1       4.114   4.926  17.167  0.00  0.00    +0.000 A 
ATOM     15  N   UNL     1       3.036   4.621  17.883  0.00  0.00    +0.000 NA
ATOM     16  C   UNL     1       2.463   5.668  18.541  0.00  0.00    +0.000 A 
ATOM     17 CL   UNL     1       2.104   5.212  20.186  0.00  0.00    +0.000 Cl
ENDBRANCH   4   7
BRANCH   1  18
ATOM     18  C   UNL     1       0.682  11.515  19.994  0.00  0.00    +0.000 C 
BRANCH  18  19
ATOM     19  C   UNL     1       0.558  11.720  21.520  0.00  0.00    +0.000 C 
BRANCH  19  23
ATOM     20  C   UNL     1      -3.413  12.967  22.723  0.00  0.00    +0.000 A 
ATOM     21  C   UNL     1      -2.755  11.925  23.389  0.00  0.00    +0.000 A 
ATOM     22  C   UNL     1      -1.477  11.524  22.995  0.00  0.00    +0.000 A 
ATOM     23  C   UNL     1      -0.826  12.161  21.933  0.00  0.00    +0.000 A 
ATOM     24  C   UNL     1      -1.477  13.210  21.271  0.00  0.00    +0.000 A 
ATOM     25  C   UNL     1      -2.759  13.609  21.667  0.00  0.00    +0.000 A 
BRANCH  20  28
ATOM     26  C   UNL     1      -6.836  13.106  23.755  0.00  0.00    +0.000 A 
ATOM     27  N   UNL     1      -5.737  12.465  23.460  0.00  0.00    +0.000 NA
ATOM     28  C   UNL     1      -4.758  13.388  23.109  0.00  0.00    +0.000 A 
ATOM     29  C   UNL     1      -5.163  14.710  23.183  0.00  0.00    +0.000 A 
ATOM     30  S   UNL     1      -6.806  14.802  23.669  0.00  0.00    +0.000 S 
BRANCH  26  31
ATOM     31  O   UNL     1      -7.906  12.422  24.103  0.00  0.00    +0.000 OA
ATOM     32  H   UNL     1      -8.156  12.025  23.251  0.00  0.00    +0.000 HD
ENDBRANCH  26  31
ENDBRANCH  20  28
ENDBRANCH  19  23
ENDBRANCH  18  19
ENDBRANCH   1  18
TORSDOF 6
ENDMDL
MODEL 5
REMARK VINA RESULT:      -8.1      6.717      8.642
REMARK  Name = 
REMARK  6 active torsions:
REMARK  status: ('A' for Active; 'I' for Inactive)
REMARK    1  A    between atoms: O_1  and  C_2
REMARK    2  A    between atoms: C_4  and  C_5
REMARK    3  A    between atoms: C_8  and  C_9
REMARK    4  A    between atoms: C_9  and  C_10
REMARK    5  A    between atoms: C_10  and  N_11
REMARK    6  A    between atoms: N_14  and  C_15
REMARK                            x       y       z     vdW  Elec       q    Type
REMARK                         _______ _______ _______ _____ _____    ______ ____
ROOT
ATOM      1  N   UNL     1       8.049   7.675  17.464  0.00  0.00    +0.000 NA
ATOM      2  C   UNL     1       8.090   6.706  18.585  0.00  0.00    +0.000 C 
ATOM      3  C   UNL     1       6.727   6.245  19.162  0.00  0.00    +0.000 C 
ATOM      4  N   UNL     1       5.863   5.790  18.057  0.00  0.00    +0.000 N 
ATOM      5  C   UNL     1       5.629   6.876  17.089  0.00  0.00    +0.000 C 
ATOM      6  C   UNL     1       6.992   7.296  16.492  0.00  0.00    +0.000 C 
ENDROOT
BRANCH   4   7
ATOM      7  C   UNL     1       4.825   4.888  18.274  0.00  0.00    +0.000 A 
ATOM      8  N   UNL     1       3.901   5.176  19.223  0.00  0.00    +0.000 NA
ATOM      9  C   UNL     1       2.929   4.266  19.454  0.00  0.00    +0.000 A 
ATOM     10  C   UNL     1       1.783   4.610  20.160  0.00  0.00    +0.000 A 
ATOM     11  C   UNL     1       0.776   3.675  20.414  0.00  0.00    +0.000 A 
ATOM     12  C   UNL     1       0.962   2.348  20.047  0.00  0.00    +0.000 A 
ATOM     13  C   UNL     1       2.083   1.998  19.300  0.00  0.00    +0.000 A 
ATOM     14  C   UNL     1       2.993   2.967  18.907  0.00  0.00    +0.000 A 
ATOM     15  N   UNL     1       3.836   2.690  17.917  0.00  0.00    +0.000 NA
ATOM     16  C   UNL     1       4.613   3.732  17.510  0.00  0.00    +0.000 A 
ATOM     17 CL   UNL     1       4.620   3.824  15.768  0.00  0.00    +0.000 Cl
ENDBRANCH   4   7
BRANCH   1  18
ATOM     18  C   UNL     1       7.955   9.079  17.881  0.00  0.00    +0.000 C 
BRANCH  18  19
ATOM     19  C   UNL     1       9.025   9.440  18.933  0.00  0.00    +0.000 C 
BRANCH  19  23
ATOM     20  C   UNL     1      10.472  13.505  18.536  0.00  0.00    +0.000 A 
ATOM     21  C   UNL     1      11.099  12.601  19.403  0.00  0.00    +0.000 A 
ATOM     22  C   UNL     1      10.627  11.293  19.531  0.00  0.00    +0.000 A 
ATOM     23  C   UNL     1       9.524  10.858  18.788  0.00  0.00    +0.000 A 
ATOM     24  C   UNL     1       8.899  11.756  17.913  0.00  0.00    +0.000 A 
ATOM     25  C   UNL     1       9.374  13.068  17.788  0.00  0.00    +0.000 A 
BRANCH  20  28
ATOM     26  C   UNL     1      11.100  17.003  18.943  0.00  0.00    +0.000 A 
ATOM     27  N   UNL     1      10.541  15.875  19.291  0.00  0.00    +0.000 NA
ATOM     28  C   UNL     1      10.940  14.883  18.402  0.00  0.00    +0.000 A 
ATOM     29  C   UNL     1      11.819  15.309  17.422  0.00  0.00    +0.000 A 
ATOM     30  S   UNL     1      12.130  16.988  17.593  0.00  0.00    +0.000 S 
BRANCH  26  31
ATOM     31  O   UNL     1      10.846  18.090  19.643  0.00  0.00    +0.000 OA
ATOM     32  H   UNL     1      11.641  18.138  20.201  0.00  0.00    +0.000 HD
ENDBRANCH  26  31
ENDBRANCH  20  28
ENDBRANCH  19  23
ENDBRANCH  18  19
ENDBRANCH   1  18
TORSDOF 6
ENDMDL
MODEL 6
REMARK VINA RESULT:      -8.0      1.350      1.686
REMARK  Name = 
REMARK  6 active torsions:
REMARK  status: ('A' for Active; 'I' for Inactive)
REMARK    1  A    between atoms: O_1  and  C_2
REMARK    2  A    between atoms: C_4  and  C_5
REMARK    3  A    between atoms: C_8  and  C_9
REMARK    4  A    between atoms: C_9  and  C_10
REMARK    5  A    between atoms: C_10  and  N_11
REMARK    6  A    between atoms: N_14  and  C_15
REMARK                            x       y       z     vdW  Elec       q    Type
REMARK                         _______ _______ _______ _____ _____    ______ ____
ROOT
ATOM      1  N   UNL     1       3.117   3.447  19.918  0.00  0.00    +0.000 NA
ATOM      2  C   UNL     1       2.474   3.607  18.591  0.00  0.00    +0.000 C 
ATOM      3  C   UNL     1       3.174   4.554  17.583  0.00  0.00    +0.000 C 
ATOM      4  N   UNL     1       4.597   4.182  17.478  0.00  0.00    +0.000 N 
ATOM      5  C   UNL     1       5.270   4.294  18.785  0.00  0.00    +0.000 C 
ATOM      6  C   UNL     1       4.588   3.313  19.767  0.00  0.00    +0.000 C 
ENDROOT
BRANCH   4   7
ATOM      7  C   UNL     1       5.343   4.488  16.343  0.00  0.00    +0.000 A 
ATOM      8  N   UNL     1       5.168   3.737  15.229  0.00  0.00    +0.000 NA
ATOM      9  C   UNL     1       5.936   4.018  14.152  0.00  0.00    +0.000 A 
ATOM     10  C   UNL     1       5.607   3.526  12.895  0.00  0.00    +0.000 A 
ATOM     11  C   UNL     1       6.399   3.800  11.776  0.00  0.00    +0.000 A 
ATOM     12  C   UNL     1       7.595   4.490  11.934  0.00  0.00    +0.000 A 
ATOM     13  C   UNL     1       7.914   5.027  13.177  0.00  0.00    +0.000 A 
ATOM     14  C   UNL     1       7.037   4.894  14.243  0.00  0.00    +0.000 A 
ATOM     15  N   UNL     1       7.178   5.699  15.292  0.00  0.00    +0.000 NA
ATOM     16  C   UNL     1       6.207   5.587  16.241  0.00  0.00    +0.000 A 
ATOM     17 CL   UNL     1       5.662   7.173  16.722  0.00  0.00    +0.000 Cl
ENDBRANCH   4   7
BRANCH   1  18
ATOM     18  C   UNL     1       2.742   4.473  20.898  0.00  0.00    +0.000 C 
BRANCH  18  19
ATOM     19  C   UNL     1       1.305   4.989  20.671  0.00  0.00    +0.000 C 
BRANCH  19  23
ATOM     20  C   UNL     1       1.150   9.298  20.241  0.00  0.00    +0.000 A 
ATOM     21  C   UNL     1       1.939   8.519  19.387  0.00  0.00    +0.000 A 
ATOM     22  C   UNL     1       1.990   7.131  19.531  0.00  0.00    +0.000 A 
ATOM     23  C   UNL     1       1.245   6.491  20.528  0.00  0.00    +0.000 A 
ATOM     24  C   UNL     1       0.446   7.265  21.379  0.00  0.00    +0.000 A 
ATOM     25  C   UNL     1       0.398   8.657  21.233  0.00  0.00    +0.000 A 
BRANCH  20  28
ATOM     26  C   UNL     1       1.112  12.825  20.840  0.00  0.00    +0.000 A 
ATOM     27  N   UNL     1       1.186  11.580  21.232  0.00  0.00    +0.000 NA
ATOM     28  C   UNL     1       1.099  10.753  20.118  0.00  0.00    +0.000 A 
ATOM     29  C   UNL     1       0.988  11.423  18.912  0.00  0.00    +0.000 A 
ATOM     30  S   UNL     1       0.961  13.118  19.175  0.00  0.00    +0.000 S 
BRANCH  26  31
ATOM     31  O   UNL     1       1.158  13.786  21.740  0.00  0.00    +0.000 OA
ATOM     32  H   UNL     1       1.283  13.269  22.555  0.00  0.00    +0.000 HD
ENDBRANCH  26  31
ENDBRANCH  20  28
ENDBRANCH  19  23
ENDBRANCH  18  19
ENDBRANCH   1  18
TORSDOF 6
ENDMDL
MODEL 7
REMARK VINA RESULT:      -8.0      4.987     11.128
REMARK  Name = 
REMARK  6 active torsions:
REMARK  status: ('A' for Active; 'I' for Inactive)
REMARK    1  A    between atoms: O_1  and  C_2
REMARK    2  A    between atoms: C_4  and  C_5
REMARK    3  A    between atoms: C_8  and  C_9
REMARK    4  A    between atoms: C_9  and  C_10
REMARK    5  A    between atoms: C_10  and  N_11
REMARK    6  A    between atoms: N_14  and  C_15
REMARK                            x       y       z     vdW  Elec       q    Type
REMARK                         _______ _______ _______ _____ _____    ______ ____
ROOT
ATOM      1  N   UNL     1       1.087  12.294  18.677  0.00  0.00    +0.000 NA
ATOM      2  C   UNL     1      -0.264  11.787  18.339  0.00  0.00    +0.000 C 
ATOM      3  C   UNL     1      -1.128  11.258  19.513  0.00  0.00    +0.000 C 
ATOM      4  N   UNL     1      -1.158  12.270  20.585  0.00  0.00    +0.000 N 
ATOM      5  C   UNL     1       0.200  12.555  21.081  0.00  0.00    +0.000 C 
ATOM      6  C   UNL     1       1.036  13.121  19.909  0.00  0.00    +0.000 C 
ENDROOT
BRANCH   4   7
ATOM      7  C   UNL     1      -2.202  12.318  21.505  0.00  0.00    +0.000 A 
ATOM      8  N   UNL     1      -3.443  12.637  21.064  0.00  0.00    +0.000 NA
ATOM      9  C   UNL     1      -4.434  12.726  21.979  0.00  0.00    +0.000 A 
ATOM     10  C   UNL     1      -5.767  12.728  21.588  0.00  0.00    +0.000 A 
ATOM     11  C   UNL     1      -6.800  12.831  22.524  0.00  0.00    +0.000 A 
ATOM     12  C   UNL     1      -6.495  13.040  23.863  0.00  0.00    +0.000 A 
ATOM     13  C   UNL     1      -5.167  12.995  24.275  0.00  0.00    +0.000 A 
ATOM     14  C   UNL     1      -4.160  12.722  23.362  0.00  0.00    +0.000 A 
ATOM     15  N   UNL     1      -2.972  12.332  23.816  0.00  0.00    +0.000 NA
ATOM     16  C   UNL     1      -2.077  11.968  22.856  0.00  0.00    +0.000 A 
ATOM     17 CL   UNL     1      -1.306  10.468  23.302  0.00  0.00    +0.000 Cl
ENDBRANCH   4   7
BRANCH   1  18
ATOM     18  C   UNL     1       2.125  11.258  18.736  0.00  0.00    +0.000 C 
BRANCH  18  19
ATOM     19  C   UNL     1       1.864  10.124  17.721  0.00  0.00    +0.000 C 
BRANCH  19  23
ATOM     20  C   UNL     1       2.649   6.192  19.364  0.00  0.00    +0.000 A 
ATOM     21  C   UNL     1       3.114   6.544  18.090  0.00  0.00    +0.000 A 
ATOM     22  C   UNL     1       2.854   7.811  17.563  0.00  0.00    +0.000 A 
ATOM     23  C   UNL     1       2.134   8.756  18.301  0.00  0.00    +0.000 A 
ATOM     24  C   UNL     1       1.676   8.411  19.580  0.00  0.00    +0.000 A 
ATOM     25  C   UNL     1       1.936   7.140  20.105  0.00  0.00    +0.000 A 
BRANCH  20  28
ATOM     26  C   UNL     1       3.945   2.953  20.157  0.00  0.00    +0.000 A 
ATOM     27  N   UNL     1       3.961   4.081  19.498  0.00  0.00    +0.000 NA
ATOM     28  C   UNL     1       2.894   4.865  19.925  0.00  0.00    +0.000 A 
ATOM     29  C   UNL     1       2.124   4.293  20.922  0.00  0.00    +0.000 A 
ATOM     30  S   UNL     1       2.723   2.734  21.315  0.00  0.00    +0.000 S 
BRANCH  26  31
ATOM     31  O   UNL     1       4.864   2.045  19.899  0.00  0.00    +0.000 OA
ATOM     32  H   UNL     1       5.674   2.538  20.117  0.00  0.00    +0.000 HD
ENDBRANCH  26  31
ENDBRANCH  20  28
ENDBRANCH  19  23
ENDBRANCH  18  19
ENDBRANCH   1  18
TORSDOF 6
ENDMDL
MODEL 8
REMARK VINA RESULT:      -7.9      4.188      6.061
REMARK  Name = 
REMARK  6 active torsions:
REMARK  status: ('A' for Active; 'I' for Inactive)
REMARK    1  A    between atoms: O_1  and  C_2
REMARK    2  A    between atoms: C_4  and  C_5
REMARK    3  A    between atoms: C_8  and  C_9
REMARK    4  A    between atoms: C_9  and  C_10
REMARK    5  A    between atoms: C_10  and  N_11
REMARK    6  A    between atoms: N_14  and  C_15
REMARK                            x       y       z     vdW  Elec       q    Type
REMARK                         _______ _______ _______ _____ _____    ______ ____
ROOT
ATOM      1  N   UNL     1       0.198   9.733  20.539  0.00  0.00    +0.000 NA
ATOM      2  C   UNL     1       0.395   9.715  19.069  0.00  0.00    +0.000 C 
ATOM      3  C   UNL     1       1.720   9.102  18.548  0.00  0.00    +0.000 C 
ATOM      4  N   UNL     1       1.910   7.772  19.158  0.00  0.00    +0.000 N 
ATOM      5  C   UNL     1       1.974   7.869  20.627  0.00  0.00    +0.000 C 
ATOM      6  C   UNL     1       0.630   8.443  21.134  0.00  0.00    +0.000 C 
ENDROOT
BRANCH   4   7
ATOM      7  C   UNL     1       2.694   6.800  18.544  0.00  0.00    +0.000 A 
ATOM      8  N   UNL     1       3.823   7.187  17.899  0.00  0.00    +0.000 NA
ATOM      9  C   UNL     1       4.545   6.236  17.267  0.00  0.00    +0.000 A 
ATOM     10  C   UNL     1       5.853   6.482  16.867  0.00  0.00    +0.000 A 
ATOM     11  C   UNL     1       6.607   5.511  16.203  0.00  0.00    +0.000 A 
ATOM     12  C   UNL     1       6.011   4.309  15.840  0.00  0.00    +0.000 A 
ATOM     13  C   UNL     1       4.719   4.030  16.273  0.00  0.00    +0.000 A 
ATOM     14  C   UNL     1       4.040   4.933  17.077  0.00  0.00    +0.000 A 
ATOM     15  N   UNL     1       2.983   4.510  17.764  0.00  0.00    +0.000 NA
ATOM     16  C   UNL     1       2.446   5.423  18.621  0.00  0.00    +0.000 A 
ATOM     17 CL   UNL     1       2.138   4.677  20.167  0.00  0.00    +0.000 Cl
ENDBRANCH   4   7
BRANCH   1  18
ATOM     18  C   UNL     1       0.790  10.893  21.215  0.00  0.00    +0.000 C 
BRANCH  18  19
ATOM     19  C   UNL     1       0.176  12.221  20.723  0.00  0.00    +0.000 C 
BRANCH  19  23
ATOM     20  C   UNL     1      -3.964  12.695  21.912  0.00  0.00    +0.000 A 
ATOM     21  C   UNL     1      -3.573  12.880  20.580  0.00  0.00    +0.000 A 
ATOM     22  C   UNL     1      -2.237  12.731  20.202  0.00  0.00    +0.000 A 
ATOM     23  C   UNL     1      -1.265  12.384  21.146  0.00  0.00    +0.000 A 
ATOM     24  C   UNL     1      -1.652  12.188  22.478  0.00  0.00    +0.000 A 
ATOM     25  C   UNL     1      -2.992  12.340  22.854  0.00  0.00    +0.000 A 
BRANCH  20  28
ATOM     26  C   UNL     1      -6.979  13.391  23.707  0.00  0.00    +0.000 A 
ATOM     27  N   UNL     1      -5.678  13.338  23.597  0.00  0.00    +0.000 NA
ATOM     28  C   UNL     1      -5.353  12.865  22.330  0.00  0.00    +0.000 A 
ATOM     29  C   UNL     1      -6.443  12.604  21.518  0.00  0.00    +0.000 A 
ATOM     30  S   UNL     1      -7.903  12.924  22.361  0.00  0.00    +0.000 S 
BRANCH  26  31
ATOM     31  O   UNL     1      -7.513  13.800  24.840  0.00  0.00    +0.000 OA
ATOM     32  H   UNL     1      -8.015  13.009  25.102  0.00  0.00    +0.000 HD
ENDBRANCH  26  31
ENDBRANCH  20  28
ENDBRANCH  19  23
ENDBRANCH  18  19
ENDBRANCH   1  18
TORSDOF 6
ENDMDL
MODEL 9
REMARK VINA RESULT:      -7.9      5.236     11.348
REMARK  Name = 
REMARK  6 active torsions:
REMARK  status: ('A' for Active; 'I' for Inactive)
REMARK    1  A    between atoms: O_1  and  C_2
REMARK    2  A    between atoms: C_4  and  C_5
REMARK    3  A    between atoms: C_8  and  C_9
REMARK    4  A    between atoms: C_9  and  C_10
REMARK    5  A    between atoms: C_10  and  N_11
REMARK    6  A    between atoms: N_14  and  C_15
REMARK                            x       y       z     vdW  Elec       q    Type
REMARK                         _______ _______ _______ _____ _____    ______ ____
ROOT
ATOM      1  N   UNL     1      -0.173   9.019  20.727  0.00  0.00    +0.000 NA
ATOM      2  C   UNL     1      -0.628   8.940  22.136  0.00  0.00    +0.000 C 
ATOM      3  C   UNL     1      -0.521  10.235  22.981  0.00  0.00    +0.000 C 
ATOM      4  N   UNL     1      -1.155  11.346  22.246  0.00  0.00    +0.000 N 
ATOM      5  C   UNL     1      -0.494  11.565  20.948  0.00  0.00    +0.000 C 
ATOM      6  C   UNL     1      -0.645  10.280  20.101  0.00  0.00    +0.000 C 
ENDROOT
BRANCH   4   7
ATOM      7  C   UNL     1      -1.653  12.462  22.911  0.00  0.00    +0.000 A 
ATOM      8  N   UNL     1      -0.787  13.437  23.283  0.00  0.00    +0.000 NA
ATOM      9  C   UNL     1      -1.280  14.490  23.971  0.00  0.00    +0.000 A 
ATOM     10  C   UNL     1      -0.544  15.661  24.106  0.00  0.00    +0.000 A 
ATOM     11  C   UNL     1      -1.039  16.753  24.824  0.00  0.00    +0.000 A 
ATOM     12  C   UNL     1      -2.245  16.638  25.505  0.00  0.00    +0.000 A 
ATOM     13  C   UNL     1      -3.014  15.490  25.342  0.00  0.00    +0.000 A 
ATOM     14  C   UNL     1      -2.591  14.480  24.490  0.00  0.00    +0.000 A 
ATOM     15  N   UNL     1      -3.479  13.582  24.073  0.00  0.00    +0.000 NA
ATOM     16  C   UNL     1      -3.014  12.697  23.147  0.00  0.00    +0.000 A 
ATOM     17 CL   UNL     1      -4.165  12.542  21.845  0.00  0.00    +0.000 Cl
ENDBRANCH   4   7
BRANCH   1  18
ATOM     18  C   UNL     1       1.267   8.804  20.544  0.00  0.00    +0.000 C 
BRANCH  18  19
ATOM     19  C   UNL     1       1.666   7.333  20.792  0.00  0.00    +0.000 C 
BRANCH  19  23
ATOM     20  C   UNL     1       4.224   5.781  17.658  0.00  0.00    +0.000 A 
ATOM     21  C   UNL     1       3.676   7.066  17.567  0.00  0.00    +0.000 A 
ATOM     22  C   UNL     1       2.849   7.561  18.577  0.00  0.00    +0.000 A 
ATOM     23  C   UNL     1       2.559   6.785  19.704  0.00  0.00    +0.000 A 
ATOM     24  C   UNL     1       3.112   5.502  19.804  0.00  0.00    +0.000 A 
ATOM     25  C   UNL     1       3.941   5.007  18.789  0.00  0.00    +0.000 A 
BRANCH  20  28
ATOM     26  C   UNL     1       6.785   5.211  15.226  0.00  0.00    +0.000 A 
ATOM     27  N   UNL     1       6.215   5.910  16.170  0.00  0.00    +0.000 NA
ATOM     28  C   UNL     1       5.077   5.238  16.602  0.00  0.00    +0.000 A 
ATOM     29  C   UNL     1       4.850   4.027  15.971  0.00  0.00    +0.000 A 
ATOM     30  S   UNL     1       6.064   3.736  14.794  0.00  0.00    +0.000 S 
BRANCH  26  31
ATOM     31  O   UNL     1       7.880   5.671  14.656  0.00  0.00    +0.000 OA
ATOM     32  H   UNL     1       8.378   5.975  15.434  0.00  0.00    +0.000 HD
ENDBRANCH  26  31
ENDBRANCH  20  28
ENDBRANCH  19  23
ENDBRANCH  18  19
ENDBRANCH   1  18
TORSDOF 6
ENDMDL
