MODEL 1
REMARK VINA RESULT:      -8.2      0.000      0.000
REMARK  Name = 
REMARK  14 active torsions:
REMARK  status: ('A' for Active; 'I' for Inactive)
REMARK    1  A    between atoms: C_1  and  C_2
REMARK    2  A    between atoms: C_2  and  C_3
REMARK    3  A    between atoms: C_3  and  C_4
REMARK    4  A    between atoms: N_6  and  C_7
REMARK    5  A    between atoms: C_7  and  C_8
REMARK    6  A    between atoms: C_11  and  C_12
REMARK    7  A    between atoms: C_12  and  O_14
REMARK    8  A    between atoms: C_16  and  O_17
REMARK    9  A    between atoms: O_17  and  C_18
REMARK   10  A    between atoms: C_21  and  C_22
REMARK   11  A    between atoms: N_24  and  C_25
REMARK   12  A    between atoms: C_25  and  C_26
REMARK   13  A    between atoms: C_26  and  C_27
REMARK   14  A    between atoms: C_26  and  C_28
REMARK                            x       y       z     vdW  Elec       q    Type
REMARK                         _______ _______ _______ _____ _____    ______ ____
ROOT
ATOM      1  C   UNL     1       1.488   4.427  19.912  0.00  0.00    +0.000 A 
ATOM      2  C   UNL     1       1.365   5.717  20.390  0.00  0.00    +0.000 A 
ATOM      3  N   UNL     1       2.251   6.520  19.719  0.00  0.00    +0.000 N 
ATOM      4  C   UNL     1       2.937   5.779  18.776  0.00  0.00    +0.000 A 
ATOM      5  C   UNL     1       3.889   6.162  17.808  0.00  0.00    +0.000 A 
ATOM      6  C   UNL     1       4.371   5.187  16.922  0.00  0.00    +0.000 A 
ATOM      7  C   UNL     1       3.926   3.866  17.013  0.00  0.00    +0.000 A 
ATOM      8  C   UNL     1       2.990   3.494  17.989  0.00  0.00    +0.000 A 
ATOM      9  C   UNL     1       2.470   4.467  18.876  0.00  0.00    +0.000 A 
ENDROOT
BRANCH   6  10
ATOM     10  C   UNL     1       5.325   5.621  15.858  0.00  0.00    +0.000 C 
ATOM     11  O   UNL     1       5.562   6.808  15.689  0.00  0.00    +0.000 OA
ATOM     12  N   UNL     1       5.917   4.609  15.130  0.00  0.00    +0.000 N 
ATOM     13  H   UNL     1       5.816   3.654  15.442  0.00  0.00    +0.000 HD
BRANCH  12  14
ATOM     14  C   UNL     1       6.903   4.875  14.100  0.00  0.00    +0.000 C 
BRANCH  14  15
ATOM     15  C   UNL     1       6.775   3.934  12.892  0.00  0.00    +0.000 C 
ATOM     16  C   UNL     1       5.328   3.487  12.668  0.00  0.00    +0.000 C 
ATOM     17  C   UNL     1       7.302   4.628  11.636  0.00  0.00    +0.000 C 
ENDBRANCH  14  15
ENDBRANCH  12  14
ENDBRANCH   6  10
BRANCH   1  18
ATOM     18  C   UNL     1       0.718   3.240  20.397  0.00  0.00    +0.000 C 
BRANCH  18  20
ATOM     19  C   UNL     1       2.841   2.597  21.588  0.00  0.00    +0.000 C 
ATOM     20  C   UNL     1       1.322   2.620  21.658  0.00  0.00    +0.000 C 
ENDBRANCH  18  20
ENDBRANCH   1  18
BRANCH   3  21
ATOM     21  C   UNL     1       2.439   7.946  20.027  0.00  0.00    +0.000 C 
BRANCH  21  22
ATOM     22  C   UNL     1       1.247   8.840  19.736  0.00  0.00    +0.000 A 
ATOM     23  C   UNL     1       1.108   9.360  18.426  0.00  0.00    +0.000 A 
ATOM     24  C   UNL     1       0.196  10.362  18.101  0.00  0.00    +0.000 A 
ATOM     25  C   UNL     1      -0.636  10.872  19.084  0.00  0.00    +0.000 A 
ATOM     26  C   UNL     1      -0.597  10.310  20.361  0.00  0.00    +0.000 A 
ATOM     27  C   UNL     1       0.342   9.312  20.709  0.00  0.00    +0.000 A 
BRANCH  25  28
ATOM     28  C   UNL     1      -1.526  12.000  18.712  0.00  0.00    +0.000 C 
ATOM     29  O   UNL     1      -2.267  12.548  19.511  0.00  0.00    +0.000 OA
BRANCH  28  30
ATOM     30  O   UNL     1      -1.495  12.317  17.401  0.00  0.00    +0.000 OA
ATOM     31  H   UNL     1      -0.797  11.876  16.884  0.00  0.00    +0.000 HD
ENDBRANCH  28  30
ENDBRANCH  25  28
BRANCH  27  32
ATOM     32  O   UNL     1       0.203   9.001  22.032  0.00  0.00    +0.000 OA
ATOM     33  C   UNL     1      -0.481   9.829  22.951  0.00  0.00    +0.000 C 
ENDBRANCH  27  32
ENDBRANCH  21  22
ENDBRANCH   3  21
TORSDOF 10
ENDMDL
MODEL 2
REMARK VINA RESULT:      -7.9      0.960      1.122
REMARK  Name = 
REMARK  14 active torsions:
REMARK  status: ('A' for Active; 'I' for Inactive)
REMARK    1  A    between atoms: C_1  and  C_2
REMARK    2  A    between atoms: C_2  and  C_3
REMARK    3  A    between atoms: C_3  and  C_4
REMARK    4  A    between atoms: N_6  and  C_7
REMARK    5  A    between atoms: C_7  and  C_8
REMARK    6  A    between atoms: C_11  and  C_12
REMARK    7  A    between atoms: C_12  and  O_14
REMARK    8  A    between atoms: C_16  and  O_17
REMARK    9  A    between atoms: O_17  and  C_18
REMARK   10  A    between atoms: C_21  and  C_22
REMARK   11  A    between atoms: N_24  and  C_25
REMARK   12  A    between atoms: C_25  and  C_26
REMARK   13  A    between atoms: C_26  and  C_27
REMARK   14  A    between atoms: C_26  and  C_28
REMARK                            x       y       z     vdW  Elec       q    Type
REMARK                         _______ _______ _______ _____ _____    ______ ____
ROOT
ATOM      1  C   UNL     1       1.735   4.312  19.235  0.00  0.00    +0.000 A 
ATOM      2  C   UNL     1       1.641   5.655  19.541  0.00  0.00    +0.000 A 
ATOM      3  N   UNL     1       2.595   6.336  18.830  0.00  0.00    +0.000 N 
ATOM      4  C   UNL     1       3.300   5.458  18.027  0.00  0.00    +0.000 A 
ATOM      5  C   UNL     1       4.317   5.682  17.078  0.00  0.00    +0.000 A 
ATOM      6  C   UNL     1       4.805   4.587  16.348  0.00  0.00    +0.000 A 
ATOM      7  C   UNL     1       4.300   3.305  16.575  0.00  0.00    +0.000 A 
ATOM      8  C   UNL     1       3.298   3.092  17.533  0.00  0.00    +0.000 A 
ATOM      9  C   UNL     1       2.773   4.186  18.261  0.00  0.00    +0.000 A 
ENDROOT
BRANCH   6  10
ATOM     10  C   UNL     1       5.833   4.849  15.298  0.00  0.00    +0.000 C 
ATOM     11  O   UNL     1       6.647   5.750  15.442  0.00  0.00    +0.000 OA
ATOM     12  N   UNL     1       5.809   4.006  14.206  0.00  0.00    +0.000 N 
ATOM     13  H   UNL     1       5.234   3.177  14.238  0.00  0.00    +0.000 HD
BRANCH  12  14
ATOM     14  C   UNL     1       6.778   4.106  13.132  0.00  0.00    +0.000 C 
BRANCH  14  15
ATOM     15  C   UNL     1       6.273   3.504  11.812  0.00  0.00    +0.000 C 
ATOM     16  C   UNL     1       6.962   2.176  11.489  0.00  0.00    +0.000 C 
ATOM     17  C   UNL     1       4.760   3.298  11.882  0.00  0.00    +0.000 C 
ENDBRANCH  14  15
ENDBRANCH  12  14
ENDBRANCH   6  10
BRANCH   1  18
ATOM     18  C   UNL     1       0.890   3.223  19.816  0.00  0.00    +0.000 C 
BRANCH  18  20
ATOM     19  C   UNL     1       2.166   3.132  21.984  0.00  0.00    +0.000 C 
ATOM     20  C   UNL     1       1.663   2.334  20.792  0.00  0.00    +0.000 C 
ENDBRANCH  18  20
ENDBRANCH   1  18
BRANCH   3  21
ATOM     21  C   UNL     1       2.827   7.781  18.970  0.00  0.00    +0.000 C 
BRANCH  21  22
ATOM     22  C   UNL     1       1.578   8.644  18.987  0.00  0.00    +0.000 A 
ATOM     23  C   UNL     1       1.200   9.293  17.786  0.00  0.00    +0.000 A 
ATOM     24  C   UNL     1       0.218  10.280  17.736  0.00  0.00    +0.000 A 
ATOM     25  C   UNL     1      -0.446  10.644  18.896  0.00  0.00    +0.000 A 
ATOM     26  C   UNL     1      -0.171   9.951  20.076  0.00  0.00    +0.000 A 
ATOM     27  C   UNL     1       0.843   8.967  20.146  0.00  0.00    +0.000 A 
BRANCH  25  28
ATOM     28  C   UNL     1      -1.418  11.761  18.809  0.00  0.00    +0.000 C 
ATOM     29  O   UNL     1      -2.247  11.984  19.675  0.00  0.00    +0.000 OA
BRANCH  28  30
ATOM     30  O   UNL     1      -1.349  12.463  17.659  0.00  0.00    +0.000 OA
ATOM     31  H   UNL     1      -2.103  12.342  17.053  0.00  0.00    +0.000 HD
ENDBRANCH  28  30
ENDBRANCH  25  28
BRANCH  27  32
ATOM     32  O   UNL     1       0.943   8.511  21.430  0.00  0.00    +0.000 OA
ATOM     33  C   UNL     1       1.088   9.369  22.543  0.00  0.00    +0.000 C 
ENDBRANCH  27  32
ENDBRANCH  21  22
ENDBRANCH   3  21
TORSDOF 10
ENDMDL
MODEL 3
REMARK VINA RESULT:      -7.8      1.409      2.588
REMARK  Name = 
REMARK  14 active torsions:
REMARK  status: ('A' for Active; 'I' for Inactive)
REMARK    1  A    between atoms: C_1  and  C_2
REMARK    2  A    between atoms: C_2  and  C_3
REMARK    3  A    between atoms: C_3  and  C_4
REMARK    4  A    between atoms: N_6  and  C_7
REMARK    5  A    between atoms: C_7  and  C_8
REMARK    6  A    between atoms: C_11  and  C_12
REMARK    7  A    between atoms: C_12  and  O_14
REMARK    8  A    between atoms: C_16  and  O_17
REMARK    9  A    between atoms: O_17  and  C_18
REMARK   10  A    between atoms: C_21  and  C_22
REMARK   11  A    between atoms: N_24  and  C_25
REMARK   12  A    between atoms: C_25  and  C_26
REMARK   13  A    between atoms: C_26  and  C_27
REMARK   14  A    between atoms: C_26  and  C_28
REMARK                            x       y       z     vdW  Elec       q    Type
REMARK                         _______ _______ _______ _____ _____    ______ ____
ROOT
ATOM      1  C   UNL     1       1.685   4.202  19.106  0.00  0.00    +0.000 A 
ATOM      2  C   UNL     1       1.417   5.556  19.087  0.00  0.00    +0.000 A 
ATOM      3  N   UNL     1       2.371   6.182  18.327  0.00  0.00    +0.000 N 
ATOM      4  C   UNL     1       3.251   5.249  17.814  0.00  0.00    +0.000 A 
ATOM      5  C   UNL     1       4.344   5.388  16.934  0.00  0.00    +0.000 A 
ATOM      6  C   UNL     1       5.024   4.233  16.522  0.00  0.00    +0.000 A 
ATOM      7  C   UNL     1       4.632   2.976  16.991  0.00  0.00    +0.000 A 
ATOM      8  C   UNL     1       3.553   2.851  17.877  0.00  0.00    +0.000 A 
ATOM      9  C   UNL     1       2.836   4.001  18.285  0.00  0.00    +0.000 A 
ENDROOT
BRANCH   6  10
ATOM     10  C   UNL     1       6.135   4.389  15.536  0.00  0.00    +0.000 C 
ATOM     11  O   UNL     1       7.240   4.759  15.906  0.00  0.00    +0.000 OA
ATOM     12  N   UNL     1       5.831   4.068  14.230  0.00  0.00    +0.000 N 
ATOM     13  H   UNL     1       4.960   3.598  14.027  0.00  0.00    +0.000 HD
BRANCH  12  14
ATOM     14  C   UNL     1       6.822   4.120  13.172  0.00  0.00    +0.000 C 
BRANCH  14  15
ATOM     15  C   UNL     1       6.310   3.545  11.842  0.00  0.00    +0.000 C 
ATOM     16  C   UNL     1       7.005   2.228  11.486  0.00  0.00    +0.000 C 
ATOM     17  C   UNL     1       4.798   3.328  11.919  0.00  0.00    +0.000 C 
ENDBRANCH  14  15
ENDBRANCH  12  14
ENDBRANCH   6  10
BRANCH   1  18
ATOM     18  C   UNL     1       0.896   3.167  19.843  0.00  0.00    +0.000 C 
BRANCH  18  20
ATOM     19  C   UNL     1       2.616   2.514  21.561  0.00  0.00    +0.000 C 
ATOM     20  C   UNL     1       1.238   3.115  21.333  0.00  0.00    +0.000 C 
ENDBRANCH  18  20
ENDBRANCH   1  18
BRANCH   3  21
ATOM     21  C   UNL     1       2.433   7.641  18.152  0.00  0.00    +0.000 C 
BRANCH  21  22
ATOM     22  C   UNL     1       1.730   8.457  19.221  0.00  0.00    +0.000 A 
ATOM     23  C   UNL     1       2.052   8.200  20.577  0.00  0.00    +0.000 A 
ATOM     24  C   UNL     1       1.316   8.716  21.641  0.00  0.00    +0.000 A 
ATOM     25  C   UNL     1       0.230   9.536  21.387  0.00  0.00    +0.000 A 
ATOM     26  C   UNL     1      -0.053   9.893  20.067  0.00  0.00    +0.000 A 
ATOM     27  C   UNL     1       0.669   9.354  18.977  0.00  0.00    +0.000 A 
BRANCH  25  28
ATOM     28  C   UNL     1      -0.577   9.988  22.547  0.00  0.00    +0.000 C 
ATOM     29  O   UNL     1      -1.197  11.038  22.553  0.00  0.00    +0.000 OA
BRANCH  28  30
ATOM     30  O   UNL     1      -0.507   9.170  23.619  0.00  0.00    +0.000 OA
ATOM     31  H   UNL     1      -0.908   9.520  24.434  0.00  0.00    +0.000 HD
ENDBRANCH  28  30
ENDBRANCH  25  28
BRANCH  27  32
ATOM     32  O   UNL     1       0.135   9.817  17.807  0.00  0.00    +0.000 OA
ATOM     33  C   UNL     1      -1.213  10.218  17.681  0.00  0.00    +0.000 C 
ENDBRANCH  27  32
ENDBRANCH  21  22
ENDBRANCH   3  21
TORSDOF 10
ENDMDL
MODEL 4
REMARK VINA RESULT:      -7.6      1.678      2.071
REMARK  Name = 
REMARK  14 active torsions:
REMARK  status: ('A' for Active; 'I' for Inactive)
REMARK    1  A    between atoms: C_1  and  C_2
REMARK    2  A    between atoms: C_2  and  C_3
REMARK    3  A    between atoms: C_3  and  C_4
REMARK    4  A    between atoms: N_6  and  C_7
REMARK    5  A    between atoms: C_7  and  C_8
REMARK    6  A    between atoms: C_11  and  C_12
REMARK    7  A    between atoms: C_12  and  O_14
REMARK    8  A    between atoms: C_16  and  O_17
REMARK    9  A    between atoms: O_17  and  C_18
REMARK   10  A    between atoms: C_21  and  C_22
REMARK   11  A    between atoms: N_24  and  C_25
REMARK   12  A    between atoms: C_25  and  C_26
REMARK   13  A    between atoms: C_26  and  C_27
REMARK   14  A    between atoms: C_26  and  C_28
REMARK                            x       y       z     vdW  Elec       q    Type
REMARK                         _______ _______ _______ _____ _____    ______ ____
ROOT
ATOM      1  C   UNL     1       2.470   5.836  19.878  0.00  0.00    +0.000 A 
ATOM      2  C   UNL     1       2.043   7.107  19.551  0.00  0.00    +0.000 A 
ATOM      3  N   UNL     1       2.716   7.522  18.431  0.00  0.00    +0.000 N 
ATOM      4  C   UNL     1       3.562   6.522  17.992  0.00  0.00    +0.000 A 
ATOM      5  C   UNL     1       4.400   6.445  16.861  0.00  0.00    +0.000 A 
ATOM      6  C   UNL     1       5.104   5.254  16.628  0.00  0.00    +0.000 A 
ATOM      7  C   UNL     1       4.984   4.178  17.511  0.00  0.00    +0.000 A 
ATOM      8  C   UNL     1       4.159   4.271  18.642  0.00  0.00    +0.000 A 
ATOM      9  C   UNL     1       3.420   5.454  18.881  0.00  0.00    +0.000 A 
ENDROOT
BRANCH   6  10
ATOM     10  C   UNL     1       5.933   5.162  15.390  0.00  0.00    +0.000 C 
ATOM     11  O   UNL     1       6.971   5.800  15.294  0.00  0.00    +0.000 OA
ATOM     12  N   UNL     1       5.464   4.309  14.412  0.00  0.00    +0.000 N 
ATOM     13  H   UNL     1       4.705   3.680  14.630  0.00  0.00    +0.000 HD
BRANCH  12  14
ATOM     14  C   UNL     1       6.189   4.078  13.177  0.00  0.00    +0.000 C 
BRANCH  14  15
ATOM     15  C   UNL     1       5.592   2.939  12.337  0.00  0.00    +0.000 C 
ATOM     16  C   UNL     1       4.418   3.418  11.479  0.00  0.00    +0.000 C 
ATOM     17  C   UNL     1       6.673   2.332  11.442  0.00  0.00    +0.000 C 
ENDBRANCH  14  15
ENDBRANCH  12  14
ENDBRANCH   6  10
BRANCH   1  18
ATOM     18  C   UNL     1       2.002   5.031  21.048  0.00  0.00    +0.000 C 
BRANCH  18  20
ATOM     19  C   UNL     1       0.714   3.234  19.844  0.00  0.00    +0.000 C 
ATOM     20  C   UNL     1       1.907   3.537  20.737  0.00  0.00    +0.000 C 
ENDBRANCH  18  20
ENDBRANCH   1  18
BRANCH   3  21
ATOM     21  C   UNL     1       2.559   8.863  17.847  0.00  0.00    +0.000 C 
BRANCH  21  22
ATOM     22  C   UNL     1       1.226   9.540  18.114  0.00  0.00    +0.000 A 
ATOM     23  C   UNL     1       0.070   9.001  17.498  0.00  0.00    +0.000 A 
ATOM     24  C   UNL     1      -1.157   9.660  17.483  0.00  0.00    +0.000 A 
ATOM     25  C   UNL     1      -1.280  10.890  18.109  0.00  0.00    +0.000 A 
ATOM     26  C   UNL     1      -0.188  11.401  18.813  0.00  0.00    +0.000 A 
ATOM     27  C   UNL     1       1.070  10.754  18.813  0.00  0.00    +0.000 A 
BRANCH  25  28
ATOM     28  C   UNL     1      -2.579  11.595  17.989  0.00  0.00    +0.000 C 
ATOM     29  O   UNL     1      -3.310  11.474  17.020  0.00  0.00    +0.000 OA
BRANCH  28  30
ATOM     30  O   UNL     1      -2.848  12.434  19.011  0.00  0.00    +0.000 OA
ATOM     31  H   UNL     1      -3.192  12.008  19.817  0.00  0.00    +0.000 HD
ENDBRANCH  28  30
ENDBRANCH  25  28
BRANCH  27  32
ATOM     32  O   UNL     1       1.966  11.508  19.516  0.00  0.00    +0.000 OA
ATOM     33  C   UNL     1       1.932  12.920  19.544  0.00  0.00    +0.000 C 
ENDBRANCH  27  32
ENDBRANCH  21  22
ENDBRANCH   3  21
TORSDOF 10
ENDMDL
MODEL 5
REMARK VINA RESULT:      -7.5      1.135      1.422
REMARK  Name = 
REMARK  14 active torsions:
REMARK  status: ('A' for Active; 'I' for Inactive)
REMARK    1  A    between atoms: C_1  and  C_2
REMARK    2  A    between atoms: C_2  and  C_3
REMARK    3  A    between atoms: C_3  and  C_4
REMARK    4  A    between atoms: N_6  and  C_7
REMARK    5  A    between atoms: C_7  and  C_8
REMARK    6  A    between atoms: C_11  and  C_12
REMARK    7  A    between atoms: C_12  and  O_14
REMARK    8  A    between atoms: C_16  and  O_17
REMARK    9  A    between atoms: O_17  and  C_18
REMARK   10  A    between atoms: C_21  and  C_22
REMARK   11  A    between atoms: N_24  and  C_25
REMARK   12  A    between atoms: C_25  and  C_26
REMARK   13  A    between atoms: C_26  and  C_27
REMARK   14  A    between atoms: C_26  and  C_28
REMARK                            x       y       z     vdW  Elec       q    Type
REMARK                         _______ _______ _______ _____ _____    ______ ____
ROOT
ATOM      1  C   UNL     1       2.322   5.122  19.840  0.00  0.00    +0.000 A 
ATOM      2  C   UNL     1       1.926   6.434  19.678  0.00  0.00    +0.000 A 
ATOM      3  N   UNL     1       2.725   7.021  18.731  0.00  0.00    +0.000 N 
ATOM      4  C   UNL     1       3.627   6.097  18.238  0.00  0.00    +0.000 A 
ATOM      5  C   UNL     1       4.596   6.199  17.219  0.00  0.00    +0.000 A 
ATOM      6  C   UNL     1       5.333   5.054  16.879  0.00  0.00    +0.000 A 
ATOM      7  C   UNL     1       5.118   3.849  17.552  0.00  0.00    +0.000 A 
ATOM      8  C   UNL     1       4.162   3.764  18.575  0.00  0.00    +0.000 A 
ATOM      9  C   UNL     1       3.388   4.899  18.915  0.00  0.00    +0.000 A 
ENDROOT
BRANCH   6  10
ATOM     10  C   UNL     1       6.306   5.158  15.751  0.00  0.00    +0.000 C 
ATOM     11  O   UNL     1       7.281   5.891  15.843  0.00  0.00    +0.000 OA
ATOM     12  N   UNL     1       6.041   4.370  14.651  0.00  0.00    +0.000 N 
ATOM     13  H   UNL     1       5.327   3.658  14.716  0.00  0.00    +0.000 HD
BRANCH  12  14
ATOM     14  C   UNL     1       6.924   4.326  13.502  0.00  0.00    +0.000 C 
BRANCH  14  15
ATOM     15  C   UNL     1       6.228   3.816  12.231  0.00  0.00    +0.000 C 
ATOM     16  C   UNL     1       6.925   2.581  11.654  0.00  0.00    +0.000 C 
ATOM     17  C   UNL     1       4.766   3.490  12.535  0.00  0.00    +0.000 C 
ENDBRANCH  14  15
ENDBRANCH  12  14
ENDBRANCH   6  10
BRANCH   1  18
ATOM     18  C   UNL     1       1.724   4.141  20.797  0.00  0.00    +0.000 C 
BRANCH  18  20
ATOM     19  C   UNL     1       0.509   2.842  19.015  0.00  0.00    +0.000 C 
ATOM     20  C   UNL     1       1.497   2.765  20.168  0.00  0.00    +0.000 C 
ENDBRANCH  18  20
ENDBRANCH   1  18
BRANCH   3  21
ATOM     21  C   UNL     1       2.627   8.441  18.361  0.00  0.00    +0.000 C 
BRANCH  21  22
ATOM     22  C   UNL     1       1.299   9.107  18.672  0.00  0.00    +0.000 A 
ATOM     23  C   UNL     1       0.441   9.420  17.589  0.00  0.00    +0.000 A 
ATOM     24  C   UNL     1      -0.686  10.228  17.725  0.00  0.00    +0.000 A 
ATOM     25  C   UNL     1      -1.013  10.741  18.969  0.00  0.00    +0.000 A 
ATOM     26  C   UNL     1      -0.248  10.368  20.076  0.00  0.00    +0.000 A 
ATOM     27  C   UNL     1       0.914   9.572  19.947  0.00  0.00    +0.000 A 
BRANCH  25  28
ATOM     28  C   UNL     1      -2.169  11.668  19.048  0.00  0.00    +0.000 C 
ATOM     29  O   UNL     1      -2.698  11.977  20.102  0.00  0.00    +0.000 OA
BRANCH  28  30
ATOM     30  O   UNL     1      -2.624  12.083  17.848  0.00  0.00    +0.000 OA
ATOM     31  H   UNL     1      -2.393  12.999  17.610  0.00  0.00    +0.000 HD
ENDBRANCH  28  30
ENDBRANCH  25  28
BRANCH  27  32
ATOM     32  O   UNL     1       1.501   9.426  21.171  0.00  0.00    +0.000 OA
ATOM     33  C   UNL     1       0.765   9.339  22.374  0.00  0.00    +0.000 C 
ENDBRANCH  27  32
ENDBRANCH  21  22
ENDBRANCH   3  21
TORSDOF 10
ENDMDL
MODEL 6
REMARK VINA RESULT:      -7.3      1.409      2.457
REMARK  Name = 
REMARK  14 active torsions:
REMARK  status: ('A' for Active; 'I' for Inactive)
REMARK    1  A    between atoms: C_1  and  C_2
REMARK    2  A    between atoms: C_2  and  C_3
REMARK    3  A    between atoms: C_3  and  C_4
REMARK    4  A    between atoms: N_6  and  C_7
REMARK    5  A    between atoms: C_7  and  C_8
REMARK    6  A    between atoms: C_11  and  C_12
REMARK    7  A    between atoms: C_12  and  O_14
REMARK    8  A    between atoms: C_16  and  O_17
REMARK    9  A    between atoms: O_17  and  C_18
REMARK   10  A    between atoms: C_21  and  C_22
REMARK   11  A    between atoms: N_24  and  C_25
REMARK   12  A    between atoms: C_25  and  C_26
REMARK   13  A    between atoms: C_26  and  C_27
REMARK   14  A    between atoms: C_26  and  C_28
REMARK                            x       y       z     vdW  Elec       q    Type
REMARK                         _______ _______ _______ _____ _____    ______ ____
ROOT
ATOM      1  C   UNL     1       2.589   5.158  20.225  0.00  0.00    +0.000 A 
ATOM      2  C   UNL     1       1.898   6.299  19.872  0.00  0.00    +0.000 A 
ATOM      3  N   UNL     1       2.551   6.903  18.828  0.00  0.00    +0.000 N 
ATOM      4  C   UNL     1       3.653   6.152  18.464  0.00  0.00    +0.000 A 
ATOM      5  C   UNL     1       4.586   6.318  17.421  0.00  0.00    +0.000 A 
ATOM      6  C   UNL     1       5.577   5.340  17.246  0.00  0.00    +0.000 A 
ATOM      7  C   UNL     1       5.640   4.237  18.101  0.00  0.00    +0.000 A 
ATOM      8  C   UNL     1       4.715   4.090  19.145  0.00  0.00    +0.000 A 
ATOM      9  C   UNL     1       3.692   5.051  19.323  0.00  0.00    +0.000 A 
ENDROOT
BRANCH   6  10
ATOM     10  C   UNL     1       6.515   5.493  16.095  0.00  0.00    +0.000 C 
ATOM     11  O   UNL     1       7.462   6.263  16.169  0.00  0.00    +0.000 OA
ATOM     12  N   UNL     1       6.254   4.704  14.994  0.00  0.00    +0.000 N 
ATOM     13  H   UNL     1       5.570   3.964  15.070  0.00  0.00    +0.000 HD
BRANCH  12  14
ATOM     14  C   UNL     1       7.108   4.706  13.822  0.00  0.00    +0.000 C 
BRANCH  14  15
ATOM     15  C   UNL     1       6.396   4.192  12.561  0.00  0.00    +0.000 C 
ATOM     16  C   UNL     1       7.228   3.137  11.827  0.00  0.00    +0.000 C 
ATOM     17  C   UNL     1       5.035   3.607  12.936  0.00  0.00    +0.000 C 
ENDBRANCH  14  15
ENDBRANCH  12  14
ENDBRANCH   6  10
BRANCH   1  18
ATOM     18  C   UNL     1       2.223   4.224  21.335  0.00  0.00    +0.000 C 
BRANCH  18  20
ATOM     19  C   UNL     1       0.797   2.869  19.764  0.00  0.00    +0.000 C 
ATOM     20  C   UNL     1       1.875   2.821  20.835  0.00  0.00    +0.000 C 
ENDBRANCH  18  20
ENDBRANCH   1  18
BRANCH   3  21
ATOM     21  C   UNL     1       2.129   8.186  18.247  0.00  0.00    +0.000 C 
BRANCH  21  22
ATOM     22  C   UNL     1       1.369   9.109  19.183  0.00  0.00    +0.000 A 
ATOM     23  C   UNL     1       1.790   9.181  20.534  0.00  0.00    +0.000 A 
ATOM     24  C   UNL     1       1.042   9.808  21.527  0.00  0.00    +0.000 A 
ATOM     25  C   UNL     1      -0.161  10.411  21.199  0.00  0.00    +0.000 A 
ATOM     26  C   UNL     1      -0.555  10.447  19.860  0.00  0.00    +0.000 A 
ATOM     27  C   UNL     1       0.182   9.792  18.847  0.00  0.00    +0.000 A 
BRANCH  25  28
ATOM     28  C   UNL     1      -0.966  10.986  22.305  0.00  0.00    +0.000 C 
ATOM     29  O   UNL     1      -0.852  10.623  23.463  0.00  0.00    +0.000 OA
BRANCH  28  30
ATOM     30  O   UNL     1      -1.880  11.895  21.906  0.00  0.00    +0.000 OA
ATOM     31  H   UNL     1      -2.401  11.643  21.122  0.00  0.00    +0.000 HD
ENDBRANCH  28  30
ENDBRANCH  25  28
BRANCH  27  32
ATOM     32  O   UNL     1      -0.468   9.929  17.653  0.00  0.00    +0.000 OA
ATOM     33  C   UNL     1      -1.847  10.216  17.555  0.00  0.00    +0.000 C 
ENDBRANCH  27  32
ENDBRANCH  21  22
ENDBRANCH   3  21
TORSDOF 10
ENDMDL
MODEL 7
REMARK VINA RESULT:      -7.2      2.476      8.965
REMARK  Name = 
REMARK  14 active torsions:
REMARK  status: ('A' for Active; 'I' for Inactive)
REMARK    1  A    between atoms: C_1  and  C_2
REMARK    2  A    between atoms: C_2  and  C_3
REMARK    3  A    between atoms: C_3  and  C_4
REMARK    4  A    between atoms: N_6  and  C_7
REMARK    5  A    between atoms: C_7  and  C_8
REMARK    6  A    between atoms: C_11  and  C_12
REMARK    7  A    between atoms: C_12  and  O_14
REMARK    8  A    between atoms: C_16  and  O_17
REMARK    9  A    between atoms: O_17  and  C_18
REMARK   10  A    between atoms: C_21  and  C_22
REMARK   11  A    between atoms: N_24  and  C_25
REMARK   12  A    between atoms: C_25  and  C_26
REMARK   13  A    between atoms: C_26  and  C_27
REMARK   14  A    between atoms: C_26  and  C_28
REMARK                            x       y       z     vdW  Elec       q    Type
REMARK                         _______ _______ _______ _____ _____    ______ ____
ROOT
ATOM      1  C   UNL     1       4.580   3.972  18.809  0.00  0.00    +0.000 A 
ATOM      2  C   UNL     1       5.597   4.201  17.903  0.00  0.00    +0.000 A 
ATOM      3  N   UNL     1       5.389   5.418  17.307  0.00  0.00    +0.000 N 
ATOM      4  C   UNL     1       4.260   6.014  17.836  0.00  0.00    +0.000 A 
ATOM      5  C   UNL     1       3.681   7.278  17.600  0.00  0.00    +0.000 A 
ATOM      6  C   UNL     1       2.554   7.648  18.348  0.00  0.00    +0.000 A 
ATOM      7  C   UNL     1       2.012   6.771  19.292  0.00  0.00    +0.000 A 
ATOM      8  C   UNL     1       2.587   5.510  19.507  0.00  0.00    +0.000 A 
ATOM      9  C   UNL     1       3.741   5.128  18.782  0.00  0.00    +0.000 A 
ENDROOT
BRANCH   6  10
ATOM     10  C   UNL     1       1.993   9.016  18.138  0.00  0.00    +0.000 C 
ATOM     11  O   UNL     1       2.384   9.706  17.208  0.00  0.00    +0.000 OA
ATOM     12  N   UNL     1       1.016   9.411  19.029  0.00  0.00    +0.000 N 
ATOM     13  H   UNL     1       0.615   8.728  19.655  0.00  0.00    +0.000 HD
BRANCH  12  14
ATOM     14  C   UNL     1       0.344  10.691  18.918  0.00  0.00    +0.000 C 
BRANCH  14  15
ATOM     15  C   UNL     1      -0.800  10.856  19.931  0.00  0.00    +0.000 C 
ATOM     16  C   UNL     1      -0.340  10.569  21.363  0.00  0.00    +0.000 C 
ATOM     17  C   UNL     1      -1.369  12.272  19.845  0.00  0.00    +0.000 C 
ENDBRANCH  14  15
ENDBRANCH  12  14
ENDBRANCH   6  10
BRANCH   1  18
ATOM     18  C   UNL     1       4.421   2.747  19.651  0.00  0.00    +0.000 C 
BRANCH  18  20
ATOM     19  C   UNL     1       2.099   1.899  19.176  0.00  0.00    +0.000 C 
ATOM     20  C   UNL     1       3.586   1.664  18.966  0.00  0.00    +0.000 C 
ENDBRANCH  18  20
ENDBRANCH   1  18
BRANCH   3  21
ATOM     21  C   UNL     1       6.245   5.947  16.235  0.00  0.00    +0.000 C 
BRANCH  21  22
ATOM     22  C   UNL     1       6.153   5.217  14.907  0.00  0.00    +0.000 A 
ATOM     23  C   UNL     1       4.997   4.438  14.652  0.00  0.00    +0.000 A 
ATOM     24  C   UNL     1       4.902   3.552  13.582  0.00  0.00    +0.000 A 
ATOM     25  C   UNL     1       5.965   3.425  12.703  0.00  0.00    +0.000 A 
ATOM     26  C   UNL     1       7.077   4.253  12.865  0.00  0.00    +0.000 A 
ATOM     27  C   UNL     1       7.197   5.137  13.962  0.00  0.00    +0.000 A 
BRANCH  25  28
ATOM     28  C   UNL     1       5.853   2.404  11.632  0.00  0.00    +0.000 C 
ATOM     29  O   UNL     1       4.810   2.174  11.045  0.00  0.00    +0.000 OA
BRANCH  28  30
ATOM     30  O   UNL     1       6.987   1.707  11.415  0.00  0.00    +0.000 OA
ATOM     31  H   UNL     1       7.006   1.191  10.589  0.00  0.00    +0.000 HD
ENDBRANCH  28  30
ENDBRANCH  25  28
BRANCH  27  32
ATOM     32  O   UNL     1       8.410   5.763  13.909  0.00  0.00    +0.000 OA
ATOM     33  C   UNL     1       9.022   6.156  12.697  0.00  0.00    +0.000 C 
ENDBRANCH  27  32
ENDBRANCH  21  22
ENDBRANCH   3  21
TORSDOF 10
ENDMDL
MODEL 8
REMARK VINA RESULT:      -7.2      1.555      2.550
REMARK  Name = 
REMARK  14 active torsions:
REMARK  status: ('A' for Active; 'I' for Inactive)
REMARK    1  A    between atoms: C_1  and  C_2
REMARK    2  A    between atoms: C_2  and  C_3
REMARK    3  A    between atoms: C_3  and  C_4
REMARK    4  A    between atoms: N_6  and  C_7
REMARK    5  A    between atoms: C_7  and  C_8
REMARK    6  A    between atoms: C_11  and  C_12
REMARK    7  A    between atoms: C_12  and  O_14
REMARK    8  A    between atoms: C_16  and  O_17
REMARK    9  A    between atoms: O_17  and  C_18
REMARK   10  A    between atoms: C_21  and  C_22
REMARK   11  A    between atoms: N_24  and  C_25
REMARK   12  A    between atoms: C_25  and  C_26
REMARK   13  A    between atoms: C_26  and  C_27
REMARK   14  A    between atoms: C_26  and  C_28
REMARK                            x       y       z     vdW  Elec       q    Type
REMARK                         _______ _______ _______ _____ _____    ______ ____
ROOT
ATOM      1  C   UNL     1       1.611   4.224  19.394  0.00  0.00    +0.000 A 
ATOM      2  C   UNL     1       1.436   5.594  19.396  0.00  0.00    +0.000 A 
ATOM      3  N   UNL     1       2.383   6.159  18.580  0.00  0.00    +0.000 N 
ATOM      4  C   UNL     1       3.164   5.171  18.011  0.00  0.00    +0.000 A 
ATOM      5  C   UNL     1       4.207   5.242  17.065  0.00  0.00    +0.000 A 
ATOM      6  C   UNL     1       4.780   4.046  16.609  0.00  0.00    +0.000 A 
ATOM      7  C   UNL     1       4.332   2.816  17.097  0.00  0.00    +0.000 A 
ATOM      8  C   UNL     1       3.303   2.758  18.048  0.00  0.00    +0.000 A 
ATOM      9  C   UNL     1       2.693   3.951  18.503  0.00  0.00    +0.000 A 
ENDROOT
BRANCH   6  10
ATOM     10  C   UNL     1       5.836   4.134  15.557  0.00  0.00    +0.000 C 
ATOM     11  O   UNL     1       6.985   4.420  15.859  0.00  0.00    +0.000 OA
ATOM     12  N   UNL     1       5.431   3.848  14.270  0.00  0.00    +0.000 N 
ATOM     13  H   UNL     1       4.517   3.444  14.119  0.00  0.00    +0.000 HD
BRANCH  12  14
ATOM     14  C   UNL     1       6.356   3.841  13.153  0.00  0.00    +0.000 C 
BRANCH  14  15
ATOM     15  C   UNL     1       6.034   2.755  12.115  0.00  0.00    +0.000 C 
ATOM     16  C   UNL     1       4.766   3.082  11.321  0.00  0.00    +0.000 C 
ATOM     17  C   UNL     1       7.214   2.585  11.158  0.00  0.00    +0.000 C 
ENDBRANCH  14  15
ENDBRANCH  12  14
ENDBRANCH   6  10
BRANCH   1  18
ATOM     18  C   UNL     1       0.800   3.240  20.175  0.00  0.00    +0.000 C 
BRANCH  18  20
ATOM     19  C   UNL     1       2.729   2.488  21.607  0.00  0.00    +0.000 C 
ATOM     20  C   UNL     1       1.317   3.050  21.602  0.00  0.00    +0.000 C 
ENDBRANCH  18  20
ENDBRANCH   1  18
BRANCH   3  21
ATOM     21  C   UNL     1       2.534   7.611  18.407  0.00  0.00    +0.000 C 
BRANCH  21  22
ATOM     22  C   UNL     1       1.886   8.468  19.479  0.00  0.00    +0.000 A 
ATOM     23  C   UNL     1       1.628   7.876  20.740  0.00  0.00    +0.000 A 
ATOM     24  C   UNL     1       0.841   8.483  21.716  0.00  0.00    +0.000 A 
ATOM     25  C   UNL     1       0.292   9.731  21.471  0.00  0.00    +0.000 A 
ATOM     26  C   UNL     1       0.611  10.388  20.281  0.00  0.00    +0.000 A 
ATOM     27  C   UNL     1       1.386   9.770  19.272  0.00  0.00    +0.000 A 
BRANCH  25  28
ATOM     28  C   UNL     1      -0.613  10.298  22.501  0.00  0.00    +0.000 C 
ATOM     29  O   UNL     1      -1.203  11.354  22.354  0.00  0.00    +0.000 OA
BRANCH  28  30
ATOM     30  O   UNL     1      -0.669   9.578  23.641  0.00  0.00    +0.000 OA
ATOM     31  H   UNL     1      -1.412   8.950  23.699  0.00  0.00    +0.000 HD
ENDBRANCH  28  30
ENDBRANCH  25  28
BRANCH  27  32
ATOM     32  O   UNL     1       1.478  10.607  18.196  0.00  0.00    +0.000 OA
ATOM     33  C   UNL     1       2.107  11.870  18.253  0.00  0.00    +0.000 C 
ENDBRANCH  27  32
ENDBRANCH  21  22
ENDBRANCH   3  21
TORSDOF 10
ENDMDL
MODEL 9
REMARK VINA RESULT:      -7.1      4.413      9.014
REMARK  Name = 
REMARK  14 active torsions:
REMARK  status: ('A' for Active; 'I' for Inactive)
REMARK    1  A    between atoms: C_1  and  C_2
REMARK    2  A    between atoms: C_2  and  C_3
REMARK    3  A    between atoms: C_3  and  C_4
REMARK    4  A    between atoms: N_6  and  C_7
REMARK    5  A    between atoms: C_7  and  C_8
REMARK    6  A    between atoms: C_11  and  C_12
REMARK    7  A    between atoms: C_12  and  O_14
REMARK    8  A    between atoms: C_16  and  O_17
REMARK    9  A    between atoms: O_17  and  C_18
REMARK   10  A    between atoms: C_21  and  C_22
REMARK   11  A    between atoms: N_24  and  C_25
REMARK   12  A    between atoms: C_25  and  C_26
REMARK   13  A    between atoms: C_26  and  C_27
REMARK   14  A    between atoms: C_26  and  C_28
REMARK                            x       y       z     vdW  Elec       q    Type
REMARK                         _______ _______ _______ _____ _____    ______ ____
ROOT
ATOM      1  C   UNL     1       1.023   9.752  18.365  0.00  0.00    +0.000 A 
ATOM      2  C   UNL     1       1.227  10.626  19.414  0.00  0.00    +0.000 A 
ATOM      3  N   UNL     1       0.101  11.393  19.572  0.00  0.00    +0.000 N 
ATOM      4  C   UNL     1      -0.861  11.011  18.657  0.00  0.00    +0.000 A 
ATOM      5  C   UNL     1      -2.189  11.447  18.469  0.00  0.00    +0.000 A 
ATOM      6  C   UNL     1      -2.968  10.817  17.488  0.00  0.00    +0.000 A 
ATOM      7  C   UNL     1      -2.428   9.792  16.706  0.00  0.00    +0.000 A 
ATOM      8  C   UNL     1      -1.102   9.377  16.891  0.00  0.00    +0.000 A 
ATOM      9  C   UNL     1      -0.306   9.981  17.894  0.00  0.00    +0.000 A 
ENDROOT
BRANCH   6  10
ATOM     10  C   UNL     1      -4.393  11.241  17.348  0.00  0.00    +0.000 C 
ATOM     11  O   UNL     1      -4.789  11.736  16.303  0.00  0.00    +0.000 OA
ATOM     12  N   UNL     1      -5.201  11.011  18.441  0.00  0.00    +0.000 N 
ATOM     13  H   UNL     1      -4.856  10.436  19.197  0.00  0.00    +0.000 HD
BRANCH  12  14
ATOM     14  C   UNL     1      -6.618  11.322  18.433  0.00  0.00    +0.000 C 
BRANCH  14  15
ATOM     15  C   UNL     1      -6.926  12.721  18.988  0.00  0.00    +0.000 C 
ATOM     16  C   UNL     1      -7.916  13.481  18.101  0.00  0.00    +0.000 C 
ATOM     17  C   UNL     1      -7.486  12.606  20.406  0.00  0.00    +0.000 C 
ENDBRANCH  14  15
ENDBRANCH  12  14
ENDBRANCH   6  10
BRANCH   1  18
ATOM     18  C   UNL     1       2.017   8.760  17.850  0.00  0.00    +0.000 C 
BRANCH  18  20
ATOM     19  C   UNL     1       2.807   6.379  18.059  0.00  0.00    +0.000 C 
ATOM     20  C   UNL     1       2.198   7.566  18.788  0.00  0.00    +0.000 C 
ENDBRANCH  18  20
ENDBRANCH   1  18
BRANCH   3  21
ATOM     21  C   UNL     1      -0.001  12.481  20.556  0.00  0.00    +0.000 C 
BRANCH  21  22
ATOM     22  C   UNL     1      -1.158  12.371  21.533  0.00  0.00    +0.000 A 
ATOM     23  C   UNL     1      -2.272  13.226  21.346  0.00  0.00    +0.000 A 
ATOM     24  C   UNL     1      -3.279  13.378  22.296  0.00  0.00    +0.000 A 
ATOM     25  C   UNL     1      -3.218  12.654  23.476  0.00  0.00    +0.000 A 
ATOM     26  C   UNL     1      -2.190  11.727  23.648  0.00  0.00    +0.000 A 
ATOM     27  C   UNL     1      -1.147  11.584  22.703  0.00  0.00    +0.000 A 
BRANCH  25  28
ATOM     28  C   UNL     1      -4.264  12.916  24.496  0.00  0.00    +0.000 C 
ATOM     29  O   UNL     1      -5.265  12.229  24.608  0.00  0.00    +0.000 OA
BRANCH  28  30
ATOM     30  O   UNL     1      -4.043  14.019  25.241  0.00  0.00    +0.000 OA
ATOM     31  H   UNL     1      -3.775  14.811  24.741  0.00  0.00    +0.000 HD
ENDBRANCH  28  30
ENDBRANCH  25  28
BRANCH  27  32
ATOM     32  O   UNL     1      -0.245  10.665  23.159  0.00  0.00    +0.000 OA
ATOM     33  C   UNL     1      -0.122   9.369  22.611  0.00  0.00    +0.000 C 
ENDBRANCH  27  32
ENDBRANCH  21  22
ENDBRANCH   3  21
TORSDOF 10
ENDMDL
