MODEL 1
REMARK VINA RESULT:      -8.1      0.000      0.000
REMARK  Name = 
REMARK  9 active torsions:
REMARK  status: ('A' for Active; 'I' for Inactive)
REMARK    1  A    between atoms: C_1  and  O_2
REMARK    2  A    between atoms: O_2  and  C_3
REMARK    3  A    between atoms: C_3  and  C_5
REMARK    4  A    between atoms: C_6  and  C_7
REMARK    5  A    between atoms: C_9  and  C_10
REMARK    6  A    between atoms: C_12  and  O_13
REMARK    7  A    between atoms: C_12  and  O_14
REMARK    8  A    between atoms: O_14  and  C_15
REMARK    9  A    between atoms: C_16  and  C_17
REMARK                            x       y       z     vdW  Elec       q    Type
REMARK                         _______ _______ _______ _____ _____    ______ ____
ROOT
ATOM      1  C   UNL     1       2.080   4.245  19.159  0.00  0.00    +0.000 C 
ATOM      2  C   UNL     1       1.634   4.378  20.423  0.00  0.00    +0.000 C 
ATOM      3  C   UNL     1       1.228   3.256  21.352  0.00  0.00    +0.000 C 
ATOM      4  N   UNL     1       1.491   5.600  21.029  0.00  0.00    +0.000 NA
ATOM      5  C   UNL     1       1.723   6.708  20.399  0.00  0.00    +0.000 C 
ATOM      6  C   UNL     1       1.440   7.955  21.217  0.00  0.00    +0.000 C 
ATOM      7  C   UNL     1       2.214   6.802  18.975  0.00  0.00    +0.000 C 
ATOM      8  C   UNL     1       2.356   7.978  18.311  0.00  0.00    +0.000 C 
ATOM      9  C   UNL     1       2.530   5.444  18.353  0.00  0.00    +0.000 C 
ENDROOT
BRANCH   9  10
ATOM     10  C   UNL     1       4.028   5.312  18.025  0.00  0.00    +0.000 A 
ATOM     11  C   UNL     1       4.996   5.320  19.049  0.00  0.00    +0.000 A 
ATOM     12  C   UNL     1       6.360   5.144  18.780  0.00  0.00    +0.000 A 
ATOM     13  C   UNL     1       6.709   4.951  17.444  0.00  0.00    +0.000 A 
ATOM     14  N   UNL     1       7.895   4.724  16.804  0.00  0.00    +0.000 N 
ATOM     15  N   UNL     1       7.734   4.598  15.477  0.00  0.00    +0.000 NA
ATOM     16  N   UNL     1       6.438   4.729  15.220  0.00  0.00    +0.000 NA
ATOM     17  C   UNL     1       5.790   4.941  16.406  0.00  0.00    +0.000 A 
ATOM     18  C   UNL     1       4.432   5.127  16.686  0.00  0.00    +0.000 A 
ATOM     19  H   UNL     1       8.825   4.638  17.195  0.00  0.00    +0.000 HD
ENDBRANCH   9  10
BRANCH   1  20
ATOM     20  C   UNL     1       2.217   2.911  18.501  0.00  0.00    +0.000 C 
ATOM     21  O   UNL     1       1.578   2.518  17.542  0.00  0.00    +0.000 OA
BRANCH  20  23
ATOM     22  C   UNL     1       3.878   1.259  18.345  0.00  0.00    +0.000 C 
ATOM     23  O   UNL     1       3.145   2.170  19.170  0.00  0.00    +0.000 OA
ENDBRANCH  20  23
ENDBRANCH   1  20
BRANCH   8  24
ATOM     24  O   UNL     1       2.764   8.047  16.990  0.00  0.00    +0.000 OA
ATOM     25  H   UNL     1       2.059   7.771  16.389  0.00  0.00    +0.000 HD
ENDBRANCH   8  24
BRANCH   8  26
ATOM     26  O   UNL     1       2.100   9.182  18.935  0.00  0.00    +0.000 OA
ATOM     27  C   UNL     1       1.274  10.076  18.191  0.00  0.00    +0.000 C 
ENDBRANCH   8  26
TORSDOF 5
ENDMDL
MODEL 2
REMARK VINA RESULT:      -8.0      2.192      5.931
REMARK  Name = 
REMARK  9 active torsions:
REMARK  status: ('A' for Active; 'I' for Inactive)
REMARK    1  A    between atoms: C_1  and  O_2
REMARK    2  A    between atoms: O_2  and  C_3
REMARK    3  A    between atoms: C_3  and  C_5
REMARK    4  A    between atoms: C_6  and  C_7
REMARK    5  A    between atoms: C_9  and  C_10
REMARK    6  A    between atoms: C_12  and  O_13
REMARK    7  A    between atoms: C_12  and  O_14
REMARK    8  A    between atoms: O_14  and  C_15
REMARK    9  A    between atoms: C_16  and  C_17
REMARK                            x       y       z     vdW  Elec       q    Type
REMARK                         _______ _______ _______ _____ _____    ______ ____
ROOT
ATOM      1  C   UNL     1       5.340   5.680  17.659  0.00  0.00    +0.000 C 
ATOM      2  C   UNL     1       6.172   4.974  18.448  0.00  0.00    +0.000 C 
ATOM      3  C   UNL     1       7.659   5.198  18.610  0.00  0.00    +0.000 C 
ATOM      4  N   UNL     1       5.742   3.926  19.223  0.00  0.00    +0.000 NA
ATOM      5  C   UNL     1       4.513   3.515  19.196  0.00  0.00    +0.000 C 
ATOM      6  C   UNL     1       4.249   2.301  20.069  0.00  0.00    +0.000 C 
ATOM      7  C   UNL     1       3.412   4.143  18.376  0.00  0.00    +0.000 C 
ATOM      8  C   UNL     1       2.157   3.632  18.297  0.00  0.00    +0.000 C 
ATOM      9  C   UNL     1       3.851   5.407  17.642  0.00  0.00    +0.000 C 
ENDROOT
BRANCH   9  10
ATOM     10  C   UNL     1       3.095   6.646  18.153  0.00  0.00    +0.000 A 
ATOM     11  C   UNL     1       2.747   7.694  17.278  0.00  0.00    +0.000 A 
ATOM     12  C   UNL     1       2.009   8.805  17.708  0.00  0.00    +0.000 A 
ATOM     13  C   UNL     1       1.629   8.815  19.050  0.00  0.00    +0.000 A 
ATOM     14  N   UNL     1       0.901   9.681  19.815  0.00  0.00    +0.000 N 
ATOM     15  N   UNL     1       0.793   9.261  21.086  0.00  0.00    +0.000 NA
ATOM     16  N   UNL     1       1.438   8.104  21.177  0.00  0.00    +0.000 NA
ATOM     17  C   UNL     1       1.953   7.808  19.946  0.00  0.00    +0.000 A 
ATOM     18  C   UNL     1       2.699   6.708  19.506  0.00  0.00    +0.000 A 
ATOM     19  H   UNL     1       0.455  10.550  19.548  0.00  0.00    +0.000 HD
ENDBRANCH   9  10
BRANCH   1  20
ATOM     20  C   UNL     1       5.820   6.808  16.807  0.00  0.00    +0.000 C 
ATOM     21  O   UNL     1       6.382   7.813  17.201  0.00  0.00    +0.000 OA
BRANCH  20  23
ATOM     22  C   UNL     1       6.130   5.412  14.944  0.00  0.00    +0.000 C 
ATOM     23  O   UNL     1       5.493   6.564  15.506  0.00  0.00    +0.000 OA
ENDBRANCH  20  23
ENDBRANCH   1  20
BRANCH   8  24
ATOM     24  O   UNL     1       1.170   4.192  17.504  0.00  0.00    +0.000 OA
ATOM     25  H   UNL     1       0.469   3.554  17.312  0.00  0.00    +0.000 HD
ENDBRANCH   8  24
BRANCH   8  26
ATOM     26  O   UNL     1       1.799   2.511  19.018  0.00  0.00    +0.000 OA
ATOM     27  C   UNL     1       0.841   2.745  20.048  0.00  0.00    +0.000 C 
ENDBRANCH   8  26
TORSDOF 5
ENDMDL
MODEL 3
REMARK VINA RESULT:      -7.8      0.771      1.510
REMARK  Name = 
REMARK  9 active torsions:
REMARK  status: ('A' for Active; 'I' for Inactive)
REMARK    1  A    between atoms: C_1  and  O_2
REMARK    2  A    between atoms: O_2  and  C_3
REMARK    3  A    between atoms: C_3  and  C_5
REMARK    4  A    between atoms: C_6  and  C_7
REMARK    5  A    between atoms: C_9  and  C_10
REMARK    6  A    between atoms: C_12  and  O_13
REMARK    7  A    between atoms: C_12  and  O_14
REMARK    8  A    between atoms: O_14  and  C_15
REMARK    9  A    between atoms: C_16  and  C_17
REMARK                            x       y       z     vdW  Elec       q    Type
REMARK                         _______ _______ _______ _____ _____    ______ ____
ROOT
ATOM      1  C   UNL     1       1.966   4.031  19.060  0.00  0.00    +0.000 C 
ATOM      2  C   UNL     1       1.506   4.224  20.311  0.00  0.00    +0.000 C 
ATOM      3  C   UNL     1       1.004   3.156  21.256  0.00  0.00    +0.000 C 
ATOM      4  N   UNL     1       1.437   5.468  20.887  0.00  0.00    +0.000 NA
ATOM      5  C   UNL     1       1.758   6.542  20.237  0.00  0.00    +0.000 C 
ATOM      6  C   UNL     1       1.547   7.824  21.022  0.00  0.00    +0.000 C 
ATOM      7  C   UNL     1       2.283   6.567  18.822  0.00  0.00    +0.000 C 
ATOM      8  C   UNL     1       2.520   7.714  18.136  0.00  0.00    +0.000 C 
ATOM      9  C   UNL     1       2.515   5.177  18.238  0.00  0.00    +0.000 C 
ENDROOT
BRANCH   9  10
ATOM     10  C   UNL     1       4.006   4.932  17.945  0.00  0.00    +0.000 A 
ATOM     11  C   UNL     1       4.442   4.591  16.649  0.00  0.00    +0.000 A 
ATOM     12  C   UNL     1       5.799   4.419  16.345  0.00  0.00    +0.000 A 
ATOM     13  C   UNL     1       6.699   4.613  17.392  0.00  0.00    +0.000 A 
ATOM     14  N   UNL     1       8.061   4.567  17.484  0.00  0.00    +0.000 N 
ATOM     15  N   UNL     1       8.490   4.831  18.729  0.00  0.00    +0.000 NA
ATOM     16  N   UNL     1       7.419   5.068  19.476  0.00  0.00    +0.000 NA
ATOM     17  C   UNL     1       6.313   4.945  18.682  0.00  0.00    +0.000 A 
ATOM     18  C   UNL     1       4.953   5.105  18.976  0.00  0.00    +0.000 A 
ATOM     19  H   UNL     1       8.743   4.373  16.761  0.00  0.00    +0.000 HD
ENDBRANCH   9  10
BRANCH   1  20
ATOM     20  C   UNL     1       2.022   2.676  18.435  0.00  0.00    +0.000 C 
ATOM     21  O   UNL     1       1.388   2.310  17.462  0.00  0.00    +0.000 OA
BRANCH  20  23
ATOM     22  C   UNL     1       3.900   1.267  18.377  0.00  0.00    +0.000 C 
ATOM     23  O   UNL     1       2.866   1.881  19.153  0.00  0.00    +0.000 OA
ENDBRANCH  20  23
ENDBRANCH   1  20
BRANCH   8  24
ATOM     24  O   UNL     1       2.958   7.724  16.823  0.00  0.00    +0.000 OA
ATOM     25  H   UNL     1       3.487   8.510  16.634  0.00  0.00    +0.000 HD
ENDBRANCH   8  24
BRANCH   8  26
ATOM     26  O   UNL     1       2.336   8.948  18.727  0.00  0.00    +0.000 OA
ATOM     27  C   UNL     1       1.539   9.859  17.973  0.00  0.00    +0.000 C 
ENDBRANCH   8  26
TORSDOF 5
ENDMDL
MODEL 4
REMARK VINA RESULT:      -7.7      2.208      6.009
REMARK  Name = 
REMARK  9 active torsions:
REMARK  status: ('A' for Active; 'I' for Inactive)
REMARK    1  A    between atoms: C_1  and  O_2
REMARK    2  A    between atoms: O_2  and  C_3
REMARK    3  A    between atoms: C_3  and  C_5
REMARK    4  A    between atoms: C_6  and  C_7
REMARK    5  A    between atoms: C_9  and  C_10
REMARK    6  A    between atoms: C_12  and  O_13
REMARK    7  A    between atoms: C_12  and  O_14
REMARK    8  A    between atoms: O_14  and  C_15
REMARK    9  A    between atoms: C_16  and  C_17
REMARK                            x       y       z     vdW  Elec       q    Type
REMARK                         _______ _______ _______ _____ _____    ______ ____
ROOT
ATOM      1  C   UNL     1       5.367   5.665  17.752  0.00  0.00    +0.000 C 
ATOM      2  C   UNL     1       6.159   4.920  18.546  0.00  0.00    +0.000 C 
ATOM      3  C   UNL     1       7.642   5.114  18.769  0.00  0.00    +0.000 C 
ATOM      4  N   UNL     1       5.685   3.853  19.268  0.00  0.00    +0.000 NA
ATOM      5  C   UNL     1       4.453   3.463  19.183  0.00  0.00    +0.000 C 
ATOM      6  C   UNL     1       4.139   2.225  20.003  0.00  0.00    +0.000 C 
ATOM      7  C   UNL     1       3.392   4.137  18.346  0.00  0.00    +0.000 C 
ATOM      8  C   UNL     1       2.134   3.648  18.203  0.00  0.00    +0.000 C 
ATOM      9  C   UNL     1       3.877   5.417  17.671  0.00  0.00    +0.000 C 
ENDROOT
BRANCH   9  10
ATOM     10  C   UNL     1       3.120   6.650  18.198  0.00  0.00    +0.000 A 
ATOM     11  C   UNL     1       2.820   7.732  17.347  0.00  0.00    +0.000 A 
ATOM     12  C   UNL     1       2.083   8.839  17.789  0.00  0.00    +0.000 A 
ATOM     13  C   UNL     1       1.654   8.810  19.115  0.00  0.00    +0.000 A 
ATOM     14  N   UNL     1       0.913   9.662  19.884  0.00  0.00    +0.000 N 
ATOM     15  N   UNL     1       0.753   9.201  21.135  0.00  0.00    +0.000 NA
ATOM     16  N   UNL     1       1.377   8.031  21.209  0.00  0.00    +0.000 NA
ATOM     17  C   UNL     1       1.931   7.769  19.987  0.00  0.00    +0.000 A 
ATOM     18  C   UNL     1       2.677   6.672  19.537  0.00  0.00    +0.000 A 
ATOM     19  H   UNL     1       0.489  10.546  19.630  0.00  0.00    +0.000 HD
ENDBRANCH   9  10
BRANCH   1  20
ATOM     20  C   UNL     1       5.895   6.814  16.957  0.00  0.00    +0.000 C 
ATOM     21  O   UNL     1       5.929   6.888  15.742  0.00  0.00    +0.000 OA
BRANCH  20  23
ATOM     22  C   UNL     1       7.698   8.226  17.475  0.00  0.00    +0.000 C 
ATOM     23  O   UNL     1       6.384   7.764  17.804  0.00  0.00    +0.000 OA
ENDBRANCH  20  23
ENDBRANCH   1  20
BRANCH   8  24
ATOM     24  O   UNL     1       1.184   4.250  17.396  0.00  0.00    +0.000 OA
ATOM     25  H   UNL     1       0.390   3.705  17.319  0.00  0.00    +0.000 HD
ENDBRANCH   8  24
BRANCH   8  26
ATOM     26  O   UNL     1       1.732   2.509  18.872  0.00  0.00    +0.000 OA
ATOM     27  C   UNL     1       0.713   2.717  19.847  0.00  0.00    +0.000 C 
ENDBRANCH   8  26
TORSDOF 5
ENDMDL
MODEL 5
REMARK VINA RESULT:      -7.6      2.484      5.783
REMARK  Name = 
REMARK  9 active torsions:
REMARK  status: ('A' for Active; 'I' for Inactive)
REMARK    1  A    between atoms: C_1  and  O_2
REMARK    2  A    between atoms: O_2  and  C_3
REMARK    3  A    between atoms: C_3  and  C_5
REMARK    4  A    between atoms: C_6  and  C_7
REMARK    5  A    between atoms: C_9  and  C_10
REMARK    6  A    between atoms: C_12  and  O_13
REMARK    7  A    between atoms: C_12  and  O_14
REMARK    8  A    between atoms: O_14  and  C_15
REMARK    9  A    between atoms: C_16  and  C_17
REMARK                            x       y       z     vdW  Elec       q    Type
REMARK                         _______ _______ _______ _____ _____    ______ ____
ROOT
ATOM      1  C   UNL     1       5.287   5.656  17.713  0.00  0.00    +0.000 C 
ATOM      2  C   UNL     1       6.135   4.918  18.453  0.00  0.00    +0.000 C 
ATOM      3  C   UNL     1       7.617   5.161  18.628  0.00  0.00    +0.000 C 
ATOM      4  N   UNL     1       5.728   3.813  19.158  0.00  0.00    +0.000 NA
ATOM      5  C   UNL     1       4.508   3.379  19.105  0.00  0.00    +0.000 C 
ATOM      6  C   UNL     1       4.270   2.106  19.896  0.00  0.00    +0.000 C 
ATOM      7  C   UNL     1       3.393   4.037  18.329  0.00  0.00    +0.000 C 
ATOM      8  C   UNL     1       2.149   3.506  18.216  0.00  0.00    +0.000 C 
ATOM      9  C   UNL     1       3.805   5.355  17.678  0.00  0.00    +0.000 C 
ENDROOT
BRANCH   9  10
ATOM     10  C   UNL     1       3.024   6.542  18.271  0.00  0.00    +0.000 A 
ATOM     11  C   UNL     1       2.593   6.526  19.613  0.00  0.00    +0.000 A 
ATOM     12  C   UNL     1       1.931   7.617  20.191  0.00  0.00    +0.000 A 
ATOM     13  C   UNL     1       1.727   8.726  19.370  0.00  0.00    +0.000 A 
ATOM     14  N   UNL     1       1.164   9.954  19.569  0.00  0.00    +0.000 N 
ATOM     15  N   UNL     1       1.197  10.709  18.458  0.00  0.00    +0.000 NA
ATOM     16  N   UNL     1       1.793   9.995  17.511  0.00  0.00    +0.000 NA
ATOM     17  C   UNL     1       2.131   8.782  18.045  0.00  0.00    +0.000 A 
ATOM     18  C   UNL     1       2.783   7.682  17.475  0.00  0.00    +0.000 A 
ATOM     19  H   UNL     1       0.754  10.340  20.411  0.00  0.00    +0.000 HD
ENDBRANCH   9  10
BRANCH   1  20
ATOM     20  C   UNL     1       5.743   6.848  16.936  0.00  0.00    +0.000 C 
ATOM     21  O   UNL     1       6.278   7.840  17.397  0.00  0.00    +0.000 OA
BRANCH  20  23
ATOM     22  C   UNL     1       6.055   5.550  15.004  0.00  0.00    +0.000 C 
ATOM     23  O   UNL     1       5.427   6.679  15.621  0.00  0.00    +0.000 OA
ENDBRANCH  20  23
ENDBRANCH   1  20
BRANCH   8  24
ATOM     24  O   UNL     1       1.148   4.097  17.463  0.00  0.00    +0.000 OA
ATOM     25  H   UNL     1       1.493   4.439  16.627  0.00  0.00    +0.000 HD
ENDBRANCH   8  24
BRANCH   8  26
ATOM     26  O   UNL     1       1.814   2.333  18.862  0.00  0.00    +0.000 OA
ATOM     27  C   UNL     1       0.815   2.470  19.870  0.00  0.00    +0.000 C 
ENDBRANCH   8  26
TORSDOF 5
ENDMDL
MODEL 6
REMARK VINA RESULT:      -7.5      0.676      1.065
REMARK  Name = 
REMARK  9 active torsions:
REMARK  status: ('A' for Active; 'I' for Inactive)
REMARK    1  A    between atoms: C_1  and  O_2
REMARK    2  A    between atoms: O_2  and  C_3
REMARK    3  A    between atoms: C_3  and  C_5
REMARK    4  A    between atoms: C_6  and  C_7
REMARK    5  A    between atoms: C_9  and  C_10
REMARK    6  A    between atoms: C_12  and  O_13
REMARK    7  A    between atoms: C_12  and  O_14
REMARK    8  A    between atoms: O_14  and  C_15
REMARK    9  A    between atoms: C_16  and  C_17
REMARK                            x       y       z     vdW  Elec       q    Type
REMARK                         _______ _______ _______ _____ _____    ______ ____
ROOT
ATOM      1  C   UNL     1       2.381   4.404  19.318  0.00  0.00    +0.000 C 
ATOM      2  C   UNL     1       2.027   4.525  20.611  0.00  0.00    +0.000 C 
ATOM      3  C   UNL     1       1.827   3.394  21.595  0.00  0.00    +0.000 C 
ATOM      4  N   UNL     1       1.796   5.742  21.201  0.00  0.00    +0.000 NA
ATOM      5  C   UNL     1       1.848   6.849  20.530  0.00  0.00    +0.000 C 
ATOM      6  C   UNL     1       1.493   8.081  21.342  0.00  0.00    +0.000 C 
ATOM      7  C   UNL     1       2.209   6.953  19.068  0.00  0.00    +0.000 C 
ATOM      8  C   UNL     1       2.163   8.116  18.370  0.00  0.00    +0.000 C 
ATOM      9  C   UNL     1       2.626   5.620  18.451  0.00  0.00    +0.000 C 
ENDROOT
BRANCH   9  10
ATOM     10  C   UNL     1       4.097   5.645  18.002  0.00  0.00    +0.000 A 
ATOM     11  C   UNL     1       5.142   5.657  18.947  0.00  0.00    +0.000 A 
ATOM     12  C   UNL     1       6.489   5.623  18.563  0.00  0.00    +0.000 A 
ATOM     13  C   UNL     1       6.743   5.567  17.192  0.00  0.00    +0.000 A 
ATOM     14  N   UNL     1       7.886   5.494  16.449  0.00  0.00    +0.000 N 
ATOM     15  N   UNL     1       7.628   5.459  15.131  0.00  0.00    +0.000 NA
ATOM     16  N   UNL     1       6.309   5.497  14.984  0.00  0.00    +0.000 NA
ATOM     17  C   UNL     1       5.745   5.557  16.229  0.00  0.00    +0.000 A 
ATOM     18  C   UNL     1       4.404   5.602  16.625  0.00  0.00    +0.000 A 
ATOM     19  H   UNL     1       8.849   5.460  16.760  0.00  0.00    +0.000 HD
ENDBRANCH   9  10
BRANCH   1  20
ATOM     20  C   UNL     1       2.615   3.074  18.680  0.00  0.00    +0.000 C 
ATOM     21  O   UNL     1       3.621   2.396  18.786  0.00  0.00    +0.000 OA
BRANCH  20  23
ATOM     22  C   UNL     1       0.481   2.094  18.627  0.00  0.00    +0.000 C 
ATOM     23  O   UNL     1       1.537   2.744  17.912  0.00  0.00    +0.000 OA
ENDBRANCH  20  23
ENDBRANCH   1  20
BRANCH   8  24
ATOM     24  O   UNL     1       2.452   8.189  17.018  0.00  0.00    +0.000 OA
ATOM     25  H   UNL     1       2.330   9.087  16.680  0.00  0.00    +0.000 HD
ENDBRANCH   8  24
BRANCH   8  26
ATOM     26  O   UNL     1       1.823   9.303  18.986  0.00  0.00    +0.000 OA
ATOM     27  C   UNL     1       0.753  10.013  18.365  0.00  0.00    +0.000 C 
ENDBRANCH   8  26
TORSDOF 5
ENDMDL
MODEL 7
REMARK VINA RESULT:      -7.4      2.565      5.851
REMARK  Name = 
REMARK  9 active torsions:
REMARK  status: ('A' for Active; 'I' for Inactive)
REMARK    1  A    between atoms: C_1  and  O_2
REMARK    2  A    between atoms: O_2  and  C_3
REMARK    3  A    between atoms: C_3  and  C_5
REMARK    4  A    between atoms: C_6  and  C_7
REMARK    5  A    between atoms: C_9  and  C_10
REMARK    6  A    between atoms: C_12  and  O_13
REMARK    7  A    between atoms: C_12  and  O_14
REMARK    8  A    between atoms: O_14  and  C_15
REMARK    9  A    between atoms: C_16  and  C_17
REMARK                            x       y       z     vdW  Elec       q    Type
REMARK                         _______ _______ _______ _____ _____    ______ ____
ROOT
ATOM      1  C   UNL     1       5.285   5.605  17.693  0.00  0.00    +0.000 C 
ATOM      2  C   UNL     1       6.099   4.822  18.427  0.00  0.00    +0.000 C 
ATOM      3  C   UNL     1       7.581   5.026  18.646  0.00  0.00    +0.000 C 
ATOM      4  N   UNL     1       5.651   3.702  19.081  0.00  0.00    +0.000 NA
ATOM      5  C   UNL     1       4.423   3.298  18.984  0.00  0.00    +0.000 C 
ATOM      6  C   UNL     1       4.140   2.002  19.723  0.00  0.00    +0.000 C 
ATOM      7  C   UNL     1       3.342   4.007  18.206  0.00  0.00    +0.000 C 
ATOM      8  C   UNL     1       2.090   3.508  18.045  0.00  0.00    +0.000 C 
ATOM      9  C   UNL     1       3.798   5.338  17.613  0.00  0.00    +0.000 C 
ENDROOT
BRANCH   9  10
ATOM     10  C   UNL     1       3.028   6.519  18.229  0.00  0.00    +0.000 A 
ATOM     11  C   UNL     1       2.602   6.484  19.572  0.00  0.00    +0.000 A 
ATOM     12  C   UNL     1       1.951   7.570  20.172  0.00  0.00    +0.000 A 
ATOM     13  C   UNL     1       1.752   8.694  19.371  0.00  0.00    +0.000 A 
ATOM     14  N   UNL     1       1.198   9.923  19.594  0.00  0.00    +0.000 N 
ATOM     15  N   UNL     1       1.232  10.696  18.496  0.00  0.00    +0.000 NA
ATOM     16  N   UNL     1       1.820   9.994  17.534  0.00  0.00    +0.000 NA
ATOM     17  C   UNL     1       2.151   8.770  18.045  0.00  0.00    +0.000 A 
ATOM     18  C   UNL     1       2.793   7.675  17.455  0.00  0.00    +0.000 A 
ATOM     19  H   UNL     1       0.795  10.297  20.444  0.00  0.00    +0.000 HD
ENDBRANCH   9  10
BRANCH   1  20
ATOM     20  C   UNL     1       5.785   6.812  16.971  0.00  0.00    +0.000 C 
ATOM     21  O   UNL     1       5.753   6.990  15.767  0.00  0.00    +0.000 OA
BRANCH  20  23
ATOM     22  C   UNL     1       7.621   8.180  17.494  0.00  0.00    +0.000 C 
ATOM     23  O   UNL     1       6.333   7.682  17.868  0.00  0.00    +0.000 OA
ENDBRANCH  20  23
ENDBRANCH   1  20
BRANCH   8  24
ATOM     24  O   UNL     1       1.121   4.147  17.290  0.00  0.00    +0.000 OA
ATOM     25  H   UNL     1       0.963   3.685  16.456  0.00  0.00    +0.000 HD
ENDBRANCH   8  24
BRANCH   8  26
ATOM     26  O   UNL     1       1.715   2.321  18.640  0.00  0.00    +0.000 OA
ATOM     27  C   UNL     1       0.655   2.436  19.587  0.00  0.00    +0.000 C 
ENDBRANCH   8  26
TORSDOF 5
ENDMDL
MODEL 8
REMARK VINA RESULT:      -6.8      1.111      1.916
REMARK  Name = 
REMARK  9 active torsions:
REMARK  status: ('A' for Active; 'I' for Inactive)
REMARK    1  A    between atoms: C_1  and  O_2
REMARK    2  A    between atoms: O_2  and  C_3
REMARK    3  A    between atoms: C_3  and  C_5
REMARK    4  A    between atoms: C_6  and  C_7
REMARK    5  A    between atoms: C_9  and  C_10
REMARK    6  A    between atoms: C_12  and  O_13
REMARK    7  A    between atoms: C_12  and  O_14
REMARK    8  A    between atoms: O_14  and  C_15
REMARK    9  A    between atoms: C_16  and  C_17
REMARK                            x       y       z     vdW  Elec       q    Type
REMARK                         _______ _______ _______ _____ _____    ______ ____
ROOT
ATOM      1  C   UNL     1       2.214   4.339  19.298  0.00  0.00    +0.000 C 
ATOM      2  C   UNL     1       1.691   4.445  20.534  0.00  0.00    +0.000 C 
ATOM      3  C   UNL     1       1.331   3.302  21.456  0.00  0.00    +0.000 C 
ATOM      4  N   UNL     1       1.412   5.657  21.115  0.00  0.00    +0.000 NA
ATOM      5  C   UNL     1       1.582   6.774  20.482  0.00  0.00    +0.000 C 
ATOM      6  C   UNL     1       1.151   8.000  21.266  0.00  0.00    +0.000 C 
ATOM      7  C   UNL     1       2.141   6.896  19.085  0.00  0.00    +0.000 C 
ATOM      8  C   UNL     1       2.219   8.073  18.413  0.00  0.00    +0.000 C 
ATOM      9  C   UNL     1       2.604   5.564  18.500  0.00  0.00    +0.000 C 
ENDROOT
BRANCH   9  10
ATOM     10  C   UNL     1       4.123   5.557  18.254  0.00  0.00    +0.000 A 
ATOM     11  C   UNL     1       4.647   5.755  16.961  0.00  0.00    +0.000 A 
ATOM     12  C   UNL     1       6.027   5.809  16.721  0.00  0.00    +0.000 A 
ATOM     13  C   UNL     1       6.856   5.665  17.833  0.00  0.00    +0.000 A 
ATOM     14  N   UNL     1       8.211   5.688  18.007  0.00  0.00    +0.000 N 
ATOM     15  N   UNL     1       8.557   5.501  19.291  0.00  0.00    +0.000 NA
ATOM     16  N   UNL     1       7.436   5.363  19.988  0.00  0.00    +0.000 NA
ATOM     17  C   UNL     1       6.382   5.464  19.121  0.00  0.00    +0.000 A 
ATOM     18  C   UNL     1       5.002   5.402  19.346  0.00  0.00    +0.000 A 
ATOM     19  H   UNL     1       8.940   5.828  17.318  0.00  0.00    +0.000 HD
ENDBRANCH   9  10
BRANCH   1  20
ATOM     20  C   UNL     1       2.499   3.015  18.667  0.00  0.00    +0.000 C 
ATOM     21  O   UNL     1       3.498   2.342  18.838  0.00  0.00    +0.000 OA
BRANCH  20  23
ATOM     22  C   UNL     1       0.421   1.945  18.439  0.00  0.00    +0.000 C 
ATOM     23  O   UNL     1       1.479   2.687  17.824  0.00  0.00    +0.000 OA
ENDBRANCH  20  23
ENDBRANCH   1  20
BRANCH   8  24
ATOM     24  O   UNL     1       2.690   8.164  17.115  0.00  0.00    +0.000 OA
ATOM     25  H   UNL     1       2.018   7.892  16.476  0.00  0.00    +0.000 HD
ENDBRANCH   8  24
BRANCH   8  26
ATOM     26  O   UNL     1       1.828   9.257  19.005  0.00  0.00    +0.000 OA
ATOM     27  C   UNL     1       0.875  10.011  18.258  0.00  0.00    +0.000 C 
ENDBRANCH   8  26
TORSDOF 5
ENDMDL
MODEL 9
REMARK VINA RESULT:      -6.5      1.079      1.483
REMARK  Name = 
REMARK  9 active torsions:
REMARK  status: ('A' for Active; 'I' for Inactive)
REMARK    1  A    between atoms: C_1  and  O_2
REMARK    2  A    between atoms: O_2  and  C_3
REMARK    3  A    between atoms: C_3  and  C_5
REMARK    4  A    between atoms: C_6  and  C_7
REMARK    5  A    between atoms: C_9  and  C_10
REMARK    6  A    between atoms: C_12  and  O_13
REMARK    7  A    between atoms: C_12  and  O_14
REMARK    8  A    between atoms: O_14  and  C_15
REMARK    9  A    between atoms: C_16  and  C_17
REMARK                            x       y       z     vdW  Elec       q    Type
REMARK                         _______ _______ _______ _____ _____    ______ ____
ROOT
ATOM      1  C   UNL     1       2.123   4.529  19.163  0.00  0.00    +0.000 C 
ATOM      2  C   UNL     1       1.935   4.637  20.492  0.00  0.00    +0.000 C 
ATOM      3  C   UNL     1       1.814   3.495  21.475  0.00  0.00    +0.000 C 
ATOM      4  N   UNL     1       1.825   5.850  21.125  0.00  0.00    +0.000 NA
ATOM      5  C   UNL     1       1.838   6.967  20.469  0.00  0.00    +0.000 C 
ATOM      6  C   UNL     1       1.633   8.195  21.337  0.00  0.00    +0.000 C 
ATOM      7  C   UNL     1       2.020   7.087  18.975  0.00  0.00    +0.000 C 
ATOM      8  C   UNL     1       1.934   8.265  18.306  0.00  0.00    +0.000 C 
ATOM      9  C   UNL     1       2.306   5.753  18.291  0.00  0.00    +0.000 C 
ENDROOT
BRANCH   9  10
ATOM     10  C   UNL     1       3.711   5.733  17.664  0.00  0.00    +0.000 A 
ATOM     11  C   UNL     1       4.037   4.813  16.647  0.00  0.00    +0.000 A 
ATOM     12  C   UNL     1       5.290   4.813  16.022  0.00  0.00    +0.000 A 
ATOM     13  C   UNL     1       6.199   5.779  16.453  0.00  0.00    +0.000 A 
ATOM     14  N   UNL     1       7.471   6.107  16.079  0.00  0.00    +0.000 N 
ATOM     15  N   UNL     1       7.956   7.136  16.795  0.00  0.00    +0.000 NA
ATOM     16  N   UNL     1       7.007   7.510  17.645  0.00  0.00    +0.000 NA
ATOM     17  C   UNL     1       5.922   6.699  17.452  0.00  0.00    +0.000 A 
ATOM     18  C   UNL     1       4.669   6.683  18.076  0.00  0.00    +0.000 A 
ATOM     19  H   UNL     1       8.054   5.693  15.362  0.00  0.00    +0.000 HD
ENDBRANCH   9  10
BRANCH   1  20
ATOM     20  C   UNL     1       2.225   3.204  18.480  0.00  0.00    +0.000 C 
ATOM     21  O   UNL     1       1.447   2.764  17.654  0.00  0.00    +0.000 OA
BRANCH  20  23
ATOM     22  C   UNL     1       3.690   1.395  18.176  0.00  0.00    +0.000 C 
ATOM     23  O   UNL     1       3.309   2.531  18.959  0.00  0.00    +0.000 OA
ENDBRANCH  20  23
ENDBRANCH   1  20
BRANCH   8  24
ATOM     24  O   UNL     1       2.057   8.355  16.930  0.00  0.00    +0.000 OA
ATOM     25  H   UNL     1       1.426   7.776  16.481  0.00  0.00    +0.000 HD
ENDBRANCH   8  24
BRANCH   8  26
ATOM     26  O   UNL     1       1.718   9.451  18.978  0.00  0.00    +0.000 OA
ATOM     27  C   UNL     1       1.838  10.623  18.174  0.00  0.00    +0.000 C 
ENDBRANCH   8  26
TORSDOF 5
ENDMDL
