MODEL 1
REMARK VINA RESULT:      -8.4      0.000      0.000
REMARK  Name = 
REMARK  4 active torsions:
REMARK  status: ('A' for Active; 'I' for Inactive)
REMARK    1  A    between atoms: N_6  and  C_7
REMARK    2  A    between atoms: N_17  and  C_18
REMARK    3  A    between atoms: C_18  and  C_19
REMARK    4  A    between atoms: N_21  and  C_22
REMARK                            x       y       z     vdW  Elec       q    Type
REMARK                         _______ _______ _______ _____ _____    ______ ____
ROOT
ATOM      1  O   UNL     1       0.226   8.168  21.865  0.00  0.00    +0.000 OA
ATOM      2  C   UNL     1       0.846   8.251  20.808  0.00  0.00    +0.000 A 
ATOM      3  C   UNL     1       1.717   7.210  20.338  0.00  0.00    +0.000 A 
ATOM      4  C   UNL     1       2.074   5.950  20.816  0.00  0.00    +0.000 A 
ATOM      5  N   UNL     1       2.886   5.305  19.974  0.00  0.00    +0.000 NA
ATOM      6  N   UNL     1       3.071   6.171  18.924  0.00  0.00    +0.000 N 
ATOM      7  C   UNL     1       2.372   7.360  19.140  0.00  0.00    +0.000 A 
ATOM      8  N   UNL     1       2.295   8.438  18.320  0.00  0.00    +0.000 NA
ATOM      9  C   UNL     1       1.496   9.366  18.745  0.00  0.00    +0.000 A 
ATOM     10  N   UNL     1       0.761   9.325  19.919  0.00  0.00    +0.000 N 
ENDROOT
BRANCH   6  11
ATOM     11  C   UNL     1       3.859   5.780  17.799  0.00  0.00    +0.000 A 
ATOM     12  C   UNL     1       3.923   4.425  17.435  0.00  0.00    +0.000 A 
ATOM     13  C   UNL     1       4.650   4.027  16.308  0.00  0.00    +0.000 A 
ATOM     14  C   UNL     1       5.329   4.976  15.547  0.00  0.00    +0.000 A 
ATOM     15 CL   UNL     1       6.212   4.493  14.154  0.00  0.00    +0.000 Cl
ATOM     16  C   UNL     1       5.291   6.319  15.908  0.00  0.00    +0.000 A 
ATOM     17  C   UNL     1       4.559   6.721  17.029  0.00  0.00    +0.000 A 
ENDBRANCH   6  11
BRANCH  10  18
ATOM     18  C   UNL     1      -0.195  10.376  20.192  0.00  0.00    +0.000 C 
BRANCH  18  19
ATOM     19  C   UNL     1       0.454  11.710  20.158  0.00  0.00    +0.000 A 
ATOM     20  C   UNL     1       0.407  12.685  19.186  0.00  0.00    +0.000 A 
ATOM     21  N   UNL     1       1.372  13.594  19.548  0.00  0.00    +0.000 N 
ATOM     22  N   UNL     1       1.908  13.223  20.740  0.00  0.00    +0.000 NA
ATOM     23  N   UNL     1       1.339  12.089  21.126  0.00  0.00    +0.000 NA
BRANCH  21  24
ATOM     24  C   UNL     1       1.887  14.678  18.804  0.00  0.00    +0.000 A 
ATOM     25  C   UNL     1       1.212  15.909  18.818  0.00  0.00    +0.000 A 
ATOM     26  C   UNL     1       1.775  17.019  18.184  0.00  0.00    +0.000 A 
ATOM     27  C   UNL     1       2.987  16.901  17.503  0.00  0.00    +0.000 A 
ATOM     28  C   UNL     1       3.636  15.668  17.450  0.00  0.00    +0.000 A 
ATOM     29  C   UNL     1       3.091  14.567  18.107  0.00  0.00    +0.000 A 
ATOM     30  F   UNL     1       3.739  13.398  18.010  0.00  0.00    +0.000 F 
ENDBRANCH  21  24
ENDBRANCH  18  19
ENDBRANCH  10  18
TORSDOF 4
ENDMDL
MODEL 2
REMARK VINA RESULT:      -8.4      0.916      1.547
REMARK  Name = 
REMARK  4 active torsions:
REMARK  status: ('A' for Active; 'I' for Inactive)
REMARK    1  A    between atoms: N_6  and  C_7
REMARK    2  A    between atoms: N_17  and  C_18
REMARK    3  A    between atoms: C_18  and  C_19
REMARK    4  A    between atoms: N_21  and  C_22
REMARK                            x       y       z     vdW  Elec       q    Type
REMARK                         _______ _______ _______ _____ _____    ______ ____
ROOT
ATOM      1  O   UNL     1       0.631   8.164  21.623  0.00  0.00    +0.000 OA
ATOM      2  C   UNL     1       1.159   8.191  20.514  0.00  0.00    +0.000 A 
ATOM      3  C   UNL     1       2.048   7.161  20.055  0.00  0.00    +0.000 A 
ATOM      4  C   UNL     1       2.514   5.965  20.597  0.00  0.00    +0.000 A 
ATOM      5  N   UNL     1       3.292   5.295  19.743  0.00  0.00    +0.000 NA
ATOM      6  N   UNL     1       3.343   6.080  18.617  0.00  0.00    +0.000 N 
ATOM      7  C   UNL     1       2.596   7.245  18.798  0.00  0.00    +0.000 A 
ATOM      8  N   UNL     1       2.392   8.248  17.906  0.00  0.00    +0.000 NA
ATOM      9  C   UNL     1       1.577   9.166  18.324  0.00  0.00    +0.000 A 
ATOM     10  N   UNL     1       0.942   9.183  19.555  0.00  0.00    +0.000 N 
ENDROOT
BRANCH   6  11
ATOM     11  C   UNL     1       4.060   5.640  17.463  0.00  0.00    +0.000 A 
ATOM     12  C   UNL     1       4.694   6.584  16.640  0.00  0.00    +0.000 A 
ATOM     13  C   UNL     1       5.441   6.171  15.531  0.00  0.00    +0.000 A 
ATOM     14  C   UNL     1       5.548   4.814  15.231  0.00  0.00    +0.000 A 
ATOM     15 CL   UNL     1       6.476   4.300  13.879  0.00  0.00    +0.000 Cl
ATOM     16  C   UNL     1       4.908   3.869  16.027  0.00  0.00    +0.000 A 
ATOM     17  C   UNL     1       4.167   4.279  17.138  0.00  0.00    +0.000 A 
ENDBRANCH   6  11
BRANCH  10  18
ATOM     18  C   UNL     1      -0.048  10.204  19.825  0.00  0.00    +0.000 C 
BRANCH  18  19
ATOM     19  C   UNL     1       0.582  11.542  19.938  0.00  0.00    +0.000 A 
ATOM     20  C   UNL     1       0.715  12.533  18.990  0.00  0.00    +0.000 A 
ATOM     21  N   UNL     1       1.582  13.442  19.546  0.00  0.00    +0.000 N 
ATOM     22  N   UNL     1       1.879  13.055  20.814  0.00  0.00    +0.000 NA
ATOM     23  N   UNL     1       1.258  11.911  21.065  0.00  0.00    +0.000 NA
BRANCH  21  24
ATOM     24  C   UNL     1       2.220  14.542  18.933  0.00  0.00    +0.000 A 
ATOM     25  C   UNL     1       3.447  14.351  18.277  0.00  0.00    +0.000 A 
ATOM     26  C   UNL     1       4.027  15.405  17.565  0.00  0.00    +0.000 A 
ATOM     27  C   UNL     1       3.412  16.657  17.536  0.00  0.00    +0.000 A 
ATOM     28  C   UNL     1       2.217  16.859  18.225  0.00  0.00    +0.000 A 
ATOM     29  C   UNL     1       1.622  15.802  18.910  0.00  0.00    +0.000 A 
ATOM     30  F   UNL     1       0.485  16.051  19.575  0.00  0.00    +0.000 F 
ENDBRANCH  21  24
ENDBRANCH  18  19
ENDBRANCH  10  18
TORSDOF 4
ENDMDL
MODEL 3
REMARK VINA RESULT:      -8.3      4.776      9.818
REMARK  Name = 
REMARK  4 active torsions:
REMARK  status: ('A' for Active; 'I' for Inactive)
REMARK    1  A    between atoms: N_6  and  C_7
REMARK    2  A    between atoms: N_17  and  C_18
REMARK    3  A    between atoms: C_18  and  C_19
REMARK    4  A    between atoms: N_21  and  C_22
REMARK                            x       y       z     vdW  Elec       q    Type
REMARK                         _______ _______ _______ _____ _____    ______ ____
ROOT
ATOM      1  O   UNL     1       5.113   3.428  19.101  0.00  0.00    +0.000 OA
ATOM      2  C   UNL     1       4.791   4.564  18.763  0.00  0.00    +0.000 A 
ATOM      3  C   UNL     1       3.657   5.244  19.320  0.00  0.00    +0.000 A 
ATOM      4  C   UNL     1       2.710   4.924  20.293  0.00  0.00    +0.000 A 
ATOM      5  N   UNL     1       1.866   5.932  20.523  0.00  0.00    +0.000 NA
ATOM      6  N   UNL     1       2.265   6.933  19.671  0.00  0.00    +0.000 N 
ATOM      7  C   UNL     1       3.358   6.520  18.907  0.00  0.00    +0.000 A 
ATOM      8  N   UNL     1       4.040   7.236  17.978  0.00  0.00    +0.000 NA
ATOM      9  C   UNL     1       5.070   6.618  17.490  0.00  0.00    +0.000 A 
ATOM     10  N   UNL     1       5.491   5.346  17.841  0.00  0.00    +0.000 N 
ENDROOT
BRANCH   6  11
ATOM     11  C   UNL     1       1.602   8.198  19.685  0.00  0.00    +0.000 A 
ATOM     12  C   UNL     1       1.399   8.887  18.478  0.00  0.00    +0.000 A 
ATOM     13  C   UNL     1       0.710  10.105  18.463  0.00  0.00    +0.000 A 
ATOM     14  C   UNL     1       0.233  10.648  19.654  0.00  0.00    +0.000 A 
ATOM     15 CL   UNL     1      -0.627  12.137  19.639  0.00  0.00    +0.000 Cl
ATOM     16  C   UNL     1       0.444   9.986  20.859  0.00  0.00    +0.000 A 
ATOM     17  C   UNL     1       1.126   8.766  20.876  0.00  0.00    +0.000 A 
ENDBRANCH   6  11
BRANCH  10  18
ATOM     18  C   UNL     1       6.741   4.844  17.313  0.00  0.00    +0.000 C 
BRANCH  18  19
ATOM     19  C   UNL     1       6.697   4.754  15.833  0.00  0.00    +0.000 A 
ATOM     20  C   UNL     1       6.086   3.818  15.027  0.00  0.00    +0.000 A 
ATOM     21  N   UNL     1       6.565   4.070  13.764  0.00  0.00    +0.000 N 
ATOM     22  N   UNL     1       7.357   5.173  13.800  0.00  0.00    +0.000 NA
ATOM     23  N   UNL     1       7.425   5.606  15.052  0.00  0.00    +0.000 NA
BRANCH  21  24
ATOM     24  C   UNL     1       6.427   3.289  12.596  0.00  0.00    +0.000 A 
ATOM     25  C   UNL     1       7.571   2.746  11.989  0.00  0.00    +0.000 A 
ATOM     26  C   UNL     1       7.436   1.874  10.905  0.00  0.00    +0.000 A 
ATOM     27  C   UNL     1       6.172   1.572  10.398  0.00  0.00    +0.000 A 
ATOM     28  C   UNL     1       5.038   2.147  10.972  0.00  0.00    +0.000 A 
ATOM     29  C   UNL     1       5.169   2.992  12.071  0.00  0.00    +0.000 A 
ATOM     30  F   UNL     1       4.052   3.537  12.575  0.00  0.00    +0.000 F 
ENDBRANCH  21  24
ENDBRANCH  18  19
ENDBRANCH  10  18
TORSDOF 4
ENDMDL
MODEL 4
REMARK VINA RESULT:      -8.2      3.648      4.987
REMARK  Name = 
REMARK  4 active torsions:
REMARK  status: ('A' for Active; 'I' for Inactive)
REMARK    1  A    between atoms: N_6  and  C_7
REMARK    2  A    between atoms: N_17  and  C_18
REMARK    3  A    between atoms: C_18  and  C_19
REMARK    4  A    between atoms: N_21  and  C_22
REMARK                            x       y       z     vdW  Elec       q    Type
REMARK                         _______ _______ _______ _____ _____    ______ ____
ROOT
ATOM      1  O   UNL     1       0.202   9.622  21.275  0.00  0.00    +0.000 OA
ATOM      2  C   UNL     1       0.879   9.417  20.272  0.00  0.00    +0.000 A 
ATOM      3  C   UNL     1       1.544   8.168  20.029  0.00  0.00    +0.000 A 
ATOM      4  C   UNL     1       1.615   6.954  20.712  0.00  0.00    +0.000 A 
ATOM      5  N   UNL     1       2.322   6.041  20.041  0.00  0.00    +0.000 NA
ATOM      6  N   UNL     1       2.732   6.679  18.895  0.00  0.00    +0.000 N 
ATOM      7  C   UNL     1       2.277   7.998  18.880  0.00  0.00    +0.000 A 
ATOM      8  N   UNL     1       2.461   8.929  17.909  0.00  0.00    +0.000 NA
ATOM      9  C   UNL     1       1.846  10.048  18.130  0.00  0.00    +0.000 A 
ATOM     10  N   UNL     1       1.058  10.334  19.233  0.00  0.00    +0.000 N 
ENDROOT
BRANCH   6  11
ATOM     11  C   UNL     1       3.481   5.972  17.906  0.00  0.00    +0.000 A 
ATOM     12  C   UNL     1       4.430   6.662  17.133  0.00  0.00    +0.000 A 
ATOM     13  C   UNL     1       5.209   5.980  16.191  0.00  0.00    +0.000 A 
ATOM     14  C   UNL     1       5.035   4.610  16.007  0.00  0.00    +0.000 A 
ATOM     15 CL   UNL     1       5.999   3.765  14.862  0.00  0.00    +0.000 Cl
ATOM     16  C   UNL     1       4.085   3.918  16.752  0.00  0.00    +0.000 A 
ATOM     17  C   UNL     1       3.311   4.596  17.698  0.00  0.00    +0.000 A 
ENDBRANCH   6  11
BRANCH  10  18
ATOM     18  C   UNL     1       0.322  11.579  19.273  0.00  0.00    +0.000 C 
BRANCH  18  19
ATOM     19  C   UNL     1      -1.055  11.402  18.750  0.00  0.00    +0.000 A 
ATOM     20  C   UNL     1      -2.158  12.217  18.888  0.00  0.00    +0.000 A 
ATOM     21  N   UNL     1      -3.213  11.466  18.426  0.00  0.00    +0.000 N 
ATOM     22  N   UNL     1      -2.742  10.286  17.944  0.00  0.00    +0.000 NA
ATOM     23  N   UNL     1      -1.428  10.250  18.120  0.00  0.00    +0.000 NA
BRANCH  21  24
ATOM     24  C   UNL     1      -4.595  11.733  18.525  0.00  0.00    +0.000 A 
ATOM     25  C   UNL     1      -5.140  12.105  19.764  0.00  0.00    +0.000 A 
ATOM     26  C   UNL     1      -6.482  12.487  19.849  0.00  0.00    +0.000 A 
ATOM     27  C   UNL     1      -7.293  12.462  18.714  0.00  0.00    +0.000 A 
ATOM     28  C   UNL     1      -6.764  12.050  17.492  0.00  0.00    +0.000 A 
ATOM     29  C   UNL     1      -5.420  11.698  17.400  0.00  0.00    +0.000 A 
ATOM     30  F   UNL     1      -4.962  11.286  16.208  0.00  0.00    +0.000 F 
ENDBRANCH  21  24
ENDBRANCH  18  19
ENDBRANCH  10  18
TORSDOF 4
ENDMDL
MODEL 5
REMARK VINA RESULT:      -8.1      1.177      1.496
REMARK  Name = 
REMARK  4 active torsions:
REMARK  status: ('A' for Active; 'I' for Inactive)
REMARK    1  A    between atoms: N_6  and  C_7
REMARK    2  A    between atoms: N_17  and  C_18
REMARK    3  A    between atoms: C_18  and  C_19
REMARK    4  A    between atoms: N_21  and  C_22
REMARK                            x       y       z     vdW  Elec       q    Type
REMARK                         _______ _______ _______ _____ _____    ______ ____
ROOT
ATOM      1  O   UNL     1       0.357   9.058  21.320  0.00  0.00    +0.000 OA
ATOM      2  C   UNL     1       1.003   8.941  20.282  0.00  0.00    +0.000 A 
ATOM      3  C   UNL     1       1.753   7.758  19.966  0.00  0.00    +0.000 A 
ATOM      4  C   UNL     1       1.949   6.532  20.600  0.00  0.00    +0.000 A 
ATOM      5  N   UNL     1       2.694   5.701  19.867  0.00  0.00    +0.000 NA
ATOM      6  N   UNL     1       3.001   6.407  18.730  0.00  0.00    +0.000 N 
ATOM      7  C   UNL     1       2.444   7.686  18.781  0.00  0.00    +0.000 A 
ATOM      8  N   UNL     1       2.511   8.660  17.839  0.00  0.00    +0.000 NA
ATOM      9  C   UNL     1       1.820   9.718  18.126  0.00  0.00    +0.000 A 
ATOM     10  N   UNL     1       1.062   9.903  19.271  0.00  0.00    +0.000 N 
ENDROOT
BRANCH   6  11
ATOM     11  C   UNL     1       3.759   5.796  17.685  0.00  0.00    +0.000 A 
ATOM     12  C   UNL     1       4.613   6.585  16.897  0.00  0.00    +0.000 A 
ATOM     13  C   UNL     1       5.400   5.999  15.899  0.00  0.00    +0.000 A 
ATOM     14  C   UNL     1       5.328   4.626  15.673  0.00  0.00    +0.000 A 
ATOM     15 CL   UNL     1       6.303   3.899  14.458  0.00  0.00    +0.000 Cl
ATOM     16  C   UNL     1       4.471   3.836  16.433  0.00  0.00    +0.000 A 
ATOM     17  C   UNL     1       3.689   4.418  17.435  0.00  0.00    +0.000 A 
ENDBRANCH   6  11
BRANCH  10  18
ATOM     18  C   UNL     1       0.233  11.084  19.388  0.00  0.00    +0.000 C 
BRANCH  18  19
ATOM     19  C   UNL     1       1.031  12.256  19.821  0.00  0.00    +0.000 A 
ATOM     20  C   UNL     1       1.514  13.312  19.080  0.00  0.00    +0.000 A 
ATOM     21  N   UNL     1       2.381  13.969  19.920  0.00  0.00    +0.000 N 
ATOM     22  N   UNL     1       2.344  13.382  21.145  0.00  0.00    +0.000 NA
ATOM     23  N   UNL     1       1.509  12.352  21.096  0.00  0.00    +0.000 NA
BRANCH  21  24
ATOM     24  C   UNL     1       3.300  14.996  19.613  0.00  0.00    +0.000 A 
ATOM     25  C   UNL     1       3.224  16.219  20.299  0.00  0.00    +0.000 A 
ATOM     26  C   UNL     1       4.200  17.197  20.089  0.00  0.00    +0.000 A 
ATOM     27  C   UNL     1       5.228  16.979  19.171  0.00  0.00    +0.000 A 
ATOM     28  C   UNL     1       5.278  15.783  18.456  0.00  0.00    +0.000 A 
ATOM     29  C   UNL     1       4.323  14.795  18.686  0.00  0.00    +0.000 A 
ATOM     30  F   UNL     1       4.399  13.671  17.959  0.00  0.00    +0.000 F 
ENDBRANCH  21  24
ENDBRANCH  18  19
ENDBRANCH  10  18
TORSDOF 4
ENDMDL
MODEL 6
REMARK VINA RESULT:      -8.1      1.255      1.511
REMARK  Name = 
REMARK  4 active torsions:
REMARK  status: ('A' for Active; 'I' for Inactive)
REMARK    1  A    between atoms: N_6  and  C_7
REMARK    2  A    between atoms: N_17  and  C_18
REMARK    3  A    between atoms: C_18  and  C_19
REMARK    4  A    between atoms: N_21  and  C_22
REMARK                            x       y       z     vdW  Elec       q    Type
REMARK                         _______ _______ _______ _____ _____    ______ ____
ROOT
ATOM      1  O   UNL     1       0.408   8.624  21.361  0.00  0.00    +0.000 OA
ATOM      2  C   UNL     1       1.048   8.567  20.314  0.00  0.00    +0.000 A 
ATOM      3  C   UNL     1       1.857   7.434  19.963  0.00  0.00    +0.000 A 
ATOM      4  C   UNL     1       2.126   6.205  20.565  0.00  0.00    +0.000 A 
ATOM      5  N   UNL     1       2.907   5.434  19.804  0.00  0.00    +0.000 NA
ATOM      6  N   UNL     1       3.163   6.183  18.682  0.00  0.00    +0.000 N 
ATOM      7  C   UNL     1       2.538   7.427  18.770  0.00  0.00    +0.000 A 
ATOM      8  N   UNL     1       2.542   8.426  17.850  0.00  0.00    +0.000 NA
ATOM      9  C   UNL     1       1.798   9.438  18.170  0.00  0.00    +0.000 A 
ATOM     10  N   UNL     1       1.044   9.554  19.327  0.00  0.00    +0.000 N 
ENDROOT
BRANCH   6  11
ATOM     11  C   UNL     1       3.941   5.638  17.615  0.00  0.00    +0.000 A 
ATOM     12  C   UNL     1       3.873   4.263  17.341  0.00  0.00    +0.000 A 
ATOM     13  C   UNL     1       4.591   3.716  16.270  0.00  0.00    +0.000 A 
ATOM     14  C   UNL     1       5.389   4.538  15.477  0.00  0.00    +0.000 A 
ATOM     15 CL   UNL     1       6.261   3.874  14.153  0.00  0.00    +0.000 Cl
ATOM     16  C   UNL     1       5.481   5.899  15.750  0.00  0.00    +0.000 A 
ATOM     17  C   UNL     1       4.761   6.448  16.814  0.00  0.00    +0.000 A 
ENDBRANCH   6  11
BRANCH  10  18
ATOM     18  C   UNL     1       0.154  10.685  19.480  0.00  0.00    +0.000 C 
BRANCH  18  19
ATOM     19  C   UNL     1       0.904  11.908  19.855  0.00  0.00    +0.000 A 
ATOM     20  C   UNL     1       1.373  12.930  19.058  0.00  0.00    +0.000 A 
ATOM     21  N   UNL     1       2.197  13.667  19.875  0.00  0.00    +0.000 N 
ATOM     22  N   UNL     1       2.146  13.158  21.134  0.00  0.00    +0.000 NA
ATOM     23  N   UNL     1       1.345  12.102  21.132  0.00  0.00    +0.000 NA
BRANCH  21  24
ATOM     24  C   UNL     1       3.091  14.701  19.524  0.00  0.00    +0.000 A 
ATOM     25  C   UNL     1       4.104  14.450  18.585  0.00  0.00    +0.000 A 
ATOM     26  C   UNL     1       4.918  15.496  18.141  0.00  0.00    +0.000 A 
ATOM     27  C   UNL     1       4.754  16.782  18.657  0.00  0.00    +0.000 A 
ATOM     28  C   UNL     1       3.778  17.023  19.623  0.00  0.00    +0.000 A 
ATOM     29  C   UNL     1       2.946  15.988  20.044  0.00  0.00    +0.000 A 
ATOM     30  F   UNL     1       2.037  16.263  20.991  0.00  0.00    +0.000 F 
ENDBRANCH  21  24
ENDBRANCH  18  19
ENDBRANCH  10  18
TORSDOF 4
ENDMDL
MODEL 7
REMARK VINA RESULT:      -8.0      1.202      1.501
REMARK  Name = 
REMARK  4 active torsions:
REMARK  status: ('A' for Active; 'I' for Inactive)
REMARK    1  A    between atoms: N_6  and  C_7
REMARK    2  A    between atoms: N_17  and  C_18
REMARK    3  A    between atoms: C_18  and  C_19
REMARK    4  A    between atoms: N_21  and  C_22
REMARK                            x       y       z     vdW  Elec       q    Type
REMARK                         _______ _______ _______ _____ _____    ______ ____
ROOT
ATOM      1  O   UNL     1       0.324   8.835  21.206  0.00  0.00    +0.000 OA
ATOM      2  C   UNL     1       0.920   8.756  20.134  0.00  0.00    +0.000 A 
ATOM      3  C   UNL     1       1.835   7.691  19.835  0.00  0.00    +0.000 A 
ATOM      4  C   UNL     1       2.268   6.557  20.521  0.00  0.00    +0.000 A 
ATOM      5  N   UNL     1       3.097   5.811  19.786  0.00  0.00    +0.000 NA
ATOM      6  N   UNL     1       3.217   6.482  18.594  0.00  0.00    +0.000 N 
ATOM      7  C   UNL     1       2.460   7.654  18.612  0.00  0.00    +0.000 A 
ATOM      8  N   UNL     1       2.310   8.562  17.614  0.00  0.00    +0.000 NA
ATOM      9  C   UNL     1       1.471   9.511  17.889  0.00  0.00    +0.000 A 
ATOM     10  N   UNL     1       0.761   9.646  19.070  0.00  0.00    +0.000 N 
ENDROOT
BRANCH   6  11
ATOM     11  C   UNL     1       4.004   5.933  17.535  0.00  0.00    +0.000 A 
ATOM     12  C   UNL     1       3.977   4.549  17.298  0.00  0.00    +0.000 A 
ATOM     13  C   UNL     1       4.703   3.997  16.237  0.00  0.00    +0.000 A 
ATOM     14  C   UNL     1       5.470   4.822  15.416  0.00  0.00    +0.000 A 
ATOM     15 CL   UNL     1       6.352   4.150  14.102  0.00  0.00    +0.000 Cl
ATOM     16  C   UNL     1       5.521   6.192  15.652  0.00  0.00    +0.000 A 
ATOM     17  C   UNL     1       4.792   6.746  16.707  0.00  0.00    +0.000 A 
ENDBRANCH   6  11
BRANCH  10  18
ATOM     18  C   UNL     1      -0.244  10.682  19.177  0.00  0.00    +0.000 C 
BRANCH  18  19
ATOM     19  C   UNL     1       0.381  12.015  19.357  0.00  0.00    +0.000 A 
ATOM     20  C   UNL     1       0.137  13.197  18.690  0.00  0.00    +0.000 A 
ATOM     21  N   UNL     1       1.152  14.039  19.078  0.00  0.00    +0.000 N 
ATOM     22  N   UNL     1       1.916  13.414  20.012  0.00  0.00    +0.000 NA
ATOM     23  N   UNL     1       1.439  12.191  20.200  0.00  0.00    +0.000 NA
BRANCH  21  24
ATOM     24  C   UNL     1       1.504  15.299  18.548  0.00  0.00    +0.000 A 
ATOM     25  C   UNL     1       2.781  15.484  17.995  0.00  0.00    +0.000 A 
ATOM     26  C   UNL     1       3.098  16.688  17.360  0.00  0.00    +0.000 A 
ATOM     27  C   UNL     1       2.163  17.723  17.309  0.00  0.00    +0.000 A 
ATOM     28  C   UNL     1       0.910  17.556  17.897  0.00  0.00    +0.000 A 
ATOM     29  C   UNL     1       0.582  16.345  18.503  0.00  0.00    +0.000 A 
ATOM     30  F   UNL     1      -0.626  16.241  19.075  0.00  0.00    +0.000 F 
ENDBRANCH  21  24
ENDBRANCH  18  19
ENDBRANCH  10  18
TORSDOF 4
ENDMDL
MODEL 8
REMARK VINA RESULT:      -8.0      1.126      1.519
REMARK  Name = 
REMARK  4 active torsions:
REMARK  status: ('A' for Active; 'I' for Inactive)
REMARK    1  A    between atoms: N_6  and  C_7
REMARK    2  A    between atoms: N_17  and  C_18
REMARK    3  A    between atoms: C_18  and  C_19
REMARK    4  A    between atoms: N_21  and  C_22
REMARK                            x       y       z     vdW  Elec       q    Type
REMARK                         _______ _______ _______ _____ _____    ______ ____
ROOT
ATOM      1  O   UNL     1       0.561   8.467  21.505  0.00  0.00    +0.000 OA
ATOM      2  C   UNL     1       1.145   8.436  20.425  0.00  0.00    +0.000 A 
ATOM      3  C   UNL     1       1.958   7.326  20.017  0.00  0.00    +0.000 A 
ATOM      4  C   UNL     1       2.286   6.097  20.588  0.00  0.00    +0.000 A 
ATOM      5  N   UNL     1       3.043   5.353  19.777  0.00  0.00    +0.000 NA
ATOM      6  N   UNL     1       3.221   6.120  18.652  0.00  0.00    +0.000 N 
ATOM      7  C   UNL     1       2.575   7.349  18.789  0.00  0.00    +0.000 A 
ATOM      8  N   UNL     1       2.508   8.358  17.884  0.00  0.00    +0.000 NA
ATOM      9  C   UNL     1       1.760   9.350  18.256  0.00  0.00    +0.000 A 
ATOM     10  N   UNL     1       1.067   9.435  19.452  0.00  0.00    +0.000 N 
ENDROOT
BRANCH   6  11
ATOM     11  C   UNL     1       3.953   5.606  17.538  0.00  0.00    +0.000 A 
ATOM     12  C   UNL     1       4.681   6.487  16.722  0.00  0.00    +0.000 A 
ATOM     13  C   UNL     1       5.443   6.000  15.654  0.00  0.00    +0.000 A 
ATOM     14  C   UNL     1       5.471   4.632  15.388  0.00  0.00    +0.000 A 
ATOM     15 CL   UNL     1       6.417   4.027  14.086  0.00  0.00    +0.000 Cl
ATOM     16  C   UNL     1       4.739   3.751  16.176  0.00  0.00    +0.000 A 
ATOM     17  C   UNL     1       3.983   4.234  17.247  0.00  0.00    +0.000 A 
ENDBRANCH   6  11
BRANCH  10  18
ATOM     18  C   UNL     1       0.161  10.543  19.667  0.00  0.00    +0.000 C 
BRANCH  18  19
ATOM     19  C   UNL     1       0.906  11.795  19.945  0.00  0.00    +0.000 A 
ATOM     20  C   UNL     1       1.416  12.727  19.067  0.00  0.00    +0.000 A 
ATOM     21  N   UNL     1       2.213  13.541  19.837  0.00  0.00    +0.000 N 
ATOM     22  N   UNL     1       2.106  13.165  21.138  0.00  0.00    +0.000 NA
ATOM     23  N   UNL     1       1.297  12.117  21.212  0.00  0.00    +0.000 NA
BRANCH  21  24
ATOM     24  C   UNL     1       3.129  14.530  19.418  0.00  0.00    +0.000 A 
ATOM     25  C   UNL     1       2.874  15.256  18.244  0.00  0.00    +0.000 A 
ATOM     26  C   UNL     1       3.711  16.317  17.886  0.00  0.00    +0.000 A 
ATOM     27  C   UNL     1       4.822  16.631  18.668  0.00  0.00    +0.000 A 
ATOM     28  C   UNL     1       5.102  15.881  19.810  0.00  0.00    +0.000 A 
ATOM     29  C   UNL     1       4.252  14.843  20.185  0.00  0.00    +0.000 A 
ATOM     30  F   UNL     1       4.574  14.137  21.278  0.00  0.00    +0.000 F 
ENDBRANCH  21  24
ENDBRANCH  18  19
ENDBRANCH  10  18
TORSDOF 4
ENDMDL
MODEL 9
REMARK VINA RESULT:      -7.8      3.782      5.405
REMARK  Name = 
REMARK  4 active torsions:
REMARK  status: ('A' for Active; 'I' for Inactive)
REMARK    1  A    between atoms: N_6  and  C_7
REMARK    2  A    between atoms: N_17  and  C_18
REMARK    3  A    between atoms: C_18  and  C_19
REMARK    4  A    between atoms: N_21  and  C_22
REMARK                            x       y       z     vdW  Elec       q    Type
REMARK                         _______ _______ _______ _____ _____    ______ ____
ROOT
ATOM      1  O   UNL     1      -0.148  10.780  21.317  0.00  0.00    +0.000 OA
ATOM      2  C   UNL     1       0.509  10.421  20.343  0.00  0.00    +0.000 A 
ATOM      3  C   UNL     1       1.116   9.122  20.255  0.00  0.00    +0.000 A 
ATOM      4  C   UNL     1       1.140   8.001  21.084  0.00  0.00    +0.000 A 
ATOM      5  N   UNL     1       1.799   6.981  20.528  0.00  0.00    +0.000 NA
ATOM      6  N   UNL     1       2.224   7.452  19.310  0.00  0.00    +0.000 N 
ATOM      7  C   UNL     1       1.828   8.778  19.132  0.00  0.00    +0.000 A 
ATOM      8  N   UNL     1       2.043   9.572  18.053  0.00  0.00    +0.000 NA
ATOM      9  C   UNL     1       1.480  10.736  18.135  0.00  0.00    +0.000 A 
ATOM     10  N   UNL     1       0.718  11.192  19.198  0.00  0.00    +0.000 N 
ENDROOT
BRANCH   6  11
ATOM     11  C   UNL     1       2.931   6.594  18.413  0.00  0.00    +0.000 A 
ATOM     12  C   UNL     1       4.023   7.100  17.689  0.00  0.00    +0.000 A 
ATOM     13  C   UNL     1       4.760   6.265  16.841  0.00  0.00    +0.000 A 
ATOM     14  C   UNL     1       4.401   4.926  16.701  0.00  0.00    +0.000 A 
ATOM     15 CL   UNL     1       5.311   3.893  15.671  0.00  0.00    +0.000 Cl
ATOM     16  C   UNL     1       3.310   4.417  17.397  0.00  0.00    +0.000 A 
ATOM     17  C   UNL     1       2.577   5.247  18.250  0.00  0.00    +0.000 A 
ENDBRANCH   6  11
BRANCH  10  18
ATOM     18  C   UNL     1       0.038  12.465  19.086  0.00  0.00    +0.000 C 
BRANCH  18  19
ATOM     19  C   UNL     1      -1.389  12.278  18.724  0.00  0.00    +0.000 A 
ATOM     20  C   UNL     1      -2.521  12.483  19.483  0.00  0.00    +0.000 A 
ATOM     21  N   UNL     1      -3.543  11.927  18.752  0.00  0.00    +0.000 N 
ATOM     22  N   UNL     1      -3.053  11.491  17.562  0.00  0.00    +0.000 NA
ATOM     23  N   UNL     1      -1.748  11.721  17.531  0.00  0.00    +0.000 NA
BRANCH  21  24
ATOM     24  C   UNL     1      -4.875  11.677  19.146  0.00  0.00    +0.000 A 
ATOM     25  C   UNL     1      -5.648  10.751  18.426  0.00  0.00    +0.000 A 
ATOM     26  C   UNL     1      -6.924  10.407  18.879  0.00  0.00    +0.000 A 
ATOM     27  C   UNL     1      -7.451  11.010  20.022  0.00  0.00    +0.000 A 
ATOM     28  C   UNL     1      -6.702  11.963  20.712  0.00  0.00    +0.000 A 
ATOM     29  C   UNL     1      -5.418  12.284  20.279  0.00  0.00    +0.000 A 
ATOM     30  F   UNL     1      -4.746  13.222  20.962  0.00  0.00    +0.000 F 
ENDBRANCH  21  24
ENDBRANCH  18  19
ENDBRANCH  10  18
TORSDOF 4
ENDMDL
