MODEL 1
REMARK VINA RESULT:      -6.0      0.000      0.000
REMARK  Name = 
REMARK  11 active torsions:
REMARK  status: ('A' for Active; 'I' for Inactive)
REMARK    1  A    between atoms: C_1  and  N_2
REMARK    2  A    between atoms: N_2  and  C_3
REMARK    3  A    between atoms: N_2  and  C_4
REMARK    4  A    between atoms: C_4  and  C_5
REMARK    5  A    between atoms: C_5  and  O_6
REMARK    6  A    between atoms: O_6  and  N_7
REMARK    7  A    between atoms: C_8  and  C_9
REMARK    8  A    between atoms: C_12  and  O_13
REMARK    9  A    between atoms: C_19  and  O_20
REMARK   10  A    between atoms: C_23  and  C_24
REMARK   11  A    between atoms: C_28  and  C_29
REMARK                            x       y       z     vdW  Elec       q    Type
REMARK                         _______ _______ _______ _____ _____    ______ ____
ROOT
ATOM      1  C   UNL     1      -0.112   9.846  19.430  0.00  0.00    +0.000 C 
ATOM      2  C   UNL     1      -0.245   9.223  20.836  0.00  0.00    +0.000 C 
ATOM      3  C   UNL     1      -0.590  10.352  21.816  0.00  0.00    +0.000 C 
ATOM      4  C   UNL     1      -0.305  11.653  21.058  0.00  0.00    +0.000 C 
ATOM      5  C   UNL     1      -1.049  12.920  21.565  0.00  0.00    +0.000 C 
ATOM      6  C   UNL     1      -0.803  13.180  23.063  0.00  0.00    +0.000 C 
ATOM      7  C   UNL     1      -1.503  14.442  23.558  0.00  0.00    +0.000 C 
ATOM      8  C   UNL     1      -3.008  14.470  23.241  0.00  0.00    +0.000 C 
ATOM      9  C   UNL     1      -3.761  13.467  24.147  0.00  0.00    +0.000 C 
ATOM     10  C   UNL     1      -5.261  13.400  23.866  0.00  0.00    +0.000 C 
ATOM     11  C   UNL     1      -5.547  13.170  22.385  0.00  0.00    +0.000 C 
ATOM     12  C   UNL     1      -4.833  14.193  21.505  0.00  0.00    +0.000 C 
ATOM     13  C   UNL     1      -3.292  14.244  21.721  0.00  0.00    +0.000 C 
ATOM     14  C   UNL     1      -2.794  15.477  20.919  0.00  0.00    +0.000 C 
ATOM     15  C   UNL     1      -2.577  12.920  21.249  0.00  0.00    +0.000 C 
ATOM     16  C   UNL     1      -2.847  12.589  19.769  0.00  0.00    +0.000 C 
ATOM     17  C   UNL     1      -2.176  11.285  19.357  0.00  0.00    +0.000 C 
ATOM     18  C   UNL     1      -0.647  11.311  19.584  0.00  0.00    +0.000 C 
ATOM     19  C   UNL     1      -0.045  12.348  18.610  0.00  0.00    +0.000 C 
ENDROOT
BRANCH   1  21
ATOM     20  N   UNL     1       1.729   8.597  18.443  0.00  0.00    +0.000 NA
ATOM     21  C   UNL     1       1.312   9.709  18.918  0.00  0.00    +0.000 C 
BRANCH  20  22
ATOM     22  O   UNL     1       3.009   8.709  17.904  0.00  0.00    +0.000 OA
BRANCH  22  23
ATOM     23  C   UNL     1       3.478   7.377  17.708  0.00  0.00    +0.000 C 
BRANCH  23  24
ATOM     24  C   UNL     1       2.974   6.523  18.858  0.00  0.00    +0.000 C 
BRANCH  24  26
ATOM     25  C   UNL     1       1.873   4.661  17.829  0.00  0.00    +0.000 C 
ATOM     26  N   UNL     1       3.026   5.065  18.630  0.00  0.00    +0.000 NA
ATOM     27  C   UNL     1       4.267   4.659  17.959  0.00  0.00    +0.000 C 
ENDBRANCH  24  26
ENDBRANCH  23  24
ENDBRANCH  22  23
ENDBRANCH  20  22
ENDBRANCH   1  21
BRANCH   4  28
ATOM     28  O   UNL     1       1.110  11.876  21.155  0.00  0.00    +0.000 OA
ATOM     29  H   UNL     1       1.396  11.724  22.070  0.00  0.00    +0.000 HD
ENDBRANCH   4  28
BRANCH  10  30
ATOM     30  O   UNL     1      -5.901  14.590  24.317  0.00  0.00    +0.000 OA
ATOM     31  H   UNL     1      -5.444  15.359  23.939  0.00  0.00    +0.000 HD
ENDBRANCH  10  30
TORSDOF 7
ENDMDL
MODEL 2
REMARK VINA RESULT:      -6.0      1.400      2.811
REMARK  Name = 
REMARK  11 active torsions:
REMARK  status: ('A' for Active; 'I' for Inactive)
REMARK    1  A    between atoms: C_1  and  N_2
REMARK    2  A    between atoms: N_2  and  C_3
REMARK    3  A    between atoms: N_2  and  C_4
REMARK    4  A    between atoms: C_4  and  C_5
REMARK    5  A    between atoms: C_5  and  O_6
REMARK    6  A    between atoms: O_6  and  N_7
REMARK    7  A    between atoms: C_8  and  C_9
REMARK    8  A    between atoms: C_12  and  O_13
REMARK    9  A    between atoms: C_19  and  O_20
REMARK   10  A    between atoms: C_23  and  C_24
REMARK   11  A    between atoms: C_28  and  C_29
REMARK                            x       y       z     vdW  Elec       q    Type
REMARK                         _______ _______ _______ _____ _____    ______ ____
ROOT
ATOM      1  C   UNL     1       1.029  11.451  19.464  0.00  0.00    +0.000 C 
ATOM      2  C   UNL     1       0.544  12.537  18.480  0.00  0.00    +0.000 C 
ATOM      3  C   UNL     1      -0.884  12.926  18.883  0.00  0.00    +0.000 C 
ATOM      4  C   UNL     1      -1.349  11.834  19.852  0.00  0.00    +0.000 C 
ATOM      5  C   UNL     1      -2.497  12.222  20.824  0.00  0.00    +0.000 C 
ATOM      6  C   UNL     1      -3.737  12.753  20.079  0.00  0.00    +0.000 C 
ATOM      7  C   UNL     1      -4.880  13.103  21.027  0.00  0.00    +0.000 C 
ATOM      8  C   UNL     1      -4.468  14.066  22.153  0.00  0.00    +0.000 C 
ATOM      9  C   UNL     1      -4.251  15.488  21.584  0.00  0.00    +0.000 C 
ATOM     10  C   UNL     1      -3.795  16.501  22.633  0.00  0.00    +0.000 C 
ATOM     11  C   UNL     1      -2.584  15.997  23.412  0.00  0.00    +0.000 C 
ATOM     12  C   UNL     1      -2.827  14.613  24.005  0.00  0.00    +0.000 C 
ATOM     13  C   UNL     1      -3.234  13.539  22.953  0.00  0.00    +0.000 C 
ATOM     14  C   UNL     1      -3.650  12.285  23.769  0.00  0.00    +0.000 C 
ATOM     15  C   UNL     1      -2.062  13.212  21.949  0.00  0.00    +0.000 C 
ATOM     16  C   UNL     1      -0.781  12.734  22.657  0.00  0.00    +0.000 C 
ATOM     17  C   UNL     1       0.340  12.467  21.662  0.00  0.00    +0.000 C 
ATOM     18  C   UNL     1      -0.053  11.417  20.596  0.00  0.00    +0.000 C 
ATOM     19  C   UNL     1      -0.227  10.061  21.316  0.00  0.00    +0.000 C 
ENDROOT
BRANCH   1  21
ATOM     20  N   UNL     1       2.058  10.087  17.730  0.00  0.00    +0.000 NA
ATOM     21  C   UNL     1       1.269  10.138  18.736  0.00  0.00    +0.000 C 
BRANCH  20  22
ATOM     22  O   UNL     1       2.251   8.781  17.287  0.00  0.00    +0.000 OA
BRANCH  22  23
ATOM     23  C   UNL     1       2.265   7.960  18.453  0.00  0.00    +0.000 C 
BRANCH  23  24
ATOM     24  C   UNL     1       2.894   6.627  18.086  0.00  0.00    +0.000 C 
BRANCH  24  26
ATOM     25  C   UNL     1       1.916   4.449  17.890  0.00  0.00    +0.000 C 
ATOM     26  N   UNL     1       2.380   5.462  18.834  0.00  0.00    +0.000 NA
ATOM     27  C   UNL     1       3.400   4.888  19.721  0.00  0.00    +0.000 C 
ENDBRANCH  24  26
ENDBRANCH  23  24
ENDBRANCH  22  23
ENDBRANCH  20  22
ENDBRANCH   1  21
BRANCH   4  28
ATOM     28  O   UNL     1      -1.780  10.730  19.041  0.00  0.00    +0.000 OA
ATOM     29  H   UNL     1      -1.023  10.147  18.865  0.00  0.00    +0.000 HD
ENDBRANCH   4  28
BRANCH  10  30
ATOM     30  O   UNL     1      -4.866  16.807  23.521  0.00  0.00    +0.000 OA
ATOM     31  H   UNL     1      -5.237  17.672  23.284  0.00  0.00    +0.000 HD
ENDBRANCH  10  30
TORSDOF 7
ENDMDL
MODEL 3
REMARK VINA RESULT:      -5.9      5.038      7.205
REMARK  Name = 
REMARK  11 active torsions:
REMARK  status: ('A' for Active; 'I' for Inactive)
REMARK    1  A    between atoms: C_1  and  N_2
REMARK    2  A    between atoms: N_2  and  C_3
REMARK    3  A    between atoms: N_2  and  C_4
REMARK    4  A    between atoms: C_4  and  C_5
REMARK    5  A    between atoms: C_5  and  O_6
REMARK    6  A    between atoms: O_6  and  N_7
REMARK    7  A    between atoms: C_8  and  C_9
REMARK    8  A    between atoms: C_12  and  O_13
REMARK    9  A    between atoms: C_19  and  O_20
REMARK   10  A    between atoms: C_23  and  C_24
REMARK   11  A    between atoms: C_28  and  C_29
REMARK                            x       y       z     vdW  Elec       q    Type
REMARK                         _______ _______ _______ _____ _____    ______ ____
ROOT
ATOM      1  C   UNL     1       2.456  16.257  18.705  0.00  0.00    +0.000 C 
ATOM      2  C   UNL     1       2.969  15.302  17.606  0.00  0.00    +0.000 C 
ATOM      3  C   UNL     1       2.503  13.886  17.962  0.00  0.00    +0.000 C 
ATOM      4  C   UNL     1       2.041  13.961  19.422  0.00  0.00    +0.000 C 
ATOM      5  C   UNL     1       1.038  12.867  19.883  0.00  0.00    +0.000 C 
ATOM      6  C   UNL     1       1.570  11.445  19.628  0.00  0.00    +0.000 C 
ATOM      7  C   UNL     1       0.605  10.366  20.111  0.00  0.00    +0.000 C 
ATOM      8  C   UNL     1      -0.818  10.524  19.548  0.00  0.00    +0.000 C 
ATOM      9  C   UNL     1      -0.842  10.144  18.048  0.00  0.00    +0.000 C 
ATOM     10  C   UNL     1      -2.214  10.315  17.399  0.00  0.00    +0.000 C 
ATOM     11  C   UNL     1      -2.788  11.706  17.654  0.00  0.00    +0.000 C 
ATOM     12  C   UNL     1      -2.799  12.051  19.140  0.00  0.00    +0.000 C 
ATOM     13  C   UNL     1      -1.402  11.947  19.821  0.00  0.00    +0.000 C 
ATOM     14  C   UNL     1      -1.663  12.110  21.344  0.00  0.00    +0.000 C 
ATOM     15  C   UNL     1      -0.394  13.036  19.288  0.00  0.00    +0.000 C 
ATOM     16  C   UNL     1      -0.914  14.474  19.469  0.00  0.00    +0.000 C 
ATOM     17  C   UNL     1       0.064  15.496  18.907  0.00  0.00    +0.000 C 
ATOM     18  C   UNL     1       1.463  15.395  19.558  0.00  0.00    +0.000 C 
ATOM     19  C   UNL     1       1.322  15.807  21.041  0.00  0.00    +0.000 C 
ENDROOT
BRANCH   1  21
ATOM     20  N   UNL     1       4.668  17.262  18.842  0.00  0.00    +0.000 NA
ATOM     21  C   UNL     1       3.620  16.874  19.464  0.00  0.00    +0.000 C 
BRANCH  20  22
ATOM     22  O   UNL     1       5.559  17.920  19.687  0.00  0.00    +0.000 OA
BRANCH  22  23
ATOM     23  C   UNL     1       6.691  17.063  19.819  0.00  0.00    +0.000 C 
BRANCH  23  24
ATOM     24  C   UNL     1       7.498  17.141  18.534  0.00  0.00    +0.000 C 
BRANCH  24  26
ATOM     25  C   UNL     1       8.953  15.351  19.180  0.00  0.00    +0.000 C 
ATOM     26  N   UNL     1       8.117  15.873  18.101  0.00  0.00    +0.000 NA
ATOM     27  C   UNL     1       7.111  14.874  17.721  0.00  0.00    +0.000 C 
ENDBRANCH  24  26
ENDBRANCH  23  24
ENDBRANCH  22  23
ENDBRANCH  20  22
ENDBRANCH   1  21
BRANCH   4  28
ATOM     28  O   UNL     1       3.227  13.873  20.227  0.00  0.00    +0.000 OA
ATOM     29  H   UNL     1       3.276  14.648  20.810  0.00  0.00    +0.000 HD
ENDBRANCH   4  28
BRANCH  10  30
ATOM     30  O   UNL     1      -3.111   9.313  17.869  0.00  0.00    +0.000 OA
ATOM     31  H   UNL     1      -4.001   9.694  17.945  0.00  0.00    +0.000 HD
ENDBRANCH  10  30
TORSDOF 7
ENDMDL
MODEL 4
REMARK VINA RESULT:      -5.8      1.262      1.498
REMARK  Name = 
REMARK  11 active torsions:
REMARK  status: ('A' for Active; 'I' for Inactive)
REMARK    1  A    between atoms: C_1  and  N_2
REMARK    2  A    between atoms: N_2  and  C_3
REMARK    3  A    between atoms: N_2  and  C_4
REMARK    4  A    between atoms: C_4  and  C_5
REMARK    5  A    between atoms: C_5  and  O_6
REMARK    6  A    between atoms: O_6  and  N_7
REMARK    7  A    between atoms: C_8  and  C_9
REMARK    8  A    between atoms: C_12  and  O_13
REMARK    9  A    between atoms: C_19  and  O_20
REMARK   10  A    between atoms: C_23  and  C_24
REMARK   11  A    between atoms: C_28  and  C_29
REMARK                            x       y       z     vdW  Elec       q    Type
REMARK                         _______ _______ _______ _____ _____    ______ ____
ROOT
ATOM      1  C   UNL     1      -0.585  10.322  19.356  0.00  0.00    +0.000 C 
ATOM      2  C   UNL     1      -0.139   9.959  20.788  0.00  0.00    +0.000 C 
ATOM      3  C   UNL     1      -0.106  11.253  21.610  0.00  0.00    +0.000 C 
ATOM      4  C   UNL     1      -0.179  12.390  20.584  0.00  0.00    +0.000 C 
ATOM      5  C   UNL     1      -0.702  13.756  21.109  0.00  0.00    +0.000 C 
ATOM      6  C   UNL     1       0.103  14.262  22.322  0.00  0.00    +0.000 C 
ATOM      7  C   UNL     1      -0.384  15.619  22.820  0.00  0.00    +0.000 C 
ATOM      8  C   UNL     1      -1.893  15.655  23.115  0.00  0.00    +0.000 C 
ATOM      9  C   UNL     1      -2.203  14.858  24.404  0.00  0.00    +0.000 C 
ATOM     10  C   UNL     1      -3.691  14.807  24.746  0.00  0.00    +0.000 C 
ATOM     11  C   UNL     1      -4.526  14.336  23.560  0.00  0.00    +0.000 C 
ATOM     12  C   UNL     1      -4.244  15.159  22.306  0.00  0.00    +0.000 C 
ATOM     13  C   UNL     1      -2.742  15.182  21.892  0.00  0.00    +0.000 C 
ATOM     14  C   UNL     1      -2.635  16.235  20.755  0.00  0.00    +0.000 C 
ATOM     15  C   UNL     1      -2.231  13.767  21.419  0.00  0.00    +0.000 C 
ATOM     16  C   UNL     1      -3.048  13.196  20.245  0.00  0.00    +0.000 C 
ATOM     17  C   UNL     1      -2.554  11.813  19.841  0.00  0.00    +0.000 C 
ATOM     18  C   UNL     1      -1.059  11.813  19.445  0.00  0.00    +0.000 C 
ATOM     19  C   UNL     1      -0.917  12.639  18.148  0.00  0.00    +0.000 C 
ENDROOT
BRANCH   1  21
ATOM     20  N   UNL     1       1.352   9.080  18.563  0.00  0.00    +0.000 NA
ATOM     21  C   UNL     1       0.529  10.038  18.362  0.00  0.00    +0.000 C 
BRANCH  20  22
ATOM     22  O   UNL     1       2.209   8.895  17.480  0.00  0.00    +0.000 OA
BRANCH  22  23
ATOM     23  C   UNL     1       2.992   7.743  17.782  0.00  0.00    +0.000 C 
BRANCH  23  24
ATOM     24  C   UNL     1       2.519   7.183  19.113  0.00  0.00    +0.000 C 
BRANCH  24  26
ATOM     25  C   UNL     1       4.132   5.433  19.381  0.00  0.00    +0.000 C 
ATOM     26  N   UNL     1       2.705   5.730  19.287  0.00  0.00    +0.000 NA
ATOM     27  C   UNL     1       2.011   5.228  20.480  0.00  0.00    +0.000 C 
ENDBRANCH  24  26
ENDBRANCH  23  24
ENDBRANCH  22  23
ENDBRANCH  20  22
ENDBRANCH   1  21
BRANCH   4  28
ATOM     28  O   UNL     1       1.155  12.567  20.081  0.00  0.00    +0.000 OA
ATOM     29  H   UNL     1       1.452  13.471  20.274  0.00  0.00    +0.000 HD
ENDBRANCH   4  28
BRANCH  10  30
ATOM     30  O   UNL     1      -4.137  16.083  25.195  0.00  0.00    +0.000 OA
ATOM     31  H   UNL     1      -4.284  16.656  24.424  0.00  0.00    +0.000 HD
ENDBRANCH  10  30
TORSDOF 7
ENDMDL
MODEL 5
REMARK VINA RESULT:      -5.8      1.464      2.895
REMARK  Name = 
REMARK  11 active torsions:
REMARK  status: ('A' for Active; 'I' for Inactive)
REMARK    1  A    between atoms: C_1  and  N_2
REMARK    2  A    between atoms: N_2  and  C_3
REMARK    3  A    between atoms: N_2  and  C_4
REMARK    4  A    between atoms: C_4  and  C_5
REMARK    5  A    between atoms: C_5  and  O_6
REMARK    6  A    between atoms: O_6  and  N_7
REMARK    7  A    between atoms: C_8  and  C_9
REMARK    8  A    between atoms: C_12  and  O_13
REMARK    9  A    between atoms: C_19  and  O_20
REMARK   10  A    between atoms: C_23  and  C_24
REMARK   11  A    between atoms: C_28  and  C_29
REMARK                            x       y       z     vdW  Elec       q    Type
REMARK                         _______ _______ _______ _____ _____    ______ ____
ROOT
ATOM      1  C   UNL     1       0.878  11.468  19.321  0.00  0.00    +0.000 C 
ATOM      2  C   UNL     1       0.371  12.586  18.385  0.00  0.00    +0.000 C 
ATOM      3  C   UNL     1      -1.034  12.985  18.852  0.00  0.00    +0.000 C 
ATOM      4  C   UNL     1      -1.478  11.875  19.810  0.00  0.00    +0.000 C 
ATOM      5  C   UNL     1      -2.583  12.253  20.835  0.00  0.00    +0.000 C 
ATOM      6  C   UNL     1      -3.841  12.821  20.152  0.00  0.00    +0.000 C 
ATOM      7  C   UNL     1      -4.943  13.162  21.151  0.00  0.00    +0.000 C 
ATOM      8  C   UNL     1      -4.474  14.089  22.285  0.00  0.00    +0.000 C 
ATOM      9  C   UNL     1      -4.257  15.523  21.745  0.00  0.00    +0.000 C 
ATOM     10  C   UNL     1      -3.746  16.501  22.801  0.00  0.00    +0.000 C 
ATOM     11  C   UNL     1      -2.514  15.960  23.520  0.00  0.00    +0.000 C 
ATOM     12  C   UNL     1      -2.755  14.564  24.087  0.00  0.00    +0.000 C 
ATOM     13  C   UNL     1      -3.218  13.524  23.023  0.00  0.00    +0.000 C 
ATOM     14  C   UNL     1      -3.622  12.255  23.822  0.00  0.00    +0.000 C 
ATOM     15  C   UNL     1      -2.091  13.208  21.967  0.00  0.00    +0.000 C 
ATOM     16  C   UNL     1      -0.791  12.693  22.613  0.00  0.00    +0.000 C 
ATOM     17  C   UNL     1       0.287  12.436  21.569  0.00  0.00    +0.000 C 
ATOM     18  C   UNL     1      -0.162  11.420  20.493  0.00  0.00    +0.000 C 
ATOM     19  C   UNL     1      -0.329  10.048  21.183  0.00  0.00    +0.000 C 
ENDROOT
BRANCH   1  21
ATOM     20  N   UNL     1       2.184   9.914  17.980  0.00  0.00    +0.000 NA
ATOM     21  C   UNL     1       1.069  10.172  18.551  0.00  0.00    +0.000 C 
BRANCH  20  22
ATOM     22  O   UNL     1       2.209   8.628  17.444  0.00  0.00    +0.000 OA
BRANCH  22  23
ATOM     23  C   UNL     1       2.582   7.758  18.510  0.00  0.00    +0.000 C 
BRANCH  23  24
ATOM     24  C   UNL     1       3.068   6.451  17.907  0.00  0.00    +0.000 C 
BRANCH  24  26
ATOM     25  C   UNL     1       4.793   4.876  18.438  0.00  0.00    +0.000 C 
ATOM     26  N   UNL     1       4.526   6.233  17.967  0.00  0.00    +0.000 NA
ATOM     27  C   UNL     1       5.166   6.444  16.663  0.00  0.00    +0.000 C 
ENDBRANCH  24  26
ENDBRANCH  23  24
ENDBRANCH  22  23
ENDBRANCH  20  22
ENDBRANCH   1  21
BRANCH   4  28
ATOM     28  O   UNL     1      -1.957  10.798  18.988  0.00  0.00    +0.000 OA
ATOM     29  H   UNL     1      -2.481  11.163  18.257  0.00  0.00    +0.000 HD
ENDBRANCH   4  28
BRANCH  10  30
ATOM     30  O   UNL     1      -4.778  16.799  23.737  0.00  0.00    +0.000 OA
ATOM     31  H   UNL     1      -4.508  16.488  24.616  0.00  0.00    +0.000 HD
ENDBRANCH  10  30
TORSDOF 7
ENDMDL
MODEL 6
REMARK VINA RESULT:      -5.8      0.937      1.298
REMARK  Name = 
REMARK  11 active torsions:
REMARK  status: ('A' for Active; 'I' for Inactive)
REMARK    1  A    between atoms: C_1  and  N_2
REMARK    2  A    between atoms: N_2  and  C_3
REMARK    3  A    between atoms: N_2  and  C_4
REMARK    4  A    between atoms: C_4  and  C_5
REMARK    5  A    between atoms: C_5  and  O_6
REMARK    6  A    between atoms: O_6  and  N_7
REMARK    7  A    between atoms: C_8  and  C_9
REMARK    8  A    between atoms: C_12  and  O_13
REMARK    9  A    between atoms: C_19  and  O_20
REMARK   10  A    between atoms: C_23  and  C_24
REMARK   11  A    between atoms: C_28  and  C_29
REMARK                            x       y       z     vdW  Elec       q    Type
REMARK                         _______ _______ _______ _____ _____    ______ ____
ROOT
ATOM      1  C   UNL     1      -0.019   9.680  19.508  0.00  0.00    +0.000 C 
ATOM      2  C   UNL     1      -0.166   9.114  20.936  0.00  0.00    +0.000 C 
ATOM      3  C   UNL     1      -0.488  10.285  21.872  0.00  0.00    +0.000 C 
ATOM      4  C   UNL     1      -0.176  11.551  21.066  0.00  0.00    +0.000 C 
ATOM      5  C   UNL     1      -0.894  12.851  21.524  0.00  0.00    +0.000 C 
ATOM      6  C   UNL     1      -0.643  13.163  23.011  0.00  0.00    +0.000 C 
ATOM      7  C   UNL     1      -1.317  14.457  23.457  0.00  0.00    +0.000 C 
ATOM      8  C   UNL     1      -2.821  14.503  23.137  0.00  0.00    +0.000 C 
ATOM      9  C   UNL     1      -3.596  13.551  24.079  0.00  0.00    +0.000 C 
ATOM     10  C   UNL     1      -5.096  13.505  23.799  0.00  0.00    +0.000 C 
ATOM     11  C   UNL     1      -5.386  13.225  22.327  0.00  0.00    +0.000 C 
ATOM     12  C   UNL     1      -4.651  14.199  21.410  0.00  0.00    +0.000 C 
ATOM     13  C   UNL     1      -3.109  14.227  21.627  0.00  0.00    +0.000 C 
ATOM     14  C   UNL     1      -2.585  15.418  20.779  0.00  0.00    +0.000 C 
ATOM     15  C   UNL     1      -2.422  12.871  21.206  0.00  0.00    +0.000 C 
ATOM     16  C   UNL     1      -2.697  12.490  19.739  0.00  0.00    +0.000 C 
ATOM     17  C   UNL     1      -2.053  11.158  19.378  0.00  0.00    +0.000 C 
ATOM     18  C   UNL     1      -0.523  11.161  19.605  0.00  0.00    +0.000 C 
ATOM     19  C   UNL     1       0.100  12.148  18.594  0.00  0.00    +0.000 C 
ENDROOT
BRANCH   1  21
ATOM     20  N   UNL     1       1.830   8.336  18.675  0.00  0.00    +0.000 NA
ATOM     21  C   UNL     1       1.402   9.495  19.003  0.00  0.00    +0.000 C 
BRANCH  20  22
ATOM     22  O   UNL     1       3.104   8.391  18.112  0.00  0.00    +0.000 OA
BRANCH  22  23
ATOM     23  C   UNL     1       3.443   7.053  17.758  0.00  0.00    +0.000 C 
BRANCH  23  24
ATOM     24  C   UNL     1       4.882   7.042  17.270  0.00  0.00    +0.000 C 
BRANCH  24  26
ATOM     25  C   UNL     1       7.078   6.372  17.953  0.00  0.00    +0.000 C 
ATOM     26  N   UNL     1       5.704   5.917  17.757  0.00  0.00    +0.000 NA
ATOM     27  C   UNL     1       5.180   5.357  19.009  0.00  0.00    +0.000 C 
ENDBRANCH  24  26
ENDBRANCH  23  24
ENDBRANCH  22  23
ENDBRANCH  20  22
ENDBRANCH   1  21
BRANCH   4  28
ATOM     28  O   UNL     1       1.244  11.749  21.156  0.00  0.00    +0.000 OA
ATOM     29  H   UNL     1       1.477  11.985  22.069  0.00  0.00    +0.000 HD
ENDBRANCH   4  28
BRANCH  10  30
ATOM     30  O   UNL     1      -5.712  14.724  24.205  0.00  0.00    +0.000 OA
ATOM     31  H   UNL     1      -5.138  15.169  24.850  0.00  0.00    +0.000 HD
ENDBRANCH  10  30
TORSDOF 7
ENDMDL
MODEL 7
REMARK VINA RESULT:      -5.7      1.332      1.888
REMARK  Name = 
REMARK  11 active torsions:
REMARK  status: ('A' for Active; 'I' for Inactive)
REMARK    1  A    between atoms: C_1  and  N_2
REMARK    2  A    between atoms: N_2  and  C_3
REMARK    3  A    between atoms: N_2  and  C_4
REMARK    4  A    between atoms: C_4  and  C_5
REMARK    5  A    between atoms: C_5  and  O_6
REMARK    6  A    between atoms: O_6  and  N_7
REMARK    7  A    between atoms: C_8  and  C_9
REMARK    8  A    between atoms: C_12  and  O_13
REMARK    9  A    between atoms: C_19  and  O_20
REMARK   10  A    between atoms: C_23  and  C_24
REMARK   11  A    between atoms: C_28  and  C_29
REMARK                            x       y       z     vdW  Elec       q    Type
REMARK                         _______ _______ _______ _____ _____    ______ ____
ROOT
ATOM      1  C   UNL     1       0.615  10.918  18.049  0.00  0.00    +0.000 C 
ATOM      2  C   UNL     1      -0.611  10.020  18.317  0.00  0.00    +0.000 C 
ATOM      3  C   UNL     1      -1.209  10.436  19.667  0.00  0.00    +0.000 C 
ATOM      4  C   UNL     1      -0.141  11.308  20.336  0.00  0.00    +0.000 C 
ATOM      5  C   UNL     1      -0.644  12.295  21.426  0.00  0.00    +0.000 C 
ATOM      6  C   UNL     1      -1.437  11.581  22.537  0.00  0.00    +0.000 C 
ATOM      7  C   UNL     1      -1.904  12.540  23.628  0.00  0.00    +0.000 C 
ATOM      8  C   UNL     1      -2.692  13.745  23.085  0.00  0.00    +0.000 C 
ATOM      9  C   UNL     1      -4.095  13.295  22.614  0.00  0.00    +0.000 C 
ATOM     10  C   UNL     1      -4.929  14.428  22.019  0.00  0.00    +0.000 C 
ATOM     11  C   UNL     1      -4.166  15.178  20.932  0.00  0.00    +0.000 C 
ATOM     12  C   UNL     1      -2.802  15.654  21.423  0.00  0.00    +0.000 C 
ATOM     13  C   UNL     1      -1.899  14.514  21.980  0.00  0.00    +0.000 C 
ATOM     14  C   UNL     1      -0.676  15.221  22.625  0.00  0.00    +0.000 C 
ATOM     15  C   UNL     1      -1.455  13.501  20.857  0.00  0.00    +0.000 C 
ATOM     16  C   UNL     1      -0.710  14.183  19.694  0.00  0.00    +0.000 C 
ATOM     17  C   UNL     1      -0.331  13.183  18.610  0.00  0.00    +0.000 C 
ATOM     18  C   UNL     1       0.549  12.031  19.150  0.00  0.00    +0.000 C 
ATOM     19  C   UNL     1       1.907  12.637  19.571  0.00  0.00    +0.000 C 
ENDROOT
BRANCH   1  21
ATOM     20  N   UNL     1       1.844   8.823  18.191  0.00  0.00    +0.000 NA
ATOM     21  C   UNL     1       1.888  10.089  18.018  0.00  0.00    +0.000 C 
BRANCH  20  22
ATOM     22  O   UNL     1       3.089   8.228  17.994  0.00  0.00    +0.000 OA
BRANCH  22  23
ATOM     23  C   UNL     1       2.867   6.820  18.021  0.00  0.00    +0.000 C 
BRANCH  23  24
ATOM     24  C   UNL     1       2.772   6.382  19.472  0.00  0.00    +0.000 C 
BRANCH  24  26
ATOM     25  C   UNL     1       2.012   4.658  20.951  0.00  0.00    +0.000 C 
ATOM     26  N   UNL     1       2.694   4.924  19.687  0.00  0.00    +0.000 NA
ATOM     27  C   UNL     1       1.994   4.245  18.589  0.00  0.00    +0.000 C 
ENDBRANCH  24  26
ENDBRANCH  23  24
ENDBRANCH  22  23
ENDBRANCH  20  22
ENDBRANCH   1  21
BRANCH   4  28
ATOM     28  O   UNL     1       0.806  10.406  20.929  0.00  0.00    +0.000 OA
ATOM     29  H   UNL     1       1.282   9.934  20.225  0.00  0.00    +0.000 HD
ENDBRANCH   4  28
BRANCH  10  30
ATOM     30  O   UNL     1      -5.346  15.325  23.045  0.00  0.00    +0.000 OA
ATOM     31  H   UNL     1      -5.411  16.220  22.675  0.00  0.00    +0.000 HD
ENDBRANCH  10  30
TORSDOF 7
ENDMDL
MODEL 8
REMARK VINA RESULT:      -5.7      1.313      1.917
REMARK  Name = 
REMARK  11 active torsions:
REMARK  status: ('A' for Active; 'I' for Inactive)
REMARK    1  A    between atoms: C_1  and  N_2
REMARK    2  A    between atoms: N_2  and  C_3
REMARK    3  A    between atoms: N_2  and  C_4
REMARK    4  A    between atoms: C_4  and  C_5
REMARK    5  A    between atoms: C_5  and  O_6
REMARK    6  A    between atoms: O_6  and  N_7
REMARK    7  A    between atoms: C_8  and  C_9
REMARK    8  A    between atoms: C_12  and  O_13
REMARK    9  A    between atoms: C_19  and  O_20
REMARK   10  A    between atoms: C_23  and  C_24
REMARK   11  A    between atoms: C_28  and  C_29
REMARK                            x       y       z     vdW  Elec       q    Type
REMARK                         _______ _______ _______ _____ _____    ______ ____
ROOT
ATOM      1  C   UNL     1       0.604  10.648  17.915  0.00  0.00    +0.000 C 
ATOM      2  C   UNL     1      -0.637   9.801  18.271  0.00  0.00    +0.000 C 
ATOM      3  C   UNL     1      -1.167  10.296  19.622  0.00  0.00    +0.000 C 
ATOM      4  C   UNL     1      -0.048  11.163  20.209  0.00  0.00    +0.000 C 
ATOM      5  C   UNL     1      -0.478  12.213  21.271  0.00  0.00    +0.000 C 
ATOM      6  C   UNL     1      -1.247  11.575  22.443  0.00  0.00    +0.000 C 
ATOM      7  C   UNL     1      -1.641  12.596  23.506  0.00  0.00    +0.000 C 
ATOM      8  C   UNL     1      -2.413  13.800  22.940  0.00  0.00    +0.000 C 
ATOM      9  C   UNL     1      -3.847  13.375  22.544  0.00  0.00    +0.000 C 
ATOM     10  C   UNL     1      -4.670  14.506  21.930  0.00  0.00    +0.000 C 
ATOM     11  C   UNL     1      -3.928  15.182  20.781  0.00  0.00    +0.000 C 
ATOM     12  C   UNL     1      -2.532  15.636  21.197  0.00  0.00    +0.000 C 
ATOM     13  C   UNL     1      -1.642  14.494  21.771  0.00  0.00    +0.000 C 
ATOM     14  C   UNL     1      -0.374  15.190  22.335  0.00  0.00    +0.000 C 
ATOM     15  C   UNL     1      -1.274  13.417  20.679  0.00  0.00    +0.000 C 
ATOM     16  C   UNL     1      -0.555  14.023  19.459  0.00  0.00    +0.000 C 
ATOM     17  C   UNL     1      -0.250  12.964  18.408  0.00  0.00    +0.000 C 
ATOM     18  C   UNL     1       0.616  11.810  18.966  0.00  0.00    +0.000 C 
ATOM     19  C   UNL     1       2.007  12.390  19.307  0.00  0.00    +0.000 C 
ENDROOT
BRANCH   1  21
ATOM     20  N   UNL     1       1.847   8.613  18.401  0.00  0.00    +0.000 NA
ATOM     21  C   UNL     1       1.850   9.778  17.874  0.00  0.00    +0.000 C 
BRANCH  20  22
ATOM     22  O   UNL     1       3.030   7.923  18.143  0.00  0.00    +0.000 OA
BRANCH  22  23
ATOM     23  C   UNL     1       2.706   6.536  18.206  0.00  0.00    +0.000 C 
BRANCH  23  24
ATOM     24  C   UNL     1       3.462   5.924  19.373  0.00  0.00    +0.000 C 
BRANCH  24  26
ATOM     25  C   UNL     1       4.138   4.417  17.638  0.00  0.00    +0.000 C 
ATOM     26  N   UNL     1       4.376   4.820  19.022  0.00  0.00    +0.000 NA
ATOM     27  C   UNL     1       5.784   5.197  19.198  0.00  0.00    +0.000 C 
ENDBRANCH  24  26
ENDBRANCH  23  24
ENDBRANCH  22  23
ENDBRANCH  20  22
ENDBRANCH   1  21
BRANCH   4  28
ATOM     28  O   UNL     1       0.894  10.258  20.806  0.00  0.00    +0.000 OA
ATOM     29  H   UNL     1       0.433   9.694  21.449  0.00  0.00    +0.000 HD
ENDBRANCH   4  28
BRANCH  10  30
ATOM     30  O   UNL     1      -5.018  15.460  22.928  0.00  0.00    +0.000 OA
ATOM     31  H   UNL     1      -4.249  15.613  23.502  0.00  0.00    +0.000 HD
ENDBRANCH  10  30
TORSDOF 7
ENDMDL
MODEL 9
REMARK VINA RESULT:      -5.7      9.610     11.502
REMARK  Name = 
REMARK  11 active torsions:
REMARK  status: ('A' for Active; 'I' for Inactive)
REMARK    1  A    between atoms: C_1  and  N_2
REMARK    2  A    between atoms: N_2  and  C_3
REMARK    3  A    between atoms: N_2  and  C_4
REMARK    4  A    between atoms: C_4  and  C_5
REMARK    5  A    between atoms: C_5  and  O_6
REMARK    6  A    between atoms: O_6  and  N_7
REMARK    7  A    between atoms: C_8  and  C_9
REMARK    8  A    between atoms: C_12  and  O_13
REMARK    9  A    between atoms: C_19  and  O_20
REMARK   10  A    between atoms: C_23  and  C_24
REMARK   11  A    between atoms: C_28  and  C_29
REMARK                            x       y       z     vdW  Elec       q    Type
REMARK                         _______ _______ _______ _____ _____    ______ ____
ROOT
ATOM      1  C   UNL     1       8.701  10.597  18.915  0.00  0.00    +0.000 C 
ATOM      2  C   UNL     1      10.026  10.420  19.686  0.00  0.00    +0.000 C 
ATOM      3  C   UNL     1      10.883  11.667  19.434  0.00  0.00    +0.000 C 
ATOM      4  C   UNL     1      10.222  12.386  18.253  0.00  0.00    +0.000 C 
ATOM      5  C   UNL     1      10.519  13.906  18.121  0.00  0.00    +0.000 C 
ATOM      6  C   UNL     1      12.030  14.202  18.071  0.00  0.00    +0.000 C 
ATOM      7  C   UNL     1      12.327  15.690  17.907  0.00  0.00    +0.000 C 
ATOM      8  C   UNL     1      11.634  16.571  18.960  0.00  0.00    +0.000 C 
ATOM      9  C   UNL     1      12.317  16.392  20.337  0.00  0.00    +0.000 C 
ATOM     10  C   UNL     1      11.660  17.202  21.453  0.00  0.00    +0.000 C 
ATOM     11  C   UNL     1      10.155  16.956  21.516  0.00  0.00    +0.000 C 
ATOM     12  C   UNL     1       9.487  17.179  20.163  0.00  0.00    +0.000 C 
ATOM     13  C   UNL     1      10.092  16.321  19.012  0.00  0.00    +0.000 C 
ATOM     14  C   UNL     1       9.443  16.851  17.705  0.00  0.00    +0.000 C 
ATOM     15  C   UNL     1       9.821  14.780  19.209  0.00  0.00    +0.000 C 
ATOM     16  C   UNL     1       8.322  14.445  19.324  0.00  0.00    +0.000 C 
ATOM     17  C   UNL     1       8.098  12.957  19.554  0.00  0.00    +0.000 C 
ATOM     18  C   UNL     1       8.710  12.087  18.430  0.00  0.00    +0.000 C 
ATOM     19  C   UNL     1       7.922  12.375  17.133  0.00  0.00    +0.000 C 
ENDROOT
BRANCH   1  21
ATOM     20  N   UNL     1       7.945   8.454  18.046  0.00  0.00    +0.000 NA
ATOM     21  C   UNL     1       8.572   9.546  17.825  0.00  0.00    +0.000 C 
BRANCH  20  22
ATOM     22  O   UNL     1       7.819   7.684  16.892  0.00  0.00    +0.000 OA
BRANCH  22  23
ATOM     23  C   UNL     1       6.604   6.951  17.030  0.00  0.00    +0.000 C 
BRANCH  23  24
ATOM     24  C   UNL     1       6.684   6.139  18.312  0.00  0.00    +0.000 C 
BRANCH  24  26
ATOM     25  C   UNL     1       5.234   4.495  19.278  0.00  0.00    +0.000 C 
ATOM     26  N   UNL     1       6.196   4.749  18.208  0.00  0.00    +0.000 NA
ATOM     27  C   UNL     1       5.576   4.482  16.905  0.00  0.00    +0.000 C 
ENDBRANCH  24  26
ENDBRANCH  23  24
ENDBRANCH  22  23
ENDBRANCH  20  22
ENDBRANCH   1  21
BRANCH   4  28
ATOM     28  O   UNL     1      10.679  11.720  17.066  0.00  0.00    +0.000 OA
ATOM     29  H   UNL     1       9.938  11.630  16.444  0.00  0.00    +0.000 HD
ENDBRANCH   4  28
BRANCH  10  30
ATOM     30  O   UNL     1      11.930  18.590  21.279  0.00  0.00    +0.000 OA
ATOM     31  H   UNL     1      11.459  19.092  21.963  0.00  0.00    +0.000 HD
ENDBRANCH  10  30
TORSDOF 7
ENDMDL
