MODEL 1
REMARK VINA RESULT:      -8.2      0.000      0.000
REMARK  Name = 
REMARK  7 active torsions:
REMARK  status: ('A' for Active; 'I' for Inactive)
REMARK    1  A    between atoms: C_1  and  C_2
REMARK    2  A    between atoms: C_2  and  N_3
REMARK    3  A    between atoms: N_6  and  C_7
REMARK    4  A    between atoms: C_7  and  C_8
REMARK    5  A    between atoms: C_7  and  C_16
REMARK    6  A    between atoms: C_8  and  C_9
REMARK    7  A    between atoms: C_13  and  O_14
REMARK                            x       y       z     vdW  Elec       q    Type
REMARK                         _______ _______ _______ _____ _____    ______ ____
ROOT
ATOM      1  C   UNL     1       3.562   6.182  18.873  0.00  0.00    +0.000 C 
ENDROOT
BRANCH   1   5
ATOM      2  N   UNL     1       5.339   4.791  15.574  0.00  0.00    +0.000 NA
ATOM      3  C   UNL     1       4.815   3.872  16.605  0.00  0.00    +0.000 C 
ATOM      4  C   UNL     1       5.150   4.281  18.058  0.00  0.00    +0.000 C 
ATOM      5  N   UNL     1       4.890   5.701  18.335  0.00  0.00    +0.000 NA
ATOM      6  C   UNL     1       5.597   6.551  17.351  0.00  0.00    +0.000 C 
ATOM      7  C   UNL     1       5.187   6.226  15.903  0.00  0.00    +0.000 C 
BRANCH   2   9
ATOM      8  C   UNL     1       6.413   3.918  13.517  0.00  0.00    +0.000 C 
ATOM      9  C   UNL     1       6.620   4.412  14.957  0.00  0.00    +0.000 C 
ENDBRANCH   2   9
ENDBRANCH   1   5
BRANCH   1  10
ATOM     10  C   UNL     1       2.610   5.025  19.275  0.00  0.00    +0.000 A 
ATOM     11  C   UNL     1       2.508   4.610  20.620  0.00  0.00    +0.000 A 
ATOM     12  C   UNL     1       1.676   3.534  20.978  0.00  0.00    +0.000 A 
ATOM     13  C   UNL     1       0.939   2.853  20.007  0.00  0.00    +0.000 A 
ATOM     14  C   UNL     1       0.988   3.276  18.685  0.00  0.00    +0.000 A 
ATOM     15  C   UNL     1       1.779   4.362  18.332  0.00  0.00    +0.000 A 
ENDBRANCH   1  10
BRANCH   1  16
ATOM     16  C   UNL     1       2.871   7.312  18.042  0.00  0.00    +0.000 C 
BRANCH  16  17
ATOM     17  C   UNL     1       1.922   8.318  18.699  0.00  0.00    +0.000 A 
ATOM     18  C   UNL     1       1.693   8.220  20.085  0.00  0.00    +0.000 A 
ATOM     19  C   UNL     1       0.812   9.098  20.730  0.00  0.00    +0.000 A 
ATOM     20  C   UNL     1       0.123  10.071  20.007  0.00  0.00    +0.000 A 
ATOM     21  C   UNL     1       0.342  10.198  18.642  0.00  0.00    +0.000 A 
ATOM     22  C   UNL     1       1.245   9.362  18.003  0.00  0.00    +0.000 A 
BRANCH  21  23
ATOM     23  O   UNL     1      -0.322  11.116  17.900  0.00  0.00    +0.000 OA
ATOM     24  H   UNL     1       0.054  11.981  17.687  0.00  0.00    +0.000 HD
ENDBRANCH  21  23
ENDBRANCH  16  17
ENDBRANCH   1  16
TORSDOF 6
ENDMDL
MODEL 2
REMARK VINA RESULT:      -8.2      0.099      1.010
REMARK  Name = 
REMARK  7 active torsions:
REMARK  status: ('A' for Active; 'I' for Inactive)
REMARK    1  A    between atoms: C_1  and  C_2
REMARK    2  A    between atoms: C_2  and  N_3
REMARK    3  A    between atoms: N_6  and  C_7
REMARK    4  A    between atoms: C_7  and  C_8
REMARK    5  A    between atoms: C_7  and  C_16
REMARK    6  A    between atoms: C_8  and  C_9
REMARK    7  A    between atoms: C_13  and  O_14
REMARK                            x       y       z     vdW  Elec       q    Type
REMARK                         _______ _______ _______ _____ _____    ______ ____
ROOT
ATOM      1  C   UNL     1       3.614   6.227  18.849  0.00  0.00    +0.000 C 
ENDROOT
BRANCH   1   5
ATOM      2  N   UNL     1       5.365   4.695  15.599  0.00  0.00    +0.000 NA
ATOM      3  C   UNL     1       4.897   3.824  16.697  0.00  0.00    +0.000 C 
ATOM      4  C   UNL     1       5.250   4.334  18.113  0.00  0.00    +0.000 C 
ATOM      5  N   UNL     1       4.946   5.760  18.309  0.00  0.00    +0.000 NA
ATOM      6  C   UNL     1       5.602   6.570  17.258  0.00  0.00    +0.000 C 
ATOM      7  C   UNL     1       5.171   6.142  15.843  0.00  0.00    +0.000 C 
BRANCH   2   9
ATOM      8  C   UNL     1       6.455   3.986  13.488  0.00  0.00    +0.000 C 
ATOM      9  C   UNL     1       6.645   4.322  14.976  0.00  0.00    +0.000 C 
ENDBRANCH   2   9
ENDBRANCH   1   5
BRANCH   1  10
ATOM     10  C   UNL     1       2.661   5.062  19.221  0.00  0.00    +0.000 A 
ATOM     11  C   UNL     1       1.907   4.402  18.226  0.00  0.00    +0.000 A 
ATOM     12  C   UNL     1       1.012   3.373  18.571  0.00  0.00    +0.000 A 
ATOM     13  C   UNL     1       0.850   2.989  19.903  0.00  0.00    +0.000 A 
ATOM     14  C   UNL     1       1.618   3.592  20.891  0.00  0.00    +0.000 A 
ATOM     15  C   UNL     1       2.531   4.583  20.552  0.00  0.00    +0.000 A 
ENDBRANCH   1  10
BRANCH   1  16
ATOM     16  C   UNL     1       2.928   7.374  18.038  0.00  0.00    +0.000 C 
BRANCH  16  17
ATOM     17  C   UNL     1       1.959   8.355  18.706  0.00  0.00    +0.000 A 
ATOM     18  C   UNL     1       1.726   8.230  20.088  0.00  0.00    +0.000 A 
ATOM     19  C   UNL     1       0.827   9.084  20.743  0.00  0.00    +0.000 A 
ATOM     20  C   UNL     1       0.127  10.057  20.032  0.00  0.00    +0.000 A 
ATOM     21  C   UNL     1       0.350  10.210  18.670  0.00  0.00    +0.000 A 
ATOM     22  C   UNL     1       1.269   9.398  18.023  0.00  0.00    +0.000 A 
BRANCH  21  23
ATOM     23  O   UNL     1      -0.325  11.129  17.940  0.00  0.00    +0.000 OA
ATOM     24  H   UNL     1      -0.643  10.948  17.045  0.00  0.00    +0.000 HD
ENDBRANCH  21  23
ENDBRANCH  16  17
ENDBRANCH   1  16
TORSDOF 6
ENDMDL
MODEL 3
REMARK VINA RESULT:      -8.1      0.998      1.412
REMARK  Name = 
REMARK  7 active torsions:
REMARK  status: ('A' for Active; 'I' for Inactive)
REMARK    1  A    between atoms: C_1  and  C_2
REMARK    2  A    between atoms: C_2  and  N_3
REMARK    3  A    between atoms: N_6  and  C_7
REMARK    4  A    between atoms: C_7  and  C_8
REMARK    5  A    between atoms: C_7  and  C_16
REMARK    6  A    between atoms: C_8  and  C_9
REMARK    7  A    between atoms: C_13  and  O_14
REMARK                            x       y       z     vdW  Elec       q    Type
REMARK                         _______ _______ _______ _____ _____    ______ ____
ROOT
ATOM      1  C   UNL     1       3.517   6.018  19.008  0.00  0.00    +0.000 C 
ENDROOT
BRANCH   1   5
ATOM      2  N   UNL     1       5.268   4.682  15.673  0.00  0.00    +0.000 NA
ATOM      3  C   UNL     1       4.722   3.746  16.677  0.00  0.00    +0.000 C 
ATOM      4  C   UNL     1       5.064   4.106  18.141  0.00  0.00    +0.000 C 
ATOM      5  N   UNL     1       4.835   5.523  18.458  0.00  0.00    +0.000 NA
ATOM      6  C   UNL     1       5.563   6.385  17.500  0.00  0.00    +0.000 C 
ATOM      7  C   UNL     1       5.148   6.110  16.043  0.00  0.00    +0.000 C 
BRANCH   2   9
ATOM      8  C   UNL     1       6.348   3.976  13.556  0.00  0.00    +0.000 C 
ATOM      9  C   UNL     1       6.542   4.292  15.047  0.00  0.00    +0.000 C 
ENDBRANCH   2   9
ENDBRANCH   1   5
BRANCH   1  10
ATOM     10  C   UNL     1       2.592   4.875  19.503  0.00  0.00    +0.000 A 
ATOM     11  C   UNL     1       2.603   4.475  20.857  0.00  0.00    +0.000 A 
ATOM     12  C   UNL     1       1.795   3.411  21.296  0.00  0.00    +0.000 A 
ATOM     13  C   UNL     1       0.971   2.728  20.399  0.00  0.00    +0.000 A 
ATOM     14  C   UNL     1       0.909   3.137  19.073  0.00  0.00    +0.000 A 
ATOM     15  C   UNL     1       1.678   4.212  18.642  0.00  0.00    +0.000 A 
ENDBRANCH   1  10
BRANCH   1  16
ATOM     16  C   UNL     1       2.787   7.092  18.136  0.00  0.00    +0.000 C 
BRANCH  16  17
ATOM     17  C   UNL     1       1.969   8.217  18.776  0.00  0.00    +0.000 A 
ATOM     18  C   UNL     1       1.549   9.287  17.962  0.00  0.00    +0.000 A 
ATOM     19  C   UNL     1       0.822  10.355  18.503  0.00  0.00    +0.000 A 
ATOM     20  C   UNL     1       0.522  10.394  19.864  0.00  0.00    +0.000 A 
ATOM     21  C   UNL     1       0.913   9.344  20.686  0.00  0.00    +0.000 A 
ATOM     22  C   UNL     1       1.594   8.262  20.150  0.00  0.00    +0.000 A 
BRANCH  21  23
ATOM     23  O   UNL     1       0.660   9.353  22.015  0.00  0.00    +0.000 OA
ATOM     24  H   UNL     1      -0.048   9.885  22.405  0.00  0.00    +0.000 HD
ENDBRANCH  21  23
ENDBRANCH  16  17
ENDBRANCH   1  16
TORSDOF 6
ENDMDL
MODEL 4
REMARK VINA RESULT:      -8.0      0.987      1.728
REMARK  Name = 
REMARK  7 active torsions:
REMARK  status: ('A' for Active; 'I' for Inactive)
REMARK    1  A    between atoms: C_1  and  C_2
REMARK    2  A    between atoms: C_2  and  N_3
REMARK    3  A    between atoms: N_6  and  C_7
REMARK    4  A    between atoms: C_7  and  C_8
REMARK    5  A    between atoms: C_7  and  C_16
REMARK    6  A    between atoms: C_8  and  C_9
REMARK    7  A    between atoms: C_13  and  O_14
REMARK                            x       y       z     vdW  Elec       q    Type
REMARK                         _______ _______ _______ _____ _____    ______ ____
ROOT
ATOM      1  C   UNL     1       3.598   6.125  18.891  0.00  0.00    +0.000 C 
ENDROOT
BRANCH   1   5
ATOM      2  N   UNL     1       5.321   4.915  15.494  0.00  0.00    +0.000 NA
ATOM      3  C   UNL     1       4.790   3.941  16.470  0.00  0.00    +0.000 C 
ATOM      4  C   UNL     1       5.145   4.252  17.942  0.00  0.00    +0.000 C 
ATOM      5  N   UNL     1       4.912   5.657  18.311  0.00  0.00    +0.000 NA
ATOM      6  C   UNL     1       5.627   6.555  17.375  0.00  0.00    +0.000 C 
ATOM      7  C   UNL     1       5.198   6.329  15.914  0.00  0.00    +0.000 C 
BRANCH   2   9
ATOM      8  C   UNL     1       6.339   3.876  13.486  0.00  0.00    +0.000 C 
ATOM      9  C   UNL     1       6.590   4.553  14.842  0.00  0.00    +0.000 C 
ENDBRANCH   2   9
ENDBRANCH   1   5
BRANCH   1  10
ATOM     10  C   UNL     1       2.678   4.960  19.342  0.00  0.00    +0.000 A 
ATOM     11  C   UNL     1       1.820   4.321  18.420  0.00  0.00    +0.000 A 
ATOM     12  C   UNL     1       0.957   3.293  18.840  0.00  0.00    +0.000 A 
ATOM     13  C   UNL     1       0.929   2.889  20.176  0.00  0.00    +0.000 A 
ATOM     14  C   UNL     1       1.800   3.472  21.088  0.00  0.00    +0.000 A 
ATOM     15  C   UNL     1       2.681   4.462  20.672  0.00  0.00    +0.000 A 
ENDBRANCH   1  10
BRANCH   1  16
ATOM     16  C   UNL     1       2.861   7.234  18.072  0.00  0.00    +0.000 C 
BRANCH  16  17
ATOM     17  C   UNL     1       1.968   8.272  18.758  0.00  0.00    +0.000 A 
ATOM     18  C   UNL     1       1.434   9.317  17.979  0.00  0.00    +0.000 A 
ATOM     19  C   UNL     1       0.634  10.309  18.563  0.00  0.00    +0.000 A 
ATOM     20  C   UNL     1       0.371  10.294  19.932  0.00  0.00    +0.000 A 
ATOM     21  C   UNL     1       0.874   9.266  20.719  0.00  0.00    +0.000 A 
ATOM     22  C   UNL     1       1.630   8.258  20.142  0.00  0.00    +0.000 A 
BRANCH  21  23
ATOM     23  O   UNL     1       0.659   9.228  22.055  0.00  0.00    +0.000 OA
ATOM     24  H   UNL     1       1.377   9.310  22.698  0.00  0.00    +0.000 HD
ENDBRANCH  21  23
ENDBRANCH  16  17
ENDBRANCH   1  16
TORSDOF 6
ENDMDL
MODEL 5
REMARK VINA RESULT:      -8.0      3.777      7.291
REMARK  Name = 
REMARK  7 active torsions:
REMARK  status: ('A' for Active; 'I' for Inactive)
REMARK    1  A    between atoms: C_1  and  C_2
REMARK    2  A    between atoms: C_2  and  N_3
REMARK    3  A    between atoms: N_6  and  C_7
REMARK    4  A    between atoms: C_7  and  C_8
REMARK    5  A    between atoms: C_7  and  C_16
REMARK    6  A    between atoms: C_8  and  C_9
REMARK    7  A    between atoms: C_13  and  O_14
REMARK                            x       y       z     vdW  Elec       q    Type
REMARK                         _______ _______ _______ _____ _____    ______ ____
ROOT
ATOM      1  C   UNL     1       5.399   4.408  17.237  0.00  0.00    +0.000 C 
ENDROOT
BRANCH   1   5
ATOM      2  N   UNL     1       1.699   3.020  17.836  0.00  0.00    +0.000 NA
ATOM      3  C   UNL     1       1.986   4.469  17.868  0.00  0.00    +0.000 C 
ATOM      4  C   UNL     1       3.259   4.852  18.659  0.00  0.00    +0.000 C 
ATOM      5  N   UNL     1       4.423   4.019  18.323  0.00  0.00    +0.000 NA
ATOM      6  C   UNL     1       4.089   2.586  18.487  0.00  0.00    +0.000 C 
ATOM      7  C   UNL     1       2.890   2.168  17.618  0.00  0.00    +0.000 C 
BRANCH   2   9
ATOM      8  C   UNL     1       0.766   3.397  20.102  0.00  0.00    +0.000 C 
ATOM      9  C   UNL     1       0.738   2.527  18.836  0.00  0.00    +0.000 C 
ENDBRANCH   2   9
ENDBRANCH   1   5
BRANCH   1  10
ATOM     10  C   UNL     1       6.332   5.579  17.643  0.00  0.00    +0.000 A 
ATOM     11  C   UNL     1       6.160   6.864  17.083  0.00  0.00    +0.000 A 
ATOM     12  C   UNL     1       7.033   7.914  17.421  0.00  0.00    +0.000 A 
ATOM     13  C   UNL     1       8.087   7.704  18.312  0.00  0.00    +0.000 A 
ATOM     14  C   UNL     1       8.244   6.460  18.910  0.00  0.00    +0.000 A 
ATOM     15  C   UNL     1       7.363   5.429  18.609  0.00  0.00    +0.000 A 
ENDBRANCH   1  10
BRANCH   1  16
ATOM     16  C   UNL     1       4.787   4.551  15.806  0.00  0.00    +0.000 C 
BRANCH  16  17
ATOM     17  C   UNL     1       5.662   4.463  14.551  0.00  0.00    +0.000 A 
ATOM     18  C   UNL     1       5.286   3.566  13.533  0.00  0.00    +0.000 A 
ATOM     19  C   UNL     1       6.066   3.426  12.378  0.00  0.00    +0.000 A 
ATOM     20  C   UNL     1       7.245   4.155  12.224  0.00  0.00    +0.000 A 
ATOM     21  C   UNL     1       7.630   5.057  13.208  0.00  0.00    +0.000 A 
ATOM     22  C   UNL     1       6.841   5.233  14.334  0.00  0.00    +0.000 A 
BRANCH  21  23
ATOM     23  O   UNL     1       8.778   5.767  13.107  0.00  0.00    +0.000 OA
ATOM     24  H   UNL     1       9.342   5.733  12.322  0.00  0.00    +0.000 HD
ENDBRANCH  21  23
ENDBRANCH  16  17
ENDBRANCH   1  16
TORSDOF 6
ENDMDL
MODEL 6
REMARK VINA RESULT:      -7.9      3.891      6.211
REMARK  Name = 
REMARK  7 active torsions:
REMARK  status: ('A' for Active; 'I' for Inactive)
REMARK    1  A    between atoms: C_1  and  C_2
REMARK    2  A    between atoms: C_2  and  N_3
REMARK    3  A    between atoms: N_6  and  C_7
REMARK    4  A    between atoms: C_7  and  C_8
REMARK    5  A    between atoms: C_7  and  C_16
REMARK    6  A    between atoms: C_8  and  C_9
REMARK    7  A    between atoms: C_13  and  O_14
REMARK                            x       y       z     vdW  Elec       q    Type
REMARK                         _______ _______ _______ _____ _____    ______ ____
ROOT
ATOM      1  C   UNL     1       4.569   4.598  16.948  0.00  0.00    +0.000 C 
ENDROOT
BRANCH   1   5
ATOM      2  N   UNL     1       7.806   6.770  17.830  0.00  0.00    +0.000 NA
ATOM      3  C   UNL     1       7.511   5.511  18.546  0.00  0.00    +0.000 C 
ATOM      4  C   UNL     1       6.034   5.347  18.971  0.00  0.00    +0.000 C 
ATOM      5  N   UNL     1       5.083   5.659  17.893  0.00  0.00    +0.000 NA
ATOM      6  C   UNL     1       5.349   7.012  17.354  0.00  0.00    +0.000 C 
ATOM      7  C   UNL     1       6.788   7.152  16.826  0.00  0.00    +0.000 C 
BRANCH   2   9
ATOM      8  C   UNL     1       8.196   9.217  17.917  0.00  0.00    +0.000 C 
ATOM      9  C   UNL     1       8.338   7.872  18.648  0.00  0.00    +0.000 C 
ENDBRANCH   2   9
ENDBRANCH   1   5
BRANCH   1  10
ATOM     10  C   UNL     1       3.375   3.792  17.522  0.00  0.00    +0.000 A 
ATOM     11  C   UNL     1       2.133   4.417  17.765  0.00  0.00    +0.000 A 
ATOM     12  C   UNL     1       1.064   3.694  18.325  0.00  0.00    +0.000 A 
ATOM     13  C   UNL     1       1.215   2.346  18.656  0.00  0.00    +0.000 A 
ATOM     14  C   UNL     1       2.413   1.700  18.380  0.00  0.00    +0.000 A 
ATOM     15  C   UNL     1       3.460   2.400  17.793  0.00  0.00    +0.000 A 
ENDBRANCH   1  10
BRANCH   1  16
ATOM     16  C   UNL     1       5.666   3.713  16.272  0.00  0.00    +0.000 C 
BRANCH  16  17
ATOM     17  C   UNL     1       6.179   4.015  14.861  0.00  0.00    +0.000 A 
ATOM     18  C   UNL     1       5.575   3.357  13.773  0.00  0.00    +0.000 A 
ATOM     19  C   UNL     1       6.025   3.576  12.464  0.00  0.00    +0.000 A 
ATOM     20  C   UNL     1       7.097   4.432  12.215  0.00  0.00    +0.000 A 
ATOM     21  C   UNL     1       7.701   5.104  13.270  0.00  0.00    +0.000 A 
ATOM     22  C   UNL     1       7.233   4.926  14.563  0.00  0.00    +0.000 A 
BRANCH  21  23
ATOM     23  O   UNL     1       8.757   5.927  13.073  0.00  0.00    +0.000 OA
ATOM     24  H   UNL     1       9.670   5.607  13.075  0.00  0.00    +0.000 HD
ENDBRANCH  21  23
ENDBRANCH  16  17
ENDBRANCH   1  16
TORSDOF 6
ENDMDL
MODEL 7
REMARK VINA RESULT:      -7.9      3.732      7.228
REMARK  Name = 
REMARK  7 active torsions:
REMARK  status: ('A' for Active; 'I' for Inactive)
REMARK    1  A    between atoms: C_1  and  C_2
REMARK    2  A    between atoms: C_2  and  N_3
REMARK    3  A    between atoms: N_6  and  C_7
REMARK    4  A    between atoms: C_7  and  C_8
REMARK    5  A    between atoms: C_7  and  C_16
REMARK    6  A    between atoms: C_8  and  C_9
REMARK    7  A    between atoms: C_13  and  O_14
REMARK                            x       y       z     vdW  Elec       q    Type
REMARK                         _______ _______ _______ _____ _____    ______ ____
ROOT
ATOM      1  C   UNL     1       5.328   4.515  17.263  0.00  0.00    +0.000 C 
ENDROOT
BRANCH   1   5
ATOM      2  N   UNL     1       1.766   2.805  17.867  0.00  0.00    +0.000 NA
ATOM      3  C   UNL     1       1.885   4.257  17.619  0.00  0.00    +0.000 C 
ATOM      4  C   UNL     1       3.023   4.950  18.403  0.00  0.00    +0.000 C 
ATOM      5  N   UNL     1       4.300   4.225  18.332  0.00  0.00    +0.000 NA
ATOM      6  C   UNL     1       4.115   2.821  18.765  0.00  0.00    +0.000 C 
ATOM      7  C   UNL     1       3.060   2.088  17.917  0.00  0.00    +0.000 C 
BRANCH   2   9
ATOM      8  C   UNL     1       1.103   3.006  20.247  0.00  0.00    +0.000 C 
ATOM      9  C   UNL     1       0.774   2.398  18.875  0.00  0.00    +0.000 C 
ENDBRANCH   2   9
ENDBRANCH   1   5
BRANCH   1  10
ATOM     10  C   UNL     1       6.363   5.591  17.684  0.00  0.00    +0.000 A 
ATOM     11  C   UNL     1       7.338   5.307  18.664  0.00  0.00    +0.000 A 
ATOM     12  C   UNL     1       8.250   6.296  19.075  0.00  0.00    +0.000 A 
ATOM     13  C   UNL     1       8.203   7.578  18.525  0.00  0.00    +0.000 A 
ATOM     14  C   UNL     1       7.283   7.864  17.524  0.00  0.00    +0.000 A 
ATOM     15  C   UNL     1       6.404   6.879  17.088  0.00  0.00    +0.000 A 
ENDBRANCH   1  10
BRANCH   1  16
ATOM     16  C   UNL     1       4.757   4.714  15.821  0.00  0.00    +0.000 C 
BRANCH  16  17
ATOM     17  C   UNL     1       5.645   4.562  14.583  0.00  0.00    +0.000 A 
ATOM     18  C   UNL     1       5.264   3.634  13.594  0.00  0.00    +0.000 A 
ATOM     19  C   UNL     1       6.056   3.436  12.455  0.00  0.00    +0.000 A 
ATOM     20  C   UNL     1       7.251   4.135  12.290  0.00  0.00    +0.000 A 
ATOM     21  C   UNL     1       7.642   5.066  13.244  0.00  0.00    +0.000 A 
ATOM     22  C   UNL     1       6.842   5.300  14.352  0.00  0.00    +0.000 A 
BRANCH  21  23
ATOM     23  O   UNL     1       8.804   5.750  13.132  0.00  0.00    +0.000 OA
ATOM     24  H   UNL     1       9.666   5.334  13.268  0.00  0.00    +0.000 HD
ENDBRANCH  21  23
ENDBRANCH  16  17
ENDBRANCH   1  16
TORSDOF 6
ENDMDL
MODEL 8
REMARK VINA RESULT:      -7.8      3.889      6.196
REMARK  Name = 
REMARK  7 active torsions:
REMARK  status: ('A' for Active; 'I' for Inactive)
REMARK    1  A    between atoms: C_1  and  C_2
REMARK    2  A    between atoms: C_2  and  N_3
REMARK    3  A    between atoms: N_6  and  C_7
REMARK    4  A    between atoms: C_7  and  C_8
REMARK    5  A    between atoms: C_7  and  C_16
REMARK    6  A    between atoms: C_8  and  C_9
REMARK    7  A    between atoms: C_13  and  O_14
REMARK                            x       y       z     vdW  Elec       q    Type
REMARK                         _______ _______ _______ _____ _____    ______ ____
ROOT
ATOM      1  C   UNL     1       4.581   4.641  16.971  0.00  0.00    +0.000 C 
ENDROOT
BRANCH   1   5
ATOM      2  N   UNL     1       7.840   6.774  17.868  0.00  0.00    +0.000 NA
ATOM      3  C   UNL     1       7.511   5.535  18.604  0.00  0.00    +0.000 C 
ATOM      4  C   UNL     1       6.024   5.405  19.005  0.00  0.00    +0.000 C 
ATOM      5  N   UNL     1       5.097   5.711  17.905  0.00  0.00    +0.000 NA
ATOM      6  C   UNL     1       5.396   7.048  17.343  0.00  0.00    +0.000 C 
ATOM      7  C   UNL     1       6.847   7.153  16.839  0.00  0.00    +0.000 C 
BRANCH   2   9
ATOM      8  C   UNL     1       8.219   9.222  17.937  0.00  0.00    +0.000 C 
ATOM      9  C   UNL     1       8.378   7.883  18.673  0.00  0.00    +0.000 C 
ENDBRANCH   2   9
ENDBRANCH   1   5
BRANCH   1  10
ATOM     10  C   UNL     1       3.396   3.833  17.561  0.00  0.00    +0.000 A 
ATOM     11  C   UNL     1       3.539   2.462  17.864  0.00  0.00    +0.000 A 
ATOM     12  C   UNL     1       2.451   1.720  18.361  0.00  0.00    +0.000 A 
ATOM     13  C   UNL     1       1.209   2.327  18.557  0.00  0.00    +0.000 A 
ATOM     14  C   UNL     1       1.061   3.686  18.311  0.00  0.00    +0.000 A 
ATOM     15  C   UNL     1       2.142   4.431  17.856  0.00  0.00    +0.000 A 
ENDBRANCH   1  10
BRANCH   1  16
ATOM     16  C   UNL     1       5.678   3.756  16.295  0.00  0.00    +0.000 C 
BRANCH  16  17
ATOM     17  C   UNL     1       6.182   4.051  14.879  0.00  0.00    +0.000 A 
ATOM     18  C   UNL     1       5.561   3.400  13.796  0.00  0.00    +0.000 A 
ATOM     19  C   UNL     1       6.003   3.614  12.483  0.00  0.00    +0.000 A 
ATOM     20  C   UNL     1       7.082   4.457  12.225  0.00  0.00    +0.000 A 
ATOM     21  C   UNL     1       7.702   5.123  13.275  0.00  0.00    +0.000 A 
ATOM     22  C   UNL     1       7.244   4.950  14.572  0.00  0.00    +0.000 A 
BRANCH  21  23
ATOM     23  O   UNL     1       8.767   5.933  13.069  0.00  0.00    +0.000 OA
ATOM     24  H   UNL     1       8.671   6.875  12.869  0.00  0.00    +0.000 HD
ENDBRANCH  21  23
ENDBRANCH  16  17
ENDBRANCH   1  16
TORSDOF 6
ENDMDL
MODEL 9
REMARK VINA RESULT:      -7.8      3.815      7.323
REMARK  Name = 
REMARK  7 active torsions:
REMARK  status: ('A' for Active; 'I' for Inactive)
REMARK    1  A    between atoms: C_1  and  C_2
REMARK    2  A    between atoms: C_2  and  N_3
REMARK    3  A    between atoms: N_6  and  C_7
REMARK    4  A    between atoms: C_7  and  C_8
REMARK    5  A    between atoms: C_7  and  C_16
REMARK    6  A    between atoms: C_8  and  C_9
REMARK    7  A    between atoms: C_13  and  O_14
REMARK                            x       y       z     vdW  Elec       q    Type
REMARK                         _______ _______ _______ _____ _____    ______ ____
ROOT
ATOM      1  C   UNL     1       5.424   4.507  17.220  0.00  0.00    +0.000 C 
ENDROOT
BRANCH   1   5
ATOM      2  N   UNL     1       1.699   3.167  17.775  0.00  0.00    +0.000 NA
ATOM      3  C   UNL     1       2.019   4.606  17.888  0.00  0.00    +0.000 C 
ATOM      4  C   UNL     1       3.306   4.914  18.687  0.00  0.00    +0.000 C 
ATOM      5  N   UNL     1       4.449   4.077  18.292  0.00  0.00    +0.000 NA
ATOM      6  C   UNL     1       4.085   2.645  18.376  0.00  0.00    +0.000 C 
ATOM      7  C   UNL     1       2.869   2.303  17.496  0.00  0.00    +0.000 C 
BRANCH   2   9
ATOM      8  C   UNL     1       0.942   3.284  20.132  0.00  0.00    +0.000 C 
ATOM      9  C   UNL     1       0.737   2.637  18.753  0.00  0.00    +0.000 C 
ENDBRANCH   2   9
ENDBRANCH   1   5
BRANCH   1  10
ATOM     10  C   UNL     1       6.403   5.614  17.692  0.00  0.00    +0.000 A 
ATOM     11  C   UNL     1       6.387   6.893  17.095  0.00  0.00    +0.000 A 
ATOM     12  C   UNL     1       7.303   7.882  17.495  0.00  0.00    +0.000 A 
ATOM     13  C   UNL     1       8.248   7.615  18.487  0.00  0.00    +0.000 A 
ATOM     14  C   UNL     1       8.249   6.379  19.121  0.00  0.00    +0.000 A 
ATOM     15  C   UNL     1       7.322   5.411  18.756  0.00  0.00    +0.000 A 
ENDBRANCH   1  10
BRANCH   1  16
ATOM     16  C   UNL     1       4.799   4.771  15.812  0.00  0.00    +0.000 C 
BRANCH  16  17
ATOM     17  C   UNL     1       5.548   4.410  14.526  0.00  0.00    +0.000 A 
ATOM     18  C   UNL     1       6.806   4.999  14.295  0.00  0.00    +0.000 A 
ATOM     19  C   UNL     1       7.521   4.725  13.121  0.00  0.00    +0.000 A 
ATOM     20  C   UNL     1       6.988   3.883  12.146  0.00  0.00    +0.000 A 
ATOM     21  C   UNL     1       5.756   3.278  12.356  0.00  0.00    +0.000 A 
ATOM     22  C   UNL     1       5.062   3.510  13.534  0.00  0.00    +0.000 A 
BRANCH  21  23
ATOM     23  O   UNL     1       5.194   2.471  11.425  0.00  0.00    +0.000 OA
ATOM     24  H   UNL     1       4.935   1.560  11.618  0.00  0.00    +0.000 HD
ENDBRANCH  21  23
ENDBRANCH  16  17
ENDBRANCH   1  16
TORSDOF 6
ENDMDL
