MODEL 1
REMARK VINA RESULT:      -7.3      0.000      0.000
REMARK  Name = 
REMARK  5 active torsions:
REMARK  status: ('A' for Active; 'I' for Inactive)
REMARK    1  A    between atoms: C_1  and  C_2
REMARK    2  A    between atoms: C_4  and  C_5
REMARK    3  A    between atoms: C_9  and  C_10
REMARK    4  A    between atoms: C_19  and  C_20
REMARK    5  A    between atoms: C_20  and  O_21
REMARK                            x       y       z     vdW  Elec       q    Type
REMARK                         _______ _______ _______ _____ _____    ______ ____
ROOT
ATOM      1  C   UNL     1       4.560   5.227  17.873  0.00  0.00    +0.000 A 
ATOM      2  C   UNL     1       5.679   6.011  18.062  0.00  0.00    +0.000 A 
ATOM      3  C   UNL     1       6.781   6.257  16.853  0.00  0.00    +0.000 A 
ATOM      4  C   UNL     1       7.003   5.750  15.526  0.00  0.00    +0.000 A 
ATOM      5  C   UNL     1       5.854   4.966  15.792  0.00  0.00    +0.000 A 
ATOM      6  C   UNL     1       4.619   4.869  16.581  0.00  0.00    +0.000 A 
ATOM      7  O   UNL     1       6.194   3.561  15.754  0.00  0.00    +0.000 OA
ATOM      8  C   UNL     1       5.619   3.316  14.511  0.00  0.00    +0.000 C 
ATOM      9  C   UNL     1       6.722   3.770  13.674  0.00  0.00    +0.000 C 
ATOM     10  C   UNL     1       6.286   3.837  12.246  0.00  0.00    +0.000 C 
ATOM     11  O   UNL     1       7.441   4.536  11.763  0.00  0.00    +0.000 OA
ATOM     12  C   UNL     1       7.892   5.418  12.827  0.00  0.00    +0.000 C 
ATOM     13  O   UNL     1       8.767   6.230  12.581  0.00  0.00    +0.000 OA
ATOM     14  N   UNL     1       7.182   5.120  14.049  0.00  0.00    +0.000 N 
ENDROOT
BRANCH   1  21
ATOM     15  C   UNL     1       2.561   6.845  19.538  0.00  0.00    +0.000 C 
ATOM     16  C   UNL     1       2.598   5.333  19.561  0.00  0.00    +0.000 A 
ATOM     17  C   UNL     1       1.833   4.704  20.589  0.00  0.00    +0.000 A 
ATOM     18  C   UNL     1       1.915   3.334  20.756  0.00  0.00    +0.000 A 
ATOM     19  N   UNL     1       2.643   2.570  19.903  0.00  0.00    +0.000 NA
ATOM     20  C   UNL     1       3.362   3.199  18.899  0.00  0.00    +0.000 A 
ATOM     21  C   UNL     1       3.435   4.577  18.663  0.00  0.00    +0.000 A 
BRANCH  18  22
ATOM     22  C   UNL     1       1.296   2.684  21.900  0.00  0.00    +0.000 C 
ATOM     23  N   UNL     1       0.764   2.106  22.761  0.00  0.00    +0.000 NA
ENDBRANCH  18  22
ENDBRANCH   1  21
BRANCH  10  24
ATOM     24  C   UNL     1       5.832   2.444  11.661  0.00  0.00    +0.000 C 
BRANCH  24  25
ATOM     25  O   UNL     1       6.913   1.535  11.416  0.00  0.00    +0.000 OA
ATOM     26  H   UNL     1       6.556   0.657  11.180  0.00  0.00    +0.000 HD
ENDBRANCH  24  25
ENDBRANCH  10  24
TORSDOF 4
ENDMDL
MODEL 2
REMARK VINA RESULT:      -6.8      5.265      7.947
REMARK  Name = 
REMARK  5 active torsions:
REMARK  status: ('A' for Active; 'I' for Inactive)
REMARK    1  A    between atoms: C_1  and  C_2
REMARK    2  A    between atoms: C_4  and  C_5
REMARK    3  A    between atoms: C_9  and  C_10
REMARK    4  A    between atoms: C_19  and  C_20
REMARK    5  A    between atoms: C_20  and  O_21
REMARK                            x       y       z     vdW  Elec       q    Type
REMARK                         _______ _______ _______ _____ _____    ______ ____
ROOT
ATOM      1  C   UNL     1       1.291   9.247  18.634  0.00  0.00    +0.000 A 
ATOM      2  C   UNL     1       2.407   9.263  17.822  0.00  0.00    +0.000 A 
ATOM      3  C   UNL     1       3.273   7.888  17.511  0.00  0.00    +0.000 A 
ATOM      4  C   UNL     1       3.273   6.528  17.976  0.00  0.00    +0.000 A 
ATOM      5  C   UNL     1       2.208   6.965  18.801  0.00  0.00    +0.000 A 
ATOM      6  C   UNL     1       1.132   7.954  18.956  0.00  0.00    +0.000 A 
ATOM      7  O   UNL     1       2.571   6.825  20.194  0.00  0.00    +0.000 OA
ATOM      8  C   UNL     1       1.794   5.693  20.422  0.00  0.00    +0.000 C 
ATOM      9  C   UNL     1       2.721   4.692  19.914  0.00  0.00    +0.000 C 
ATOM     10  C   UNL     1       2.041   3.364  19.823  0.00  0.00    +0.000 C 
ATOM     11  O   UNL     1       3.076   2.710  19.076  0.00  0.00    +0.000 OA
ATOM     12  C   UNL     1       3.683   3.707  18.209  0.00  0.00    +0.000 C 
ATOM     13  O   UNL     1       4.482   3.337  17.366  0.00  0.00    +0.000 OA
ATOM     14  N   UNL     1       3.206   5.023  18.561  0.00  0.00    +0.000 N 
ENDROOT
BRANCH   1  21
ATOM     15  C   UNL     1      -1.433  10.022  17.467  0.00  0.00    +0.000 C 
ATOM     16  C   UNL     1      -0.868  10.675  18.709  0.00  0.00    +0.000 A 
ATOM     17  C   UNL     1      -1.546  11.846  19.164  0.00  0.00    +0.000 A 
ATOM     18  C   UNL     1      -1.018  12.572  20.216  0.00  0.00    +0.000 A 
ATOM     19  N   UNL     1       0.084  12.138  20.879  0.00  0.00    +0.000 NA
ATOM     20  C   UNL     1       0.714  10.987  20.435  0.00  0.00    +0.000 A 
ATOM     21  C   UNL     1       0.339  10.200  19.338  0.00  0.00    +0.000 A 
BRANCH  18  22
ATOM     22  C   UNL     1      -1.577  13.863  20.586  0.00  0.00    +0.000 C 
ATOM     23  N   UNL     1      -1.954  14.934  20.847  0.00  0.00    +0.000 NA
ENDBRANCH  18  22
ENDBRANCH   1  21
BRANCH  10  24
ATOM     24  C   UNL     1       1.526   2.825  21.212  0.00  0.00    +0.000 C 
BRANCH  24  25
ATOM     25  O   UNL     1       2.541   2.756  22.222  0.00  0.00    +0.000 OA
ATOM     26  H   UNL     1       2.566   3.596  22.721  0.00  0.00    +0.000 HD
ENDBRANCH  24  25
ENDBRANCH  10  24
TORSDOF 4
ENDMDL
MODEL 3
REMARK VINA RESULT:      -6.8      4.374      6.543
REMARK  Name = 
REMARK  5 active torsions:
REMARK  status: ('A' for Active; 'I' for Inactive)
REMARK    1  A    between atoms: C_1  and  C_2
REMARK    2  A    between atoms: C_4  and  C_5
REMARK    3  A    between atoms: C_9  and  C_10
REMARK    4  A    between atoms: C_19  and  C_20
REMARK    5  A    between atoms: C_20  and  O_21
REMARK                            x       y       z     vdW  Elec       q    Type
REMARK                         _______ _______ _______ _____ _____    ______ ____
ROOT
ATOM      1  C   UNL     1       1.648   8.739  18.875  0.00  0.00    +0.000 A 
ATOM      2  C   UNL     1       2.490   9.136  17.856  0.00  0.00    +0.000 A 
ATOM      3  C   UNL     1       3.489   8.063  17.089  0.00  0.00    +0.000 A 
ATOM      4  C   UNL     1       3.866   6.686  17.256  0.00  0.00    +0.000 A 
ATOM      5  C   UNL     1       2.990   6.734  18.368  0.00  0.00    +0.000 A 
ATOM      6  C   UNL     1       1.825   7.411  18.954  0.00  0.00    +0.000 A 
ATOM      7  O   UNL     1       3.723   6.475  19.588  0.00  0.00    +0.000 OA
ATOM      8  C   UNL     1       3.260   5.172  19.748  0.00  0.00    +0.000 C 
ATOM      9  C   UNL     1       4.195   4.502  18.854  0.00  0.00    +0.000 C 
ATOM     10  C   UNL     1       3.777   3.082  18.648  0.00  0.00    +0.000 C 
ATOM     11  O   UNL     1       4.687   2.806  17.574  0.00  0.00    +0.000 OA
ATOM     12  C   UNL     1       4.848   4.036  16.815  0.00  0.00    +0.000 C 
ATOM     13  O   UNL     1       5.455   3.994  15.758  0.00  0.00    +0.000 OA
ATOM     14  N   UNL     1       4.240   5.137  17.523  0.00  0.00    +0.000 N 
ENDROOT
BRANCH   1  21
ATOM     15  C   UNL     1      -0.964  10.203  18.227  0.00  0.00    +0.000 C 
ATOM     16  C   UNL     1      -0.394  10.144  19.627  0.00  0.00    +0.000 A 
ATOM     17  C   UNL     1      -0.992  11.017  20.584  0.00  0.00    +0.000 A 
ATOM     18  C   UNL     1      -0.446  11.114  21.851  0.00  0.00    +0.000 A 
ATOM     19  N   UNL     1       0.593  10.326  22.224  0.00  0.00    +0.000 NA
ATOM     20  C   UNL     1       1.146   9.470  21.286  0.00  0.00    +0.000 A 
ATOM     21  C   UNL     1       0.749   9.327  19.951  0.00  0.00    +0.000 A 
BRANCH  18  22
ATOM     22  C   UNL     1      -0.915  12.122  22.789  0.00  0.00    +0.000 C 
ATOM     23  N   UNL     1      -1.355  12.875  23.563  0.00  0.00    +0.000 NA
ENDBRANCH  18  22
ENDBRANCH   1  21
BRANCH  10  24
ATOM     24  C   UNL     1       3.753   2.235  19.978  0.00  0.00    +0.000 C 
BRANCH  24  25
ATOM     25  O   UNL     1       5.040   1.750  20.383  0.00  0.00    +0.000 OA
ATOM     26  H   UNL     1       5.162   1.901  21.340  0.00  0.00    +0.000 HD
ENDBRANCH  24  25
ENDBRANCH  10  24
TORSDOF 4
ENDMDL
MODEL 4
REMARK VINA RESULT:      -6.7      5.155      7.884
REMARK  Name = 
REMARK  5 active torsions:
REMARK  status: ('A' for Active; 'I' for Inactive)
REMARK    1  A    between atoms: C_1  and  C_2
REMARK    2  A    between atoms: C_4  and  C_5
REMARK    3  A    between atoms: C_9  and  C_10
REMARK    4  A    between atoms: C_19  and  C_20
REMARK    5  A    between atoms: C_20  and  O_21
REMARK                            x       y       z     vdW  Elec       q    Type
REMARK                         _______ _______ _______ _____ _____    ______ ____
ROOT
ATOM      1  C   UNL     1       1.032   9.379  19.410  0.00  0.00    +0.000 A 
ATOM      2  C   UNL     1       2.004   9.518  18.441  0.00  0.00    +0.000 A 
ATOM      3  C   UNL     1       2.814   8.211  17.831  0.00  0.00    +0.000 A 
ATOM      4  C   UNL     1       2.891   6.805  18.118  0.00  0.00    +0.000 A 
ATOM      5  C   UNL     1       1.969   7.114  19.148  0.00  0.00    +0.000 A 
ATOM      6  C   UNL     1       0.929   8.053  19.590  0.00  0.00    +0.000 A 
ATOM      7  O   UNL     1       2.549   6.814  20.438  0.00  0.00    +0.000 OA
ATOM      8  C   UNL     1       1.821   5.646  20.644  0.00  0.00    +0.000 C 
ATOM      9  C   UNL     1       2.659   4.734  19.876  0.00  0.00    +0.000 C 
ATOM     10  C   UNL     1       1.976   3.413  19.729  0.00  0.00    +0.000 C 
ATOM     11  O   UNL     1       2.881   2.877  18.754  0.00  0.00    +0.000 OA
ATOM     12  C   UNL     1       3.341   3.986  17.933  0.00  0.00    +0.000 C 
ATOM     13  O   UNL     1       3.997   3.740  16.935  0.00  0.00    +0.000 OA
ATOM     14  N   UNL     1       2.922   5.239  18.515  0.00  0.00    +0.000 N 
ENDROOT
BRANCH   1  21
ATOM     15  C   UNL     1      -0.862  11.589  18.453  0.00  0.00    +0.000 C 
ATOM     16  C   UNL     1      -0.568  11.352  19.918  0.00  0.00    +0.000 A 
ATOM     17  C   UNL     1      -1.011  12.368  20.817  0.00  0.00    +0.000 A 
ATOM     18  C   UNL     1      -0.670  12.287  22.155  0.00  0.00    +0.000 A 
ATOM     19  N   UNL     1       0.002  11.212  22.640  0.00  0.00    +0.000 NA
ATOM     20  C   UNL     1       0.405  10.227  21.753  0.00  0.00    +0.000 A 
ATOM     21  C   UNL     1       0.200  10.218  20.368  0.00  0.00    +0.000 A 
BRANCH  18  22
ATOM     22  C   UNL     1      -0.946  13.390  23.062  0.00  0.00    +0.000 C 
ATOM     23  N   UNL     1      -1.093  14.254  23.831  0.00  0.00    +0.000 NA
ENDBRANCH  18  22
ENDBRANCH   1  21
BRANCH  10  24
ATOM     24  C   UNL     1       1.690   2.697  21.104  0.00  0.00    +0.000 C 
BRANCH  24  25
ATOM     25  O   UNL     1       2.851   2.531  21.927  0.00  0.00    +0.000 OA
ATOM     26  H   UNL     1       2.834   1.647  22.345  0.00  0.00    +0.000 HD
ENDBRANCH  24  25
ENDBRANCH  10  24
TORSDOF 4
ENDMDL
MODEL 5
REMARK VINA RESULT:      -6.7      4.899      7.668
REMARK  Name = 
REMARK  5 active torsions:
REMARK  status: ('A' for Active; 'I' for Inactive)
REMARK    1  A    between atoms: C_1  and  C_2
REMARK    2  A    between atoms: C_4  and  C_5
REMARK    3  A    between atoms: C_9  and  C_10
REMARK    4  A    between atoms: C_19  and  C_20
REMARK    5  A    between atoms: C_20  and  O_21
REMARK                            x       y       z     vdW  Elec       q    Type
REMARK                         _______ _______ _______ _____ _____    ______ ____
ROOT
ATOM      1  C   UNL     1       1.551   9.214  18.661  0.00  0.00    +0.000 A 
ATOM      2  C   UNL     1       2.629   9.142  17.803  0.00  0.00    +0.000 A 
ATOM      3  C   UNL     1       3.381   7.706  17.472  0.00  0.00    +0.000 A 
ATOM      4  C   UNL     1       3.302   6.353  17.951  0.00  0.00    +0.000 A 
ATOM      5  C   UNL     1       2.308   6.872  18.816  0.00  0.00    +0.000 A 
ATOM      6  C   UNL     1       1.313   7.938  19.003  0.00  0.00    +0.000 A 
ATOM      7  O   UNL     1       2.718   6.718  20.194  0.00  0.00    +0.000 OA
ATOM      8  C   UNL     1       1.873   5.647  20.467  0.00  0.00    +0.000 C 
ATOM      9  C   UNL     1       2.704   4.578  19.932  0.00  0.00    +0.000 C 
ATOM     10  C   UNL     1       1.927   3.302  19.883  0.00  0.00    +0.000 C 
ATOM     11  O   UNL     1       2.880   2.568  19.102  0.00  0.00    +0.000 OA
ATOM     12  C   UNL     1       3.520   3.512  18.199  0.00  0.00    +0.000 C 
ATOM     13  O   UNL     1       4.253   3.079  17.327  0.00  0.00    +0.000 OA
ATOM     14  N   UNL     1       3.153   4.862  18.556  0.00  0.00    +0.000 N 
ENDROOT
BRANCH   1  21
ATOM     15  C   UNL     1       2.063  12.228  18.467  0.00  0.00    +0.000 C 
ATOM     16  C   UNL     1       1.043  11.638  19.417  0.00  0.00    +0.000 A 
ATOM     17  C   UNL     1       0.516  12.529  20.400  0.00  0.00    +0.000 A 
ATOM     18  C   UNL     1      -0.324  12.036  21.382  0.00  0.00    +0.000 A 
ATOM     19  N   UNL     1      -0.724  10.740  21.372  0.00  0.00    +0.000 NA
ATOM     20  C   UNL     1      -0.216   9.897  20.396  0.00  0.00    +0.000 A 
ATOM     21  C   UNL     1       0.699  10.238  19.394  0.00  0.00    +0.000 A 
BRANCH  18  22
ATOM     22  C   UNL     1      -0.733  12.872  22.500  0.00  0.00    +0.000 C 
ATOM     23  N   UNL     1      -1.144  13.525  23.374  0.00  0.00    +0.000 NA
ENDBRANCH  18  22
ENDBRANCH   1  21
BRANCH  10  24
ATOM     24  C   UNL     1       1.435   2.812  21.299  0.00  0.00    +0.000 C 
BRANCH  24  25
ATOM     25  O   UNL     1       2.492   2.607  22.245  0.00  0.00    +0.000 OA
ATOM     26  H   UNL     1       2.118   2.532  23.145  0.00  0.00    +0.000 HD
ENDBRANCH  24  25
ENDBRANCH  10  24
TORSDOF 4
ENDMDL
MODEL 6
REMARK VINA RESULT:      -6.7      6.890      9.925
REMARK  Name = 
REMARK  5 active torsions:
REMARK  status: ('A' for Active; 'I' for Inactive)
REMARK    1  A    between atoms: C_1  and  C_2
REMARK    2  A    between atoms: C_4  and  C_5
REMARK    3  A    between atoms: C_9  and  C_10
REMARK    4  A    between atoms: C_19  and  C_20
REMARK    5  A    between atoms: C_20  and  O_21
REMARK                            x       y       z     vdW  Elec       q    Type
REMARK                         _______ _______ _______ _____ _____    ______ ____
ROOT
ATOM      1  C   UNL     1       1.191   8.227  20.899  0.00  0.00    +0.000 A 
ATOM      2  C   UNL     1       1.415   9.155  21.894  0.00  0.00    +0.000 A 
ATOM      3  C   UNL     1       0.456  10.493  22.065  0.00  0.00    +0.000 A 
ATOM      4  C   UNL     1      -0.614  11.109  21.330  0.00  0.00    +0.000 A 
ATOM      5  C   UNL     1      -0.417  10.036  20.428  0.00  0.00    +0.000 A 
ATOM      6  C   UNL     1       0.079   8.660  20.284  0.00  0.00    +0.000 A 
ATOM      7  O   UNL     1      -0.017  10.543  19.133  0.00  0.00    +0.000 OA
ATOM      8  C   UNL     1      -1.252  10.342  18.524  0.00  0.00    +0.000 C 
ATOM      9  C   UNL     1      -1.913  11.559  18.975  0.00  0.00    +0.000 C 
ATOM     10  C   UNL     1      -3.370  11.501  18.649  0.00  0.00    +0.000 C 
ATOM     11  O   UNL     1      -3.750  12.647  19.423  0.00  0.00    +0.000 OA
ATOM     12  C   UNL     1      -2.874  12.697  20.583  0.00  0.00    +0.000 C 
ATOM     13  O   UNL     1      -3.120  13.500  21.466  0.00  0.00    +0.000 OA
ATOM     14  N   UNL     1      -1.804  11.739  20.436  0.00  0.00    +0.000 N 
ENDROOT
BRANCH   1  21
ATOM     15  C   UNL     1       2.544   8.377  18.154  0.00  0.00    +0.000 C 
ATOM     16  C   UNL     1       2.350   7.070  18.892  0.00  0.00    +0.000 A 
ATOM     17  C   UNL     1       2.593   5.883  18.137  0.00  0.00    +0.000 A 
ATOM     18  C   UNL     1       2.316   4.651  18.700  0.00  0.00    +0.000 A 
ATOM     19  N   UNL     1       1.902   4.550  19.988  0.00  0.00    +0.000 NA
ATOM     20  C   UNL     1       1.692   5.714  20.710  0.00  0.00    +0.000 A 
ATOM     21  C   UNL     1       1.853   7.025  20.244  0.00  0.00    +0.000 A 
BRANCH  18  22
ATOM     22  C   UNL     1       2.379   3.436  17.903  0.00  0.00    +0.000 C 
ATOM     23  N   UNL     1       2.368   2.429  17.315  0.00  0.00    +0.000 NA
ENDBRANCH  18  22
ENDBRANCH   1  21
BRANCH  10  24
ATOM     24  C   UNL     1      -3.664  11.386  17.104  0.00  0.00    +0.000 C 
BRANCH  24  25
ATOM     25  O   UNL     1      -5.048  11.189  16.787  0.00  0.00    +0.000 OA
ATOM     26  H   UNL     1      -5.601  11.739  17.375  0.00  0.00    +0.000 HD
ENDBRANCH  24  25
ENDBRANCH  10  24
TORSDOF 4
ENDMDL
MODEL 7
REMARK VINA RESULT:      -6.6      4.644      7.057
REMARK  Name = 
REMARK  5 active torsions:
REMARK  status: ('A' for Active; 'I' for Inactive)
REMARK    1  A    between atoms: C_1  and  C_2
REMARK    2  A    between atoms: C_4  and  C_5
REMARK    3  A    between atoms: C_9  and  C_10
REMARK    4  A    between atoms: C_19  and  C_20
REMARK    5  A    between atoms: C_20  and  O_21
REMARK                            x       y       z     vdW  Elec       q    Type
REMARK                         _______ _______ _______ _____ _____    ______ ____
ROOT
ATOM      1  C   UNL     1       0.993   8.010  20.796  0.00  0.00    +0.000 A 
ATOM      2  C   UNL     1       0.617   6.747  21.208  0.00  0.00    +0.000 A 
ATOM      3  C   UNL     1       1.508   5.407  20.822  0.00  0.00    +0.000 A 
ATOM      4  C   UNL     1       2.645   5.115  19.993  0.00  0.00    +0.000 A 
ATOM      5  C   UNL     1       2.595   6.498  19.690  0.00  0.00    +0.000 A 
ATOM      6  C   UNL     1       2.161   7.819  20.164  0.00  0.00    +0.000 A 
ATOM      7  O   UNL     1       2.351   6.687  18.277  0.00  0.00    +0.000 OA
ATOM      8  C   UNL     1       3.658   7.042  17.961  0.00  0.00    +0.000 C 
ATOM      9  C   UNL     1       4.221   5.703  17.847  0.00  0.00    +0.000 C 
ATOM     10  C   UNL     1       5.709   5.782  17.734  0.00  0.00    +0.000 C 
ATOM     11  O   UNL     1       5.954   4.379  17.909  0.00  0.00    +0.000 OA
ATOM     12  C   UNL     1       4.936   3.871  18.814  0.00  0.00    +0.000 C 
ATOM     13  O   UNL     1       5.044   2.731  19.233  0.00  0.00    +0.000 OA
ATOM     14  N   UNL     1       3.921   4.875  19.031  0.00  0.00    +0.000 N 
ENDROOT
BRANCH   1  21
ATOM     15  C   UNL     1       0.109   9.568  23.281  0.00  0.00    +0.000 C 
ATOM     16  C   UNL     1      -0.099  10.094  21.878  0.00  0.00    +0.000 A 
ATOM     17  C   UNL     1      -0.957  11.229  21.756  0.00  0.00    +0.000 A 
ATOM     18  C   UNL     1      -1.298  11.690  20.497  0.00  0.00    +0.000 A 
ATOM     19  N   UNL     1      -0.760  11.137  19.382  0.00  0.00    +0.000 NA
ATOM     20  C   UNL     1       0.087  10.049  19.524  0.00  0.00    +0.000 A 
ATOM     21  C   UNL     1       0.454   9.429  20.724  0.00  0.00    +0.000 A 
BRANCH  18  22
ATOM     22  C   UNL     1      -2.308  12.724  20.332  0.00  0.00    +0.000 C 
ATOM     23  N   UNL     1      -3.168  13.507  20.254  0.00  0.00    +0.000 NA
ENDBRANCH  18  22
ENDBRANCH   1  21
BRANCH  10  24
ATOM     24  C   UNL     1       6.201   6.576  16.464  0.00  0.00    +0.000 C 
BRANCH  24  25
ATOM     25  O   UNL     1       7.481   6.156  15.973  0.00  0.00    +0.000 OA
ATOM     26  H   UNL     1       7.426   5.232  15.662  0.00  0.00    +0.000 HD
ENDBRANCH  24  25
ENDBRANCH  10  24
TORSDOF 4
ENDMDL
MODEL 8
REMARK VINA RESULT:      -6.6      5.486      9.277
REMARK  Name = 
REMARK  5 active torsions:
REMARK  status: ('A' for Active; 'I' for Inactive)
REMARK    1  A    between atoms: C_1  and  C_2
REMARK    2  A    between atoms: C_4  and  C_5
REMARK    3  A    between atoms: C_9  and  C_10
REMARK    4  A    between atoms: C_19  and  C_20
REMARK    5  A    between atoms: C_20  and  O_21
REMARK                            x       y       z     vdW  Elec       q    Type
REMARK                         _______ _______ _______ _____ _____    ______ ____
ROOT
ATOM      1  C   UNL     1       2.714   6.668  18.710  0.00  0.00    +0.000 A 
ATOM      2  C   UNL     1       2.663   6.417  20.066  0.00  0.00    +0.000 A 
ATOM      3  C   UNL     1       1.784   7.370  21.093  0.00  0.00    +0.000 A 
ATOM      4  C   UNL     1       1.046   8.600  20.999  0.00  0.00    +0.000 A 
ATOM      5  C   UNL     1       1.456   8.572  19.644  0.00  0.00    +0.000 A 
ATOM      6  C   UNL     1       1.886   7.710  18.534  0.00  0.00    +0.000 A 
ATOM      7  O   UNL     1       2.279   9.724  19.350  0.00  0.00    +0.000 OA
ATOM      8  C   UNL     1       1.295  10.418  18.653  0.00  0.00    +0.000 C 
ATOM      9  C   UNL     1       0.600  11.004  19.792  0.00  0.00    +0.000 C 
ATOM     10  C   UNL     1      -0.676  11.637  19.341  0.00  0.00    +0.000 C 
ATOM     11  O   UNL     1      -1.213  11.857  20.653  0.00  0.00    +0.000 OA
ATOM     12  C   UNL     1      -0.753  10.767  21.499  0.00  0.00    +0.000 C 
ATOM     13  O   UNL     1      -1.220  10.662  22.620  0.00  0.00    +0.000 OA
ATOM     14  N   UNL     1       0.247   9.991  20.805  0.00  0.00    +0.000 N 
ENDROOT
BRANCH   1  21
ATOM     15  C   UNL     1       3.193   3.729  17.991  0.00  0.00    +0.000 C 
ATOM     16  C   UNL     1       3.826   4.866  17.219  0.00  0.00    +0.000 A 
ATOM     17  C   UNL     1       4.858   4.502  16.303  0.00  0.00    +0.000 A 
ATOM     18  C   UNL     1       5.571   5.493  15.654  0.00  0.00    +0.000 A 
ATOM     19  N   UNL     1       5.245   6.801  15.807  0.00  0.00    +0.000 NA
ATOM     20  C   UNL     1       4.225   7.131  16.685  0.00  0.00    +0.000 A 
ATOM     21  C   UNL     1       3.476   6.242  17.465  0.00  0.00    +0.000 A 
BRANCH  18  22
ATOM     22  C   UNL     1       6.744   5.167  14.858  0.00  0.00    +0.000 C 
ATOM     23  N   UNL     1       7.709   4.990  14.227  0.00  0.00    +0.000 NA
ENDBRANCH  18  22
ENDBRANCH   1  21
BRANCH  10  24
ATOM     24  C   UNL     1      -0.466  12.806  18.304  0.00  0.00    +0.000 C 
BRANCH  24  25
ATOM     25  O   UNL     1      -1.186  12.632  17.077  0.00  0.00    +0.000 OA
ATOM     26  H   UNL     1      -2.143  12.742  17.239  0.00  0.00    +0.000 HD
ENDBRANCH  24  25
ENDBRANCH  10  24
TORSDOF 4
ENDMDL
MODEL 9
REMARK VINA RESULT:      -6.6      4.586      7.218
REMARK  Name = 
REMARK  5 active torsions:
REMARK  status: ('A' for Active; 'I' for Inactive)
REMARK    1  A    between atoms: C_1  and  C_2
REMARK    2  A    between atoms: C_4  and  C_5
REMARK    3  A    between atoms: C_9  and  C_10
REMARK    4  A    between atoms: C_19  and  C_20
REMARK    5  A    between atoms: C_20  and  O_21
REMARK                            x       y       z     vdW  Elec       q    Type
REMARK                         _______ _______ _______ _____ _____    ______ ____
ROOT
ATOM      1  C   UNL     1       1.124   8.237  20.602  0.00  0.00    +0.000 A 
ATOM      2  C   UNL     1       0.691   7.047  21.150  0.00  0.00    +0.000 A 
ATOM      3  C   UNL     1       1.499   5.627  20.889  0.00  0.00    +0.000 A 
ATOM      4  C   UNL     1       2.599   5.188  20.075  0.00  0.00    +0.000 A 
ATOM      5  C   UNL     1       2.616   6.533  19.630  0.00  0.00    +0.000 A 
ATOM      6  C   UNL     1       2.265   7.918  19.972  0.00  0.00    +0.000 A 
ATOM      7  O   UNL     1       2.348   6.589  18.210  0.00  0.00    +0.000 OA
ATOM      8  C   UNL     1       3.665   6.836  17.835  0.00  0.00    +0.000 C 
ATOM      9  C   UNL     1       4.152   5.464  17.851  0.00  0.00    +0.000 C 
ATOM     10  C   UNL     1       5.639   5.447  17.703  0.00  0.00    +0.000 C 
ATOM     11  O   UNL     1       5.812   4.059  18.018  0.00  0.00    +0.000 OA
ATOM     12  C   UNL     1       4.791   3.704  18.990  0.00  0.00    +0.000 C 
ATOM     13  O   UNL     1       4.848   2.609  19.523  0.00  0.00    +0.000 OA
ATOM     14  N   UNL     1       3.837   4.780  19.120  0.00  0.00    +0.000 N 
ENDROOT
BRANCH   1  21
ATOM     15  C   UNL     1       0.536   9.395  17.827  0.00  0.00    +0.000 C 
ATOM     16  C   UNL     1       0.535  10.247  19.078  0.00  0.00    +0.000 A 
ATOM     17  C   UNL     1       0.502  11.659  18.873  0.00  0.00    +0.000 A 
ATOM     18  C   UNL     1       0.626  12.506  19.959  0.00  0.00    +0.000 A 
ATOM     19  N   UNL     1       0.689  12.016  21.222  0.00  0.00    +0.000 NA
ATOM     20  C   UNL     1       0.698  10.642  21.400  0.00  0.00    +0.000 A 
ATOM     21  C   UNL     1       0.660   9.670  20.393  0.00  0.00    +0.000 A 
BRANCH  18  22
ATOM     22  C   UNL     1       0.778  13.941  19.771  0.00  0.00    +0.000 C 
ATOM     23  N   UNL     1       0.931  15.073  19.540  0.00  0.00    +0.000 NA
ENDBRANCH  18  22
ENDBRANCH   1  21
BRANCH  10  24
ATOM     24  C   UNL     1       6.143   6.078  16.348  0.00  0.00    +0.000 C 
BRANCH  24  25
ATOM     25  O   UNL     1       7.523   6.463  16.361  0.00  0.00    +0.000 OA
ATOM     26  H   UNL     1       7.822   6.647  15.449  0.00  0.00    +0.000 HD
ENDBRANCH  24  25
ENDBRANCH  10  24
TORSDOF 4
ENDMDL
