MODEL 1
REMARK VINA RESULT:      -7.3      0.000      0.000
REMARK  Name = 
REMARK  5 active torsions:
REMARK  status: ('A' for Active; 'I' for Inactive)
REMARK    1  A    between atoms: C_1  and  C_2
REMARK    2  A    between atoms: C_4  and  C_5
REMARK    3  A    between atoms: C_7  and  O_8
REMARK    4  A    between atoms: C_9  and  N_10
REMARK    5  A    between atoms: C_13  and  O_14
REMARK                            x       y       z     vdW  Elec       q    Type
REMARK                         _______ _______ _______ _____ _____    ______ ____
ROOT
ATOM      1  C   UNL     1       1.346   2.728  21.576  0.00  0.00    +0.000 C 
ATOM      2  C   UNL     1       2.028   3.651  20.610  0.00  0.00    +0.000 A 
ATOM      3  C   UNL     1       1.805   5.022  20.645  0.00  0.00    +0.000 A 
ATOM      4  C   UNL     1       2.448   5.892  19.744  0.00  0.00    +0.000 A 
ATOM      5  C   UNL     1       2.099   7.349  19.898  0.00  0.00    +0.000 C 
ATOM      6  C   UNL     1       3.359   5.368  18.751  0.00  0.00    +0.000 A 
ATOM      7  C   UNL     1       4.119   6.079  17.764  0.00  0.00    +0.000 A 
ATOM      8  C   UNL     1       4.939   5.386  16.871  0.00  0.00    +0.000 A 
ATOM      9  C   UNL     1       5.044   4.023  16.958  0.00  0.00    +0.000 A 
ATOM     10  N   UNL     1       4.365   3.319  17.873  0.00  0.00    +0.000 NA
ATOM     11  C   UNL     1       3.557   3.959  18.736  0.00  0.00    +0.000 A 
ATOM     12  C   UNL     1       2.904   3.148  19.649  0.00  0.00    +0.000 A 
ENDROOT
BRANCH   8  13
ATOM     13  N   UNL     1       5.667   6.078  15.842  0.00  0.00    +0.000 N 
ATOM     14  O   UNL     1       6.892   5.911  15.778  0.00  0.00    +0.000 OA
ATOM     15  O   UNL     1       5.020   6.884  15.154  0.00  0.00    +0.000 OA
ENDBRANCH   8  13
BRANCH   7  16
ATOM     16  O   UNL     1       4.138   7.445  17.658  0.00  0.00    +0.000 OA
ATOM     17  H   UNL     1       3.254   7.813  17.543  0.00  0.00    +0.000 HD
ENDBRANCH   7  16
BRANCH   9  18
ATOM     18  O   UNL     1       5.813   3.241  16.140  0.00  0.00    +0.000 OA
ATOM     19  H   UNL     1       6.739   3.545  16.153  0.00  0.00    +0.000 HD
ENDBRANCH   9  18
TORSDOF 3
ENDMDL
MODEL 2
REMARK VINA RESULT:      -7.2      1.493      1.638
REMARK  Name = 
REMARK  5 active torsions:
REMARK  status: ('A' for Active; 'I' for Inactive)
REMARK    1  A    between atoms: C_1  and  C_2
REMARK    2  A    between atoms: C_4  and  C_5
REMARK    3  A    between atoms: C_7  and  O_8
REMARK    4  A    between atoms: C_9  and  N_10
REMARK    5  A    between atoms: C_13  and  O_14
REMARK                            x       y       z     vdW  Elec       q    Type
REMARK                         _______ _______ _______ _____ _____    ______ ____
ROOT
ATOM      1  C   UNL     1       1.658   2.900  20.961  0.00  0.00    +0.000 C 
ATOM      2  C   UNL     1       2.479   3.815  20.103  0.00  0.00    +0.000 A 
ATOM      3  C   UNL     1       1.941   4.985  19.580  0.00  0.00    +0.000 A 
ATOM      4  C   UNL     1       2.711   5.850  18.778  0.00  0.00    +0.000 A 
ATOM      5  C   UNL     1       1.989   7.073  18.277  0.00  0.00    +0.000 C 
ATOM      6  C   UNL     1       4.089   5.531  18.477  0.00  0.00    +0.000 A 
ATOM      7  C   UNL     1       5.037   6.279  17.704  0.00  0.00    +0.000 A 
ATOM      8  C   UNL     1       6.331   5.790  17.509  0.00  0.00    +0.000 A 
ATOM      9  C   UNL     1       6.707   4.606  18.085  0.00  0.00    +0.000 A 
ATOM     10  N   UNL     1       5.860   3.881  18.828  0.00  0.00    +0.000 NA
ATOM     11  C   UNL     1       4.604   4.321  19.020  0.00  0.00    +0.000 A 
ATOM     12  C   UNL     1       3.807   3.508  19.808  0.00  0.00    +0.000 A 
ENDROOT
BRANCH   8  13
ATOM     13  N   UNL     1       7.277   6.501  16.693  0.00  0.00    +0.000 N 
ATOM     14  O   UNL     1       7.604   7.644  17.037  0.00  0.00    +0.000 OA
ATOM     15  O   UNL     1       7.617   5.951  15.633  0.00  0.00    +0.000 OA
ENDBRANCH   8  13
BRANCH   7  16
ATOM     16  O   UNL     1       4.772   7.509  17.160  0.00  0.00    +0.000 OA
ATOM     17  H   UNL     1       5.579   7.998  16.959  0.00  0.00    +0.000 HD
ENDBRANCH   7  16
BRANCH   9  18
ATOM     18  O   UNL     1       7.943   4.031  17.963  0.00  0.00    +0.000 OA
ATOM     19  H   UNL     1       7.920   3.110  18.280  0.00  0.00    +0.000 HD
ENDBRANCH   9  18
TORSDOF 3
ENDMDL
MODEL 3
REMARK VINA RESULT:      -7.0      2.597      4.771
REMARK  Name = 
REMARK  5 active torsions:
REMARK  status: ('A' for Active; 'I' for Inactive)
REMARK    1  A    between atoms: C_1  and  C_2
REMARK    2  A    between atoms: C_4  and  C_5
REMARK    3  A    between atoms: C_7  and  O_8
REMARK    4  A    between atoms: C_9  and  N_10
REMARK    5  A    between atoms: C_13  and  O_14
REMARK                            x       y       z     vdW  Elec       q    Type
REMARK                         _______ _______ _______ _____ _____    ______ ____
ROOT
ATOM      1  C   UNL     1       1.839   9.327  18.292  0.00  0.00    +0.000 C 
ATOM      2  C   UNL     1       2.521   7.992  18.289  0.00  0.00    +0.000 A 
ATOM      3  C   UNL     1       3.469   7.671  17.326  0.00  0.00    +0.000 A 
ATOM      4  C   UNL     1       4.116   6.420  17.323  0.00  0.00    +0.000 A 
ATOM      5  C   UNL     1       5.112   6.214  16.212  0.00  0.00    +0.000 C 
ATOM      6  C   UNL     1       3.800   5.434  18.332  0.00  0.00    +0.000 A 
ATOM      7  C   UNL     1       4.352   4.124  18.513  0.00  0.00    +0.000 A 
ATOM      8  C   UNL     1       3.898   3.302  19.548  0.00  0.00    +0.000 A 
ATOM      9  C   UNL     1       2.942   3.763  20.415  0.00  0.00    +0.000 A 
ATOM     10  N   UNL     1       2.409   4.986  20.293  0.00  0.00    +0.000 NA
ATOM     11  C   UNL     1       2.817   5.791  19.298  0.00  0.00    +0.000 A 
ATOM     12  C   UNL     1       2.214   7.038  19.259  0.00  0.00    +0.000 A 
ENDROOT
BRANCH   8  13
ATOM     13  N   UNL     1       4.403   1.967  19.711  0.00  0.00    +0.000 N 
ATOM     14  O   UNL     1       4.022   1.096  18.918  0.00  0.00    +0.000 OA
ATOM     15  O   UNL     1       5.107   1.760  20.713  0.00  0.00    +0.000 OA
ENDBRANCH   8  13
BRANCH   7  16
ATOM     16  O   UNL     1       5.367   3.613  17.745  0.00  0.00    +0.000 OA
ATOM     17  H   UNL     1       5.962   4.301  17.426  0.00  0.00    +0.000 HD
ENDBRANCH   7  16
BRANCH   9  18
ATOM     18  O   UNL     1       2.422   3.051  21.461  0.00  0.00    +0.000 OA
ATOM     19  H   UNL     1       3.130   2.575  21.931  0.00  0.00    +0.000 HD
ENDBRANCH   9  18
TORSDOF 3
ENDMDL
MODEL 4
REMARK VINA RESULT:      -6.8      2.942      5.012
REMARK  Name = 
REMARK  5 active torsions:
REMARK  status: ('A' for Active; 'I' for Inactive)
REMARK    1  A    between atoms: C_1  and  C_2
REMARK    2  A    between atoms: C_4  and  C_5
REMARK    3  A    between atoms: C_7  and  O_8
REMARK    4  A    between atoms: C_9  and  N_10
REMARK    5  A    between atoms: C_13  and  O_14
REMARK                            x       y       z     vdW  Elec       q    Type
REMARK                         _______ _______ _______ _____ _____    ______ ____
ROOT
ATOM      1  C   UNL     1       6.986   5.018  14.743  0.00  0.00    +0.000 C 
ATOM      2  C   UNL     1       5.850   5.032  15.722  0.00  0.00    +0.000 A 
ATOM      3  C   UNL     1       5.311   6.228  16.181  0.00  0.00    +0.000 A 
ATOM      4  C   UNL     1       4.241   6.245  17.097  0.00  0.00    +0.000 A 
ATOM      5  C   UNL     1       3.770   7.614  17.509  0.00  0.00    +0.000 C 
ATOM      6  C   UNL     1       3.680   5.004  17.584  0.00  0.00    +0.000 A 
ATOM      7  C   UNL     1       2.589   4.807  18.494  0.00  0.00    +0.000 A 
ATOM      8  C   UNL     1       2.202   3.517  18.863  0.00  0.00    +0.000 A 
ATOM      9  C   UNL     1       2.845   2.432  18.327  0.00  0.00    +0.000 A 
ATOM     10  N   UNL     1       3.859   2.568  17.462  0.00  0.00    +0.000 NA
ATOM     11  C   UNL     1       4.261   3.799  17.101  0.00  0.00    +0.000 A 
ATOM     12  C   UNL     1       5.310   3.838  16.197  0.00  0.00    +0.000 A 
ENDROOT
BRANCH   8  13
ATOM     13  N   UNL     1       1.146   3.302  19.814  0.00  0.00    +0.000 N 
ATOM     14  O   UNL     1       1.307   3.717  20.969  0.00  0.00    +0.000 OA
ATOM     15  O   UNL     1       0.186   2.614  19.430  0.00  0.00    +0.000 OA
ENDBRANCH   8  13
BRANCH   7  16
ATOM     16  O   UNL     1       1.838   5.830  19.014  0.00  0.00    +0.000 OA
ATOM     17  H   UNL     1       1.354   6.308  18.331  0.00  0.00    +0.000 HD
ENDBRANCH   7  16
BRANCH   9  18
ATOM     18  O   UNL     1       2.554   1.127  18.613  0.00  0.00    +0.000 OA
ATOM     19  H   UNL     1       2.869   0.545  17.897  0.00  0.00    +0.000 HD
ENDBRANCH   9  18
TORSDOF 3
ENDMDL
MODEL 5
REMARK VINA RESULT:      -6.7      3.175      5.022
REMARK  Name = 
REMARK  5 active torsions:
REMARK  status: ('A' for Active; 'I' for Inactive)
REMARK    1  A    between atoms: C_1  and  C_2
REMARK    2  A    between atoms: C_4  and  C_5
REMARK    3  A    between atoms: C_7  and  O_8
REMARK    4  A    between atoms: C_9  and  N_10
REMARK    5  A    between atoms: C_13  and  O_14
REMARK                            x       y       z     vdW  Elec       q    Type
REMARK                         _______ _______ _______ _____ _____    ______ ____
ROOT
ATOM      1  C   UNL     1       7.401   7.112  16.885  0.00  0.00    +0.000 C 
ATOM      2  C   UNL     1       6.191   6.499  17.526  0.00  0.00    +0.000 A 
ATOM      3  C   UNL     1       4.949   7.118  17.457  0.00  0.00    +0.000 A 
ATOM      4  C   UNL     1       3.810   6.543  18.053  0.00  0.00    +0.000 A 
ATOM      5  C   UNL     1       2.538   7.334  17.903  0.00  0.00    +0.000 C 
ATOM      6  C   UNL     1       3.914   5.285  18.758  0.00  0.00    +0.000 A 
ATOM      7  C   UNL     1       2.883   4.532  19.411  0.00  0.00    +0.000 A 
ATOM      8  C   UNL     1       3.187   3.334  20.062  0.00  0.00    +0.000 A 
ATOM      9  C   UNL     1       4.472   2.859  20.049  0.00  0.00    +0.000 A 
ATOM     10  N   UNL     1       5.464   3.520  19.439  0.00  0.00    +0.000 NA
ATOM     11  C   UNL     1       5.202   4.683  18.818  0.00  0.00    +0.000 A 
ATOM     12  C   UNL     1       6.289   5.288  18.210  0.00  0.00    +0.000 A 
ENDROOT
BRANCH   8  13
ATOM     13  N   UNL     1       2.176   2.595  20.766  0.00  0.00    +0.000 N 
ATOM     14  O   UNL     1       2.289   2.470  21.992  0.00  0.00    +0.000 OA
ATOM     15  O   UNL     1       1.311   2.038  20.069  0.00  0.00    +0.000 OA
ENDBRANCH   8  13
BRANCH   7  16
ATOM     16  O   UNL     1       1.559   4.890  19.403  0.00  0.00    +0.000 OA
ATOM     17  H   UNL     1       1.430   5.797  19.102  0.00  0.00    +0.000 HD
ENDBRANCH   7  16
BRANCH   9  18
ATOM     18  O   UNL     1       4.887   1.702  20.651  0.00  0.00    +0.000 OA
ATOM     19  H   UNL     1       5.618   1.885  21.268  0.00  0.00    +0.000 HD
ENDBRANCH   9  18
TORSDOF 3
ENDMDL
MODEL 6
REMARK VINA RESULT:      -6.7      1.543      3.128
REMARK  Name = 
REMARK  5 active torsions:
REMARK  status: ('A' for Active; 'I' for Inactive)
REMARK    1  A    between atoms: C_1  and  C_2
REMARK    2  A    between atoms: C_4  and  C_5
REMARK    3  A    between atoms: C_7  and  O_8
REMARK    4  A    between atoms: C_9  and  N_10
REMARK    5  A    between atoms: C_13  and  O_14
REMARK                            x       y       z     vdW  Elec       q    Type
REMARK                         _______ _______ _______ _____ _____    ______ ____
ROOT
ATOM      1  C   UNL     1       1.057   4.776  20.530  0.00  0.00    +0.000 C 
ATOM      2  C   UNL     1       2.091   4.437  19.499  0.00  0.00    +0.000 A 
ATOM      3  C   UNL     1       2.495   3.124  19.290  0.00  0.00    +0.000 A 
ATOM      4  C   UNL     1       3.463   2.801  18.319  0.00  0.00    +0.000 A 
ATOM      5  C   UNL     1       3.805   1.338  18.215  0.00  0.00    +0.000 C 
ATOM      6  C   UNL     1       4.064   3.842  17.515  0.00  0.00    +0.000 A 
ATOM      7  C   UNL     1       5.042   3.722  16.474  0.00  0.00    +0.000 A 
ATOM      8  C   UNL     1       5.518   4.860  15.818  0.00  0.00    +0.000 A 
ATOM      9  C   UNL     1       5.026   6.094  16.149  0.00  0.00    +0.000 A 
ATOM     10  N   UNL     1       4.100   6.253  17.104  0.00  0.00    +0.000 NA
ATOM     11  C   UNL     1       3.635   5.176  17.761  0.00  0.00    +0.000 A 
ATOM     12  C   UNL     1       2.675   5.440  18.725  0.00  0.00    +0.000 A 
ENDROOT
BRANCH   8  13
ATOM     13  N   UNL     1       6.537   4.762  14.809  0.00  0.00    +0.000 N 
ATOM     14  O   UNL     1       7.563   5.442  14.946  0.00  0.00    +0.000 OA
ATOM     15  O   UNL     1       6.263   4.078  13.810  0.00  0.00    +0.000 OA
ENDBRANCH   8  13
BRANCH   7  16
ATOM     16  O   UNL     1       5.529   2.522  16.023  0.00  0.00    +0.000 OA
ATOM     17  H   UNL     1       6.397   2.321  16.391  0.00  0.00    +0.000 HD
ENDBRANCH   7  16
BRANCH   9  18
ATOM     18  O   UNL     1       5.416   7.274  15.578  0.00  0.00    +0.000 OA
ATOM     19  H   UNL     1       4.865   7.472  14.799  0.00  0.00    +0.000 HD
ENDBRANCH   9  18
TORSDOF 3
ENDMDL
MODEL 7
REMARK VINA RESULT:      -6.6      1.392      3.068
REMARK  Name = 
REMARK  5 active torsions:
REMARK  status: ('A' for Active; 'I' for Inactive)
REMARK    1  A    between atoms: C_1  and  C_2
REMARK    2  A    between atoms: C_4  and  C_5
REMARK    3  A    between atoms: C_7  and  O_8
REMARK    4  A    between atoms: C_9  and  N_10
REMARK    5  A    between atoms: C_13  and  O_14
REMARK                            x       y       z     vdW  Elec       q    Type
REMARK                         _______ _______ _______ _____ _____    ______ ____
ROOT
ATOM      1  C   UNL     1       0.941   7.568  21.014  0.00  0.00    +0.000 C 
ATOM      2  C   UNL     1       1.892   6.657  20.296  0.00  0.00    +0.000 A 
ATOM      3  C   UNL     1       2.053   5.333  20.686  0.00  0.00    +0.000 A 
ATOM      4  C   UNL     1       2.941   4.473  20.011  0.00  0.00    +0.000 A 
ATOM      5  C   UNL     1       3.014   3.071  20.553  0.00  0.00    +0.000 C 
ATOM      6  C   UNL     1       3.714   4.959  18.889  0.00  0.00    +0.000 A 
ATOM      7  C   UNL     1       4.648   4.249  18.067  0.00  0.00    +0.000 A 
ATOM      8  C   UNL     1       5.318   4.904  17.030  0.00  0.00    +0.000 A 
ATOM      9  C   UNL     1       5.057   6.225  16.778  0.00  0.00    +0.000 A 
ATOM     10  N   UNL     1       4.180   6.925  17.511  0.00  0.00    +0.000 NA
ATOM     11  C   UNL     1       3.533   6.322  18.523  0.00  0.00    +0.000 A 
ATOM     12  C   UNL     1       2.642   7.124  19.217  0.00  0.00    +0.000 A 
ENDROOT
BRANCH   8  13
ATOM     13  N   UNL     1       6.297   4.221  16.230  0.00  0.00    +0.000 N 
ATOM     14  O   UNL     1       5.904   3.348  15.445  0.00  0.00    +0.000 OA
ATOM     15  O   UNL     1       7.487   4.485  16.467  0.00  0.00    +0.000 OA
ENDBRANCH   8  13
BRANCH   7  16
ATOM     16  O   UNL     1       4.910   2.909  18.195  0.00  0.00    +0.000 OA
ATOM     17  H   UNL     1       5.277   2.692  19.060  0.00  0.00    +0.000 HD
ENDBRANCH   7  16
BRANCH   9  18
ATOM     18  O   UNL     1       5.649   6.969  15.794  0.00  0.00    +0.000 OA
ATOM     19  H   UNL     1       5.996   7.802  16.162  0.00  0.00    +0.000 HD
ENDBRANCH   9  18
TORSDOF 3
ENDMDL
MODEL 8
REMARK VINA RESULT:      -6.6      1.232      1.249
REMARK  Name = 
REMARK  5 active torsions:
REMARK  status: ('A' for Active; 'I' for Inactive)
REMARK    1  A    between atoms: C_1  and  C_2
REMARK    2  A    between atoms: C_4  and  C_5
REMARK    3  A    between atoms: C_7  and  O_8
REMARK    4  A    between atoms: C_9  and  N_10
REMARK    5  A    between atoms: C_13  and  O_14
REMARK                            x       y       z     vdW  Elec       q    Type
REMARK                         _______ _______ _______ _____ _____    ______ ____
ROOT
ATOM      1  C   UNL     1       0.527   2.986  19.750  0.00  0.00    +0.000 C 
ATOM      2  C   UNL     1       1.597   3.815  19.104  0.00  0.00    +0.000 A 
ATOM      3  C   UNL     1       1.642   5.193  19.277  0.00  0.00    +0.000 A 
ATOM      4  C   UNL     1       2.648   5.974  18.675  0.00  0.00    +0.000 A 
ATOM      5  C   UNL     1       2.561   7.453  18.946  0.00  0.00    +0.000 C 
ATOM      6  C   UNL     1       3.662   5.350  17.855  0.00  0.00    +0.000 A 
ATOM      7  C   UNL     1       4.770   5.957  17.177  0.00  0.00    +0.000 A 
ATOM      8  C   UNL     1       5.639   5.180  16.408  0.00  0.00    +0.000 A 
ATOM      9  C   UNL     1       5.453   3.826  16.327  0.00  0.00    +0.000 A 
ATOM     10  N   UNL     1       4.441   3.213  16.956  0.00  0.00    +0.000 NA
ATOM     11  C   UNL     1       3.581   3.939  17.691  0.00  0.00    +0.000 A 
ATOM     12  C   UNL     1       2.573   3.216  18.309  0.00  0.00    +0.000 A 
ENDROOT
BRANCH   8  13
ATOM     13  N   UNL     1       6.723   5.780  15.680  0.00  0.00    +0.000 N 
ATOM     14  O   UNL     1       7.519   6.498  16.300  0.00  0.00    +0.000 OA
ATOM     15  O   UNL     1       6.718   5.620  14.448  0.00  0.00    +0.000 OA
ENDBRANCH   8  13
BRANCH   7  16
ATOM     16  O   UNL     1       5.079   7.290  17.269  0.00  0.00    +0.000 OA
ATOM     17  H   UNL     1       5.960   7.434  17.633  0.00  0.00    +0.000 HD
ENDBRANCH   7  16
BRANCH   9  18
ATOM     18  O   UNL     1       6.237   2.967  15.607  0.00  0.00    +0.000 OA
ATOM     19  H   UNL     1       5.871   2.064  15.642  0.00  0.00    +0.000 HD
ENDBRANCH   9  18
TORSDOF 3
ENDMDL
MODEL 9
REMARK VINA RESULT:      -6.5      1.549      2.980
REMARK  Name = 
REMARK  5 active torsions:
REMARK  status: ('A' for Active; 'I' for Inactive)
REMARK    1  A    between atoms: C_1  and  C_2
REMARK    2  A    between atoms: C_4  and  C_5
REMARK    3  A    between atoms: C_7  and  O_8
REMARK    4  A    between atoms: C_9  and  N_10
REMARK    5  A    between atoms: C_13  and  O_14
REMARK                            x       y       z     vdW  Elec       q    Type
REMARK                         _______ _______ _______ _____ _____    ______ ____
ROOT
ATOM      1  C   UNL     1       1.077   6.877  20.951  0.00  0.00    +0.000 C 
ATOM      2  C   UNL     1       1.985   6.063  20.079  0.00  0.00    +0.000 A 
ATOM      3  C   UNL     1       1.918   4.675  20.068  0.00  0.00    +0.000 A 
ATOM      4  C   UNL     1       2.765   3.907  19.246  0.00  0.00    +0.000 A 
ATOM      5  C   UNL     1       2.581   2.416  19.349  0.00  0.00    +0.000 C 
ATOM      6  C   UNL     1       3.736   4.556  18.393  0.00  0.00    +0.000 A 
ATOM      7  C   UNL     1       4.668   3.963  17.479  0.00  0.00    +0.000 A 
ATOM      8  C   UNL     1       5.548   4.765  16.748  0.00  0.00    +0.000 A 
ATOM      9  C   UNL     1       5.498   6.128  16.880  0.00  0.00    +0.000 A 
ATOM     10  N   UNL     1       4.633   6.726  17.710  0.00  0.00    +0.000 NA
ATOM     11  C   UNL     1       3.785   5.977  18.436  0.00  0.00    +0.000 A 
ATOM     12  C   UNL     1       2.925   6.686  19.258  0.00  0.00    +0.000 A 
ENDROOT
BRANCH   8  13
ATOM     13  N   UNL     1       6.524   4.184  15.868  0.00  0.00    +0.000 N 
ATOM     14  O   UNL     1       7.721   4.410  16.091  0.00  0.00    +0.000 OA
ATOM     15  O   UNL     1       6.085   3.581  14.875  0.00  0.00    +0.000 OA
ENDBRANCH   8  13
BRANCH   7  16
ATOM     16  O   UNL     1       4.732   2.618  17.224  0.00  0.00    +0.000 OA
ATOM     17  H   UNL     1       4.414   2.400  16.340  0.00  0.00    +0.000 HD
ENDBRANCH   7  16
BRANCH   9  18
ATOM     18  O   UNL     1       6.307   7.011  16.219  0.00  0.00    +0.000 OA
ATOM     19  H   UNL     1       7.243   6.766  16.336  0.00  0.00    +0.000 HD
ENDBRANCH   9  18
TORSDOF 3
ENDMDL
