MODEL 1
REMARK VINA RESULT:      -7.0      0.000      0.000
REMARK  Name = 
REMARK  8 active torsions:
REMARK  status: ('A' for Active; 'I' for Inactive)
REMARK    1  A    between atoms: C_1  and  O_2
REMARK    2  A    between atoms: O_2  and  C_3
REMARK    3  A    between atoms: C_3  and  C_4
REMARK    4  A    between atoms: C_4  and  O_5
REMARK    5  A    between atoms: O_5  and  C_6
REMARK    6  A    between atoms: C_6  and  C_8
REMARK    7  A    between atoms: C_12  and  C_13
REMARK    8  A    between atoms: C_17  and  C_18
REMARK                            x       y       z     vdW  Elec       q    Type
REMARK                         _______ _______ _______ _____ _____    ______ ____
ROOT
ATOM      1  C   UNL     1       6.176   4.975  15.671  0.00  0.00    +0.000 A 
ATOM      2  N   UNL     1       6.182   4.198  16.813  0.00  0.00    +0.000 N 
ATOM      3  C   UNL     1       5.336   4.730  17.746  0.00  0.00    +0.000 A 
ATOM      4  C   UNL     1       4.737   5.840  17.202  0.00  0.00    +0.000 A 
ATOM      5  C   UNL     1       5.274   6.012  15.889  0.00  0.00    +0.000 A 
ATOM      6  C   UNL     1       4.940   7.088  14.913  0.00  0.00    +0.000 C 
ATOM      7  C   UNL     1       3.760   6.617  17.939  0.00  0.00    +0.000 C 
ATOM      8  O   UNL     1       3.205   7.606  17.454  0.00  0.00    +0.000 OA
ATOM      9  C   UNL     1       3.445   6.214  19.363  0.00  0.00    +0.000 C 
ATOM     10  C   UNL     1       4.040   4.896  19.910  0.00  0.00    +0.000 C 
ATOM     11  C   UNL     1       5.153   4.176  19.108  0.00  0.00    +0.000 C 
ATOM     12  H   UNL     1       6.741   3.358  16.918  0.00  0.00    +0.000 HD
ENDROOT
BRANCH  10  13
ATOM     13  C   UNL     1       2.915   3.932  20.234  0.00  0.00    +0.000 A 
ATOM     14  C   UNL     1       2.169   3.836  21.392  0.00  0.00    +0.000 A 
ATOM     15  C   UNL     1       1.236   2.761  21.344  0.00  0.00    +0.000 A 
ATOM     16  C   UNL     1       1.289   2.084  20.148  0.00  0.00    +0.000 A 
ATOM     17  S   UNL     1       2.453   2.742  19.087  0.00  0.00    +0.000 S 
ENDBRANCH  10  13
BRANCH   1  18
ATOM     18  C   UNL     1       6.934   4.673  14.476  0.00  0.00    +0.000 C 
ATOM     19  O   UNL     1       7.846   5.330  13.997  0.00  0.00    +0.000 OA
BRANCH  18  20
ATOM     20  O   UNL     1       6.376   3.582  13.870  0.00  0.00    +0.000 OA
BRANCH  20  21
ATOM     21  C   UNL     1       6.450   3.658  12.446  0.00  0.00    +0.000 C 
BRANCH  21  22
ATOM     22  C   UNL     1       5.232   3.058  11.765  0.00  0.00    +0.000 C 
BRANCH  22  24
ATOM     23  C   UNL     1       6.920   1.577  11.045  0.00  0.00    +0.000 C 
ATOM     24  O   UNL     1       5.550   1.717  11.388  0.00  0.00    +0.000 OA
ENDBRANCH  22  24
ENDBRANCH  21  22
ENDBRANCH  20  21
ENDBRANCH  18  20
ENDBRANCH   1  18
TORSDOF 6
ENDMDL
MODEL 2
REMARK VINA RESULT:      -6.8      0.970      1.298
REMARK  Name = 
REMARK  8 active torsions:
REMARK  status: ('A' for Active; 'I' for Inactive)
REMARK    1  A    between atoms: C_1  and  O_2
REMARK    2  A    between atoms: O_2  and  C_3
REMARK    3  A    between atoms: C_3  and  C_4
REMARK    4  A    between atoms: C_4  and  O_5
REMARK    5  A    between atoms: O_5  and  C_6
REMARK    6  A    between atoms: C_6  and  C_8
REMARK    7  A    between atoms: C_12  and  C_13
REMARK    8  A    between atoms: C_17  and  C_18
REMARK                            x       y       z     vdW  Elec       q    Type
REMARK                         _______ _______ _______ _____ _____    ______ ____
ROOT
ATOM      1  C   UNL     1       6.052   4.891  15.429  0.00  0.00    +0.000 A 
ATOM      2  N   UNL     1       6.005   4.040  16.516  0.00  0.00    +0.000 N 
ATOM      3  C   UNL     1       5.232   4.584  17.503  0.00  0.00    +0.000 A 
ATOM      4  C   UNL     1       4.732   5.781  17.050  0.00  0.00    +0.000 A 
ATOM      5  C   UNL     1       5.258   5.991  15.738  0.00  0.00    +0.000 A 
ATOM      6  C   UNL     1       5.010   7.159  14.845  0.00  0.00    +0.000 C 
ATOM      7  C   UNL     1       3.847   6.594  17.861  0.00  0.00    +0.000 C 
ATOM      8  O   UNL     1       3.380   7.661  17.458  0.00  0.00    +0.000 OA
ATOM      9  C   UNL     1       3.522   6.125  19.262  0.00  0.00    +0.000 C 
ATOM     10  C   UNL     1       3.998   4.722  19.705  0.00  0.00    +0.000 C 
ATOM     11  C   UNL     1       5.021   3.958  18.830  0.00  0.00    +0.000 C 
ATOM     12  H   UNL     1       6.482   3.146  16.551  0.00  0.00    +0.000 HD
ENDROOT
BRANCH  10  13
ATOM     13  C   UNL     1       2.791   3.848  19.993  0.00  0.00    +0.000 A 
ATOM     14  C   UNL     1       1.927   3.251  19.097  0.00  0.00    +0.000 A 
ATOM     15  C   UNL     1       0.873   2.551  19.751  0.00  0.00    +0.000 A 
ATOM     16  C   UNL     1       0.976   2.625  21.121  0.00  0.00    +0.000 A 
ATOM     17  S   UNL     1       2.338   3.526  21.616  0.00  0.00    +0.000 S 
ENDBRANCH  10  13
BRANCH   1  18
ATOM     18  C   UNL     1       6.756   4.601  14.198  0.00  0.00    +0.000 C 
ATOM     19  O   UNL     1       7.593   5.300  13.647  0.00  0.00    +0.000 OA
BRANCH  18  20
ATOM     20  O   UNL     1       6.233   3.461  13.655  0.00  0.00    +0.000 OA
BRANCH  20  21
ATOM     21  C   UNL     1       6.337   3.443  12.231  0.00  0.00    +0.000 C 
BRANCH  21  22
ATOM     22  C   UNL     1       5.295   2.550  11.581  0.00  0.00    +0.000 C 
BRANCH  22  24
ATOM     23  C   UNL     1       3.541   3.575  10.383  0.00  0.00    +0.000 C 
ATOM     24  O   UNL     1       4.031   3.210  11.664  0.00  0.00    +0.000 OA
ENDBRANCH  22  24
ENDBRANCH  21  22
ENDBRANCH  20  21
ENDBRANCH  18  20
ENDBRANCH   1  18
TORSDOF 6
ENDMDL
MODEL 3
REMARK VINA RESULT:      -6.6      4.890      7.271
REMARK  Name = 
REMARK  8 active torsions:
REMARK  status: ('A' for Active; 'I' for Inactive)
REMARK    1  A    between atoms: C_1  and  O_2
REMARK    2  A    between atoms: O_2  and  C_3
REMARK    3  A    between atoms: C_3  and  C_4
REMARK    4  A    between atoms: C_4  and  O_5
REMARK    5  A    between atoms: O_5  and  C_6
REMARK    6  A    between atoms: C_6  and  C_8
REMARK    7  A    between atoms: C_12  and  C_13
REMARK    8  A    between atoms: C_17  and  C_18
REMARK                            x       y       z     vdW  Elec       q    Type
REMARK                         _______ _______ _______ _____ _____    ______ ____
ROOT
ATOM      1  C   UNL     1       2.014   5.833  20.442  0.00  0.00    +0.000 A 
ATOM      2  N   UNL     1       1.370   6.881  21.071  0.00  0.00    +0.000 N 
ATOM      3  C   UNL     1       1.418   7.999  20.286  0.00  0.00    +0.000 A 
ATOM      4  C   UNL     1       2.061   7.676  19.115  0.00  0.00    +0.000 A 
ATOM      5  C   UNL     1       2.455   6.306  19.211  0.00  0.00    +0.000 A 
ATOM      6  C   UNL     1       3.194   5.508  18.191  0.00  0.00    +0.000 C 
ATOM      7  C   UNL     1       2.250   8.648  18.056  0.00  0.00    +0.000 C 
ATOM      8  O   UNL     1       2.811   8.365  16.995  0.00  0.00    +0.000 OA
ATOM      9  C   UNL     1       1.772  10.065  18.286  0.00  0.00    +0.000 C 
ATOM     10  C   UNL     1       0.948  10.373  19.558  0.00  0.00    +0.000 C 
ATOM     11  C   UNL     1       0.876   9.318  20.688  0.00  0.00    +0.000 C 
ATOM     12  H   UNL     1       0.931   6.806  21.982  0.00  0.00    +0.000 HD
ENDROOT
BRANCH  10  13
ATOM     13  C   UNL     1      -0.447  10.817  19.159  0.00  0.00    +0.000 A 
ATOM     14  C   UNL     1      -1.221  10.381  18.102  0.00  0.00    +0.000 A 
ATOM     15  C   UNL     1      -2.459  11.079  18.017  0.00  0.00    +0.000 A 
ATOM     16  C   UNL     1      -2.596  12.012  19.019  0.00  0.00    +0.000 A 
ATOM     17  S   UNL     1      -1.243  12.043  20.058  0.00  0.00    +0.000 S 
ENDBRANCH  10  13
BRANCH   1  18
ATOM     18  C   UNL     1       2.114   4.495  20.985  0.00  0.00    +0.000 C 
ATOM     19  O   UNL     1       3.069   4.008  21.570  0.00  0.00    +0.000 OA
BRANCH  18  20
ATOM     20  O   UNL     1       1.000   3.792  20.620  0.00  0.00    +0.000 OA
BRANCH  20  21
ATOM     21  C   UNL     1       1.326   2.539  20.019  0.00  0.00    +0.000 C 
BRANCH  21  22
ATOM     22  C   UNL     1       0.992   2.498  18.538  0.00  0.00    +0.000 C 
BRANCH  22  24
ATOM     23  C   UNL     1       3.225   1.760  18.711  0.00  0.00    +0.000 C 
ATOM     24  O   UNL     1       2.166   2.098  17.828  0.00  0.00    +0.000 OA
ENDBRANCH  22  24
ENDBRANCH  21  22
ENDBRANCH  20  21
ENDBRANCH  18  20
ENDBRANCH   1  18
TORSDOF 6
ENDMDL
MODEL 4
REMARK VINA RESULT:      -6.6      4.455      6.760
REMARK  Name = 
REMARK  8 active torsions:
REMARK  status: ('A' for Active; 'I' for Inactive)
REMARK    1  A    between atoms: C_1  and  O_2
REMARK    2  A    between atoms: O_2  and  C_3
REMARK    3  A    between atoms: C_3  and  C_4
REMARK    4  A    between atoms: C_4  and  O_5
REMARK    5  A    between atoms: O_5  and  C_6
REMARK    6  A    between atoms: C_6  and  C_8
REMARK    7  A    between atoms: C_12  and  C_13
REMARK    8  A    between atoms: C_17  and  C_18
REMARK                            x       y       z     vdW  Elec       q    Type
REMARK                         _______ _______ _______ _____ _____    ______ ____
ROOT
ATOM      1  C   UNL     1       3.244   6.445  18.468  0.00  0.00    +0.000 A 
ATOM      2  N   UNL     1       3.082   7.573  17.687  0.00  0.00    +0.000 N 
ATOM      3  C   UNL     1       2.241   8.455  18.307  0.00  0.00    +0.000 A 
ATOM      4  C   UNL     1       1.878   7.923  19.521  0.00  0.00    +0.000 A 
ATOM      5  C   UNL     1       2.500   6.642  19.627  0.00  0.00    +0.000 A 
ATOM      6  C   UNL     1       2.393   5.679  20.760  0.00  0.00    +0.000 C 
ATOM      7  C   UNL     1       1.006   8.635  20.434  0.00  0.00    +0.000 C 
ATOM      8  O   UNL     1       0.688   8.175  21.533  0.00  0.00    +0.000 OA
ATOM      9  C   UNL     1       0.444   9.971  19.999  0.00  0.00    +0.000 C 
ATOM     10  C   UNL     1       0.959  10.600  18.684  0.00  0.00    +0.000 C 
ATOM     11  C   UNL     1       1.806   9.741  17.713  0.00  0.00    +0.000 C 
ATOM     12  H   UNL     1       3.535   7.705  16.789  0.00  0.00    +0.000 HD
ENDROOT
BRANCH  10  13
ATOM     13  C   UNL     1       1.671  11.904  18.994  0.00  0.00    +0.000 A 
ATOM     14  C   UNL     1       2.514  12.639  18.185  0.00  0.00    +0.000 A 
ATOM     15  C   UNL     1       3.038  13.782  18.852  0.00  0.00    +0.000 A 
ATOM     16  C   UNL     1       2.568  13.890  20.141  0.00  0.00    +0.000 A 
ATOM     17  S   UNL     1       1.497  12.624  20.542  0.00  0.00    +0.000 S 
ENDBRANCH  10  13
BRANCH   1  18
ATOM     18  C   UNL     1       4.100   5.331  18.121  0.00  0.00    +0.000 C 
ATOM     19  O   UNL     1       3.789   4.331  17.493  0.00  0.00    +0.000 OA
BRANCH  18  20
ATOM     20  O   UNL     1       5.311   5.505  18.732  0.00  0.00    +0.000 OA
BRANCH  20  21
ATOM     21  C   UNL     1       6.353   5.779  17.796  0.00  0.00    +0.000 C 
BRANCH  21  22
ATOM     22  C   UNL     1       7.431   4.708  17.793  0.00  0.00    +0.000 C 
BRANCH  22  24
ATOM     23  C   UNL     1       6.813   4.518  15.525  0.00  0.00    +0.000 C 
ATOM     24  O   UNL     1       7.889   4.544  16.449  0.00  0.00    +0.000 OA
ENDBRANCH  22  24
ENDBRANCH  21  22
ENDBRANCH  20  21
ENDBRANCH  18  20
ENDBRANCH   1  18
TORSDOF 6
ENDMDL
MODEL 5
REMARK VINA RESULT:      -6.6      5.443      9.715
REMARK  Name = 
REMARK  8 active torsions:
REMARK  status: ('A' for Active; 'I' for Inactive)
REMARK    1  A    between atoms: C_1  and  O_2
REMARK    2  A    between atoms: O_2  and  C_3
REMARK    3  A    between atoms: C_3  and  C_4
REMARK    4  A    between atoms: C_4  and  O_5
REMARK    5  A    between atoms: O_5  and  C_6
REMARK    6  A    between atoms: C_6  and  C_8
REMARK    7  A    between atoms: C_12  and  C_13
REMARK    8  A    between atoms: C_17  and  C_18
REMARK                            x       y       z     vdW  Elec       q    Type
REMARK                         _______ _______ _______ _____ _____    ______ ____
ROOT
ATOM      1  C   UNL     1       0.847   9.016  21.496  0.00  0.00    +0.000 A 
ATOM      2  N   UNL     1       1.373   7.741  21.413  0.00  0.00    +0.000 N 
ATOM      3  C   UNL     1       1.869   7.521  20.159  0.00  0.00    +0.000 A 
ATOM      4  C   UNL     1       1.707   8.670  19.423  0.00  0.00    +0.000 A 
ATOM      5  C   UNL     1       1.048   9.621  20.260  0.00  0.00    +0.000 A 
ATOM      6  C   UNL     1       0.646  11.011  19.900  0.00  0.00    +0.000 C 
ATOM      7  C   UNL     1       2.161   8.765  18.049  0.00  0.00    +0.000 C 
ATOM      8  O   UNL     1       2.036   9.797  17.385  0.00  0.00    +0.000 OA
ATOM      9  C   UNL     1       2.773   7.540  17.406  0.00  0.00    +0.000 C 
ATOM     10  C   UNL     1       3.052   6.300  18.288  0.00  0.00    +0.000 C 
ATOM     11  C   UNL     1       2.449   6.232  19.712  0.00  0.00    +0.000 C 
ATOM     12  H   UNL     1       1.379   7.084  22.186  0.00  0.00    +0.000 HD
ENDROOT
BRANCH  10  13
ATOM     13  C   UNL     1       4.546   6.040  18.333  0.00  0.00    +0.000 A 
ATOM     14  C   UNL     1       5.271   5.343  19.279  0.00  0.00    +0.000 A 
ATOM     15  C   UNL     1       6.669   5.364  19.009  0.00  0.00    +0.000 A 
ATOM     16  C   UNL     1       6.963   6.062  17.859  0.00  0.00    +0.000 A 
ATOM     17  S   UNL     1       5.562   6.682  17.108  0.00  0.00    +0.000 S 
ENDBRANCH  10  13
BRANCH   1  18
ATOM     18  C   UNL     1       0.274   9.584  22.698  0.00  0.00    +0.000 C 
ATOM     19  O   UNL     1       0.758   9.574  23.820  0.00  0.00    +0.000 OA
BRANCH  18  20
ATOM     20  O   UNL     1      -0.987  10.028  22.412  0.00  0.00    +0.000 OA
BRANCH  20  21
ATOM     21  C   UNL     1      -1.326  11.202  23.151  0.00  0.00    +0.000 C 
BRANCH  21  22
ATOM     22  C   UNL     1      -2.273  12.115  22.393  0.00  0.00    +0.000 C 
BRANCH  22  24
ATOM     23  C   UNL     1      -3.645  13.017  24.086  0.00  0.00    +0.000 C 
ATOM     24  O   UNL     1      -3.548  12.066  23.036  0.00  0.00    +0.000 OA
ENDBRANCH  22  24
ENDBRANCH  21  22
ENDBRANCH  20  21
ENDBRANCH  18  20
ENDBRANCH   1  18
TORSDOF 6
ENDMDL
MODEL 6
REMARK VINA RESULT:      -6.5      2.219      3.243
REMARK  Name = 
REMARK  8 active torsions:
REMARK  status: ('A' for Active; 'I' for Inactive)
REMARK    1  A    between atoms: C_1  and  O_2
REMARK    2  A    between atoms: O_2  and  C_3
REMARK    3  A    between atoms: C_3  and  C_4
REMARK    4  A    between atoms: C_4  and  O_5
REMARK    5  A    between atoms: O_5  and  C_6
REMARK    6  A    between atoms: C_6  and  C_8
REMARK    7  A    between atoms: C_12  and  C_13
REMARK    8  A    between atoms: C_17  and  C_18
REMARK                            x       y       z     vdW  Elec       q    Type
REMARK                         _______ _______ _______ _____ _____    ______ ____
ROOT
ATOM      1  C   UNL     1       6.091   4.761  15.715  0.00  0.00    +0.000 A 
ATOM      2  N   UNL     1       4.735   5.024  15.730  0.00  0.00    +0.000 N 
ATOM      3  C   UNL     1       4.301   5.170  17.018  0.00  0.00    +0.000 A 
ATOM      4  C   UNL     1       5.384   5.045  17.855  0.00  0.00    +0.000 A 
ATOM      5  C   UNL     1       6.523   4.772  17.037  0.00  0.00    +0.000 A 
ATOM      6  C   UNL     1       7.925   4.545  17.492  0.00  0.00    +0.000 C 
ATOM      7  C   UNL     1       5.255   5.177  19.293  0.00  0.00    +0.000 C 
ATOM      8  O   UNL     1       6.223   5.082  20.051  0.00  0.00    +0.000 OA
ATOM      9  C   UNL     1       3.877   5.402  19.875  0.00  0.00    +0.000 C 
ATOM     10  C   UNL     1       2.696   5.658  18.909  0.00  0.00    +0.000 C 
ATOM     11  C   UNL     1       2.886   5.399  17.394  0.00  0.00    +0.000 C 
ATOM     12  H   UNL     1       4.167   5.095  14.893  0.00  0.00    +0.000 HD
ENDROOT
BRANCH  10  13
ATOM     13  C   UNL     1       2.149   7.054  19.142  0.00  0.00    +0.000 A 
ATOM     14  C   UNL     1       2.100   8.118  18.264  0.00  0.00    +0.000 A 
ATOM     15  C   UNL     1       1.564   9.291  18.868  0.00  0.00    +0.000 A 
ATOM     16  C   UNL     1       1.208   9.079  20.181  0.00  0.00    +0.000 A 
ATOM     17  S   UNL     1       1.512   7.476  20.679  0.00  0.00    +0.000 S 
ENDBRANCH  10  13
BRANCH   1  18
ATOM     18  C   UNL     1       6.874   4.589  14.509  0.00  0.00    +0.000 C 
ATOM     19  O   UNL     1       7.667   5.384  14.028  0.00  0.00    +0.000 OA
BRANCH  18  20
ATOM     20  O   UNL     1       6.485   3.430  13.899  0.00  0.00    +0.000 OA
BRANCH  20  21
ATOM     21  C   UNL     1       6.343   3.584  12.487  0.00  0.00    +0.000 C 
BRANCH  21  22
ATOM     22  C   UNL     1       4.899   3.481  12.030  0.00  0.00    +0.000 C 
BRANCH  22  24
ATOM     23  C   UNL     1       5.935   1.500  11.280  0.00  0.00    +0.000 C 
ATOM     24  O   UNL     1       4.771   2.310  11.221  0.00  0.00    +0.000 OA
ENDBRANCH  22  24
ENDBRANCH  21  22
ENDBRANCH  20  21
ENDBRANCH  18  20
ENDBRANCH   1  18
TORSDOF 6
ENDMDL
MODEL 7
REMARK VINA RESULT:      -6.5      4.985      9.384
REMARK  Name = 
REMARK  8 active torsions:
REMARK  status: ('A' for Active; 'I' for Inactive)
REMARK    1  A    between atoms: C_1  and  O_2
REMARK    2  A    between atoms: O_2  and  C_3
REMARK    3  A    between atoms: C_3  and  C_4
REMARK    4  A    between atoms: C_4  and  O_5
REMARK    5  A    between atoms: O_5  and  C_6
REMARK    6  A    between atoms: C_6  and  C_8
REMARK    7  A    between atoms: C_12  and  C_13
REMARK    8  A    between atoms: C_17  and  C_18
REMARK                            x       y       z     vdW  Elec       q    Type
REMARK                         _______ _______ _______ _____ _____    ______ ____
ROOT
ATOM      1  C   UNL     1       1.087   8.849  21.411  0.00  0.00    +0.000 A 
ATOM      2  N   UNL     1       1.692   7.612  21.292  0.00  0.00    +0.000 N 
ATOM      3  C   UNL     1       2.140   7.431  20.014  0.00  0.00    +0.000 A 
ATOM      4  C   UNL     1       1.867   8.571  19.295  0.00  0.00    +0.000 A 
ATOM      5  C   UNL     1       1.187   9.472  20.171  0.00  0.00    +0.000 A 
ATOM      6  C   UNL     1       0.675  10.833  19.842  0.00  0.00    +0.000 C 
ATOM      7  C   UNL     1       2.245   8.702  17.902  0.00  0.00    +0.000 C 
ATOM      8  O   UNL     1       2.019   9.726  17.253  0.00  0.00    +0.000 OA
ATOM      9  C   UNL     1       2.906   7.524  17.221  0.00  0.00    +0.000 C 
ATOM     10  C   UNL     1       3.310   6.302  18.078  0.00  0.00    +0.000 C 
ATOM     11  C   UNL     1       2.783   6.187  19.530  0.00  0.00    +0.000 C 
ATOM     12  H   UNL     1       1.780   6.954  22.058  0.00  0.00    +0.000 HD
ENDROOT
BRANCH  10  13
ATOM     13  C   UNL     1       4.818   6.142  18.049  0.00  0.00    +0.000 A 
ATOM     14  C   UNL     1       5.735   6.762  17.222  0.00  0.00    +0.000 A 
ATOM     15  C   UNL     1       7.064   6.309  17.458  0.00  0.00    +0.000 A 
ATOM     16  C   UNL     1       7.120   5.373  18.466  0.00  0.00    +0.000 A 
ATOM     17  S   UNL     1       5.581   5.046  19.126  0.00  0.00    +0.000 S 
ENDBRANCH  10  13
BRANCH   1  18
ATOM     18  C   UNL     1       0.536   9.371  22.644  0.00  0.00    +0.000 C 
ATOM     19  O   UNL     1       1.120   9.516  23.707  0.00  0.00    +0.000 OA
BRANCH  18  20
ATOM     20  O   UNL     1      -0.807   9.559  22.476  0.00  0.00    +0.000 OA
BRANCH  20  21
ATOM     21  C   UNL     1      -1.298  10.658  23.243  0.00  0.00    +0.000 C 
BRANCH  21  22
ATOM     22  C   UNL     1      -1.572  11.887  22.395  0.00  0.00    +0.000 C 
BRANCH  22  24
ATOM     23  C   UNL     1      -0.242  13.820  22.155  0.00  0.00    +0.000 C 
ATOM     24  O   UNL     1      -0.995  13.018  23.052  0.00  0.00    +0.000 OA
ENDBRANCH  22  24
ENDBRANCH  21  22
ENDBRANCH  20  21
ENDBRANCH  18  20
ENDBRANCH   1  18
TORSDOF 6
ENDMDL
MODEL 8
REMARK VINA RESULT:      -6.4      3.304      8.110
REMARK  Name = 
REMARK  8 active torsions:
REMARK  status: ('A' for Active; 'I' for Inactive)
REMARK    1  A    between atoms: C_1  and  O_2
REMARK    2  A    between atoms: O_2  and  C_3
REMARK    3  A    between atoms: C_3  and  C_4
REMARK    4  A    between atoms: C_4  and  O_5
REMARK    5  A    between atoms: O_5  and  C_6
REMARK    6  A    between atoms: C_6  and  C_8
REMARK    7  A    between atoms: C_12  and  C_13
REMARK    8  A    between atoms: C_17  and  C_18
REMARK                            x       y       z     vdW  Elec       q    Type
REMARK                         _______ _______ _______ _____ _____    ______ ____
ROOT
ATOM      1  C   UNL     1       3.029   7.094  17.948  0.00  0.00    +0.000 A 
ATOM      2  N   UNL     1       4.161   7.329  17.191  0.00  0.00    +0.000 N 
ATOM      3  C   UNL     1       4.777   6.146  16.891  0.00  0.00    +0.000 A 
ATOM      4  C   UNL     1       4.025   5.123  17.418  0.00  0.00    +0.000 A 
ATOM      5  C   UNL     1       2.920   5.716  18.102  0.00  0.00    +0.000 A 
ATOM      6  C   UNL     1       1.836   5.010  18.843  0.00  0.00    +0.000 C 
ATOM      7  C   UNL     1       4.404   3.734  17.246  0.00  0.00    +0.000 C 
ATOM      8  O   UNL     1       3.728   2.808  17.700  0.00  0.00    +0.000 OA
ATOM      9  C   UNL     1       5.692   3.423  16.516  0.00  0.00    +0.000 C 
ATOM     10  C   UNL     1       6.455   4.581  15.831  0.00  0.00    +0.000 C 
ATOM     11  C   UNL     1       6.052   6.043  16.143  0.00  0.00    +0.000 C 
ATOM     12  H   UNL     1       4.467   8.254  16.910  0.00  0.00    +0.000 HD
ENDROOT
BRANCH  10  13
ATOM     13  C   UNL     1       6.484   4.349  14.332  0.00  0.00    +0.000 A 
ATOM     14  C   UNL     1       5.622   3.595  13.560  0.00  0.00    +0.000 A 
ATOM     15  C   UNL     1       6.010   3.569  12.190  0.00  0.00    +0.000 A 
ATOM     16  C   UNL     1       7.144   4.315  11.960  0.00  0.00    +0.000 A 
ATOM     17  S   UNL     1       7.733   5.045  13.385  0.00  0.00    +0.000 S 
ENDBRANCH  10  13
BRANCH   1  18
ATOM     18  C   UNL     1       2.125   8.129  18.404  0.00  0.00    +0.000 C 
ATOM     19  O   UNL     1       1.594   8.993  17.724  0.00  0.00    +0.000 OA
BRANCH  18  20
ATOM     20  O   UNL     1       2.056   8.077  19.768  0.00  0.00    +0.000 OA
BRANCH  20  21
ATOM     21  C   UNL     1       1.083   8.981  20.294  0.00  0.00    +0.000 C 
BRANCH  21  22
ATOM     22  C   UNL     1       0.638   8.607  21.696  0.00  0.00    +0.000 C 
BRANCH  22  24
ATOM     23  C   UNL     1      -0.504  10.070  23.152  0.00  0.00    +0.000 C 
ATOM     24  O   UNL     1       0.731   9.773  22.517  0.00  0.00    +0.000 OA
ENDBRANCH  22  24
ENDBRANCH  21  22
ENDBRANCH  20  21
ENDBRANCH  18  20
ENDBRANCH   1  18
TORSDOF 6
ENDMDL
MODEL 9
REMARK VINA RESULT:      -6.4      4.567      7.008
REMARK  Name = 
REMARK  8 active torsions:
REMARK  status: ('A' for Active; 'I' for Inactive)
REMARK    1  A    between atoms: C_1  and  O_2
REMARK    2  A    between atoms: O_2  and  C_3
REMARK    3  A    between atoms: C_3  and  C_4
REMARK    4  A    between atoms: C_4  and  O_5
REMARK    5  A    between atoms: O_5  and  C_6
REMARK    6  A    between atoms: C_6  and  C_8
REMARK    7  A    between atoms: C_12  and  C_13
REMARK    8  A    between atoms: C_17  and  C_18
REMARK                            x       y       z     vdW  Elec       q    Type
REMARK                         _______ _______ _______ _____ _____    ______ ____
ROOT
ATOM      1  C   UNL     1       3.309   6.299  18.632  0.00  0.00    +0.000 A 
ATOM      2  N   UNL     1       3.180   7.414  17.827  0.00  0.00    +0.000 N 
ATOM      3  C   UNL     1       2.289   8.291  18.381  0.00  0.00    +0.000 A 
ATOM      4  C   UNL     1       1.860   7.771  19.579  0.00  0.00    +0.000 A 
ATOM      5  C   UNL     1       2.493   6.500  19.740  0.00  0.00    +0.000 A 
ATOM      6  C   UNL     1       2.330   5.552  20.880  0.00  0.00    +0.000 C 
ATOM      7  C   UNL     1       0.923   8.482  20.426  0.00  0.00    +0.000 C 
ATOM      8  O   UNL     1       0.545   8.032  21.510  0.00  0.00    +0.000 OA
ATOM      9  C   UNL     1       0.370   9.803  19.938  0.00  0.00    +0.000 C 
ATOM     10  C   UNL     1       0.956  10.422  18.647  0.00  0.00    +0.000 C 
ATOM     11  C   UNL     1       1.873   9.562  17.743  0.00  0.00    +0.000 C 
ATOM     12  H   UNL     1       3.685   7.540  16.957  0.00  0.00    +0.000 HD
ENDROOT
BRANCH  10  13
ATOM     13  C   UNL     1       1.629  11.740  18.982  0.00  0.00    +0.000 A 
ATOM     14  C   UNL     1       2.456  12.510  18.189  0.00  0.00    +0.000 A 
ATOM     15  C   UNL     1       2.944  13.658  18.877  0.00  0.00    +0.000 A 
ATOM     16  C   UNL     1       2.461  13.734  20.164  0.00  0.00    +0.000 A 
ATOM     17  S   UNL     1       1.423  12.432  20.538  0.00  0.00    +0.000 S 
ENDBRANCH  10  13
BRANCH   1  18
ATOM     18  C   UNL     1       4.202   5.193  18.355  0.00  0.00    +0.000 C 
ATOM     19  O   UNL     1       5.211   4.890  18.972  0.00  0.00    +0.000 OA
BRANCH  18  20
ATOM     20  O   UNL     1       3.811   4.600  17.188  0.00  0.00    +0.000 OA
BRANCH  20  21
ATOM     21  C   UNL     1       2.687   3.738  17.370  0.00  0.00    +0.000 C 
BRANCH  21  22
ATOM     22  C   UNL     1       3.078   2.377  17.918  0.00  0.00    +0.000 C 
BRANCH  22  24
ATOM     23  C   UNL     1       0.977   2.636  18.957  0.00  0.00    +0.000 C 
ATOM     24  O   UNL     1       2.296   2.128  19.087  0.00  0.00    +0.000 OA
ENDBRANCH  22  24
ENDBRANCH  21  22
ENDBRANCH  20  21
ENDBRANCH  18  20
ENDBRANCH   1  18
TORSDOF 6
ENDMDL
