MODEL 1
REMARK VINA RESULT:      -7.7      0.000      0.000
REMARK  Name = 
REMARK  8 active torsions:
REMARK  status: ('A' for Active; 'I' for Inactive)
REMARK    1  A    between atoms: C_2  and  C_3
REMARK    2  A    between atoms: C_2  and  C_21
REMARK    3  A    between atoms: C_3  and  C_4
REMARK    4  A    between atoms: C_4  and  C_5
REMARK    5  A    between atoms: C_5  and  C_6
REMARK    6  A    between atoms: C_6  and  N_7
REMARK    7  A    between atoms: C_10  and  O_11
REMARK    8  A    between atoms: C_10  and  C_12
REMARK                            x       y       z     vdW  Elec       q    Type
REMARK                         _______ _______ _______ _____ _____    ______ ____
ROOT
ATOM      1  N   UNL     1       4.053   3.330  17.816  0.00  0.00    +0.000 NA
ATOM      2  C   UNL     1       4.937   3.441  16.643  0.00  0.00    +0.000 C 
ATOM      3  C   UNL     1       5.685   4.777  16.631  0.00  0.00    +0.000 C 
ATOM      4  C   UNL     1       6.461   5.017  17.939  0.00  0.00    +0.000 C 
ATOM      5  C   UNL     1       5.553   4.766  19.148  0.00  0.00    +0.000 C 
ATOM      6  C   UNL     1       4.852   3.415  19.050  0.00  0.00    +0.000 C 
ENDROOT
BRANCH   4   7
ATOM      7  C   UNL     1       7.049   6.430  18.007  0.00  0.00    +0.000 A 
ATOM      8  C   UNL     1       8.145   6.704  18.852  0.00  0.00    +0.000 A 
ATOM      9  C   UNL     1       8.728   7.973  18.896  0.00  0.00    +0.000 A 
ATOM     10  C   UNL     1       8.224   8.992  18.097  0.00  0.00    +0.000 A 
ATOM     11 CL   UNL     1       8.955  10.549  18.133  0.00  0.00    +0.000 Cl
ATOM     12  C   UNL     1       7.139   8.754  17.261  0.00  0.00    +0.000 A 
ATOM     13  C   UNL     1       6.561   7.481  17.211  0.00  0.00    +0.000 A 
ENDBRANCH   4   7
BRANCH   4  14
ATOM     14  O   UNL     1       7.519   4.044  18.004  0.00  0.00    +0.000 OA
ATOM     15  H   UNL     1       7.948   4.150  18.872  0.00  0.00    +0.000 HD
ENDBRANCH   4  14
BRANCH   1  16
ATOM     16  C   UNL     1       3.278   2.076  17.731  0.00  0.00    +0.000 C 
BRANCH  16  17
ATOM     17  C   UNL     1       2.279   1.922  18.880  0.00  0.00    +0.000 C 
BRANCH  17  18
ATOM     18  C   UNL     1       1.036   2.788  18.696  0.00  0.00    +0.000 C 
BRANCH  18  19
ATOM     19  C   UNL     1       0.613   3.347  20.053  0.00  0.00    +0.000 C 
BRANCH  19  21
ATOM     20  O   UNL     1       2.314   4.008  21.624  0.00  0.00    +0.000 OA
ATOM     21  C   UNL     1       1.636   4.295  20.641  0.00  0.00    +0.000 C 
BRANCH  21  22
ATOM     22  C   UNL     1       1.814   5.625  19.984  0.00  0.00    +0.000 A 
ATOM     23  C   UNL     1       1.622   6.777  20.762  0.00  0.00    +0.000 A 
ATOM     24  C   UNL     1       1.777   8.042  20.196  0.00  0.00    +0.000 A 
ATOM     25  C   UNL     1       2.119   8.155  18.853  0.00  0.00    +0.000 A 
ATOM     26  F   UNL     1       2.263   9.369  18.307  0.00  0.00    +0.000 F 
ATOM     27  C   UNL     1       2.311   7.024  18.068  0.00  0.00    +0.000 A 
ATOM     28  C   UNL     1       2.159   5.755  18.631  0.00  0.00    +0.000 A 
ENDBRANCH  21  22
ENDBRANCH  19  21
ENDBRANCH  18  19
ENDBRANCH  17  18
ENDBRANCH  16  17
ENDBRANCH   1  16
TORSDOF 8
ENDMDL
MODEL 2
REMARK VINA RESULT:      -7.6      1.012      1.209
REMARK  Name = 
REMARK  8 active torsions:
REMARK  status: ('A' for Active; 'I' for Inactive)
REMARK    1  A    between atoms: C_2  and  C_3
REMARK    2  A    between atoms: C_2  and  C_21
REMARK    3  A    between atoms: C_3  and  C_4
REMARK    4  A    between atoms: C_4  and  C_5
REMARK    5  A    between atoms: C_5  and  C_6
REMARK    6  A    between atoms: C_6  and  N_7
REMARK    7  A    between atoms: C_10  and  O_11
REMARK    8  A    between atoms: C_10  and  C_12
REMARK                            x       y       z     vdW  Elec       q    Type
REMARK                         _______ _______ _______ _____ _____    ______ ____
ROOT
ATOM      1  N   UNL     1       3.072   3.046  18.378  0.00  0.00    +0.000 NA
ATOM      2  C   UNL     1       3.250   3.540  17.002  0.00  0.00    +0.000 C 
ATOM      3  C   UNL     1       4.134   4.790  16.968  0.00  0.00    +0.000 C 
ATOM      4  C   UNL     1       5.491   4.558  17.657  0.00  0.00    +0.000 C 
ATOM      5  C   UNL     1       5.282   3.921  19.035  0.00  0.00    +0.000 C 
ATOM      6  C   UNL     1       4.380   2.694  18.954  0.00  0.00    +0.000 C 
ENDROOT
BRANCH   4   7
ATOM      7  C   UNL     1       6.296   5.855  17.794  0.00  0.00    +0.000 A 
ATOM      8  C   UNL     1       7.428   5.904  18.632  0.00  0.00    +0.000 A 
ATOM      9  C   UNL     1       8.205   7.060  18.737  0.00  0.00    +0.000 A 
ATOM     10  C   UNL     1       7.860   8.191  18.005  0.00  0.00    +0.000 A 
ATOM     11 CL   UNL     1       8.829   9.609  18.114  0.00  0.00    +0.000 Cl
ATOM     12  C   UNL     1       6.744   8.175  17.176  0.00  0.00    +0.000 A 
ATOM     13  C   UNL     1       5.972   7.014  17.066  0.00  0.00    +0.000 A 
ENDBRANCH   4   7
BRANCH   4  14
ATOM     14  O   UNL     1       6.226   3.608  16.866  0.00  0.00    +0.000 OA
ATOM     15  H   UNL     1       5.600   2.907  16.611  0.00  0.00    +0.000 HD
ENDBRANCH   4  14
BRANCH   1  16
ATOM     16  C   UNL     1       2.132   1.907  18.374  0.00  0.00    +0.000 C 
BRANCH  16  17
ATOM     17  C   UNL     1       0.849   2.200  19.154  0.00  0.00    +0.000 C 
BRANCH  17  18
ATOM     18  C   UNL     1       1.118   2.899  20.484  0.00  0.00    +0.000 C 
BRANCH  18  19
ATOM     19  C   UNL     1       0.733   4.372  20.360  0.00  0.00    +0.000 C 
BRANCH  19  21
ATOM     20  O   UNL     1       2.862   4.976  21.310  0.00  0.00    +0.000 OA
ATOM     21  C   UNL     1       1.893   5.305  20.631  0.00  0.00    +0.000 C 
BRANCH  21  22
ATOM     22  C   UNL     1       1.839   6.676  20.038  0.00  0.00    +0.000 A 
ATOM     23  C   UNL     1       1.198   7.688  20.771  0.00  0.00    +0.000 A 
ATOM     24  C   UNL     1       1.120   8.984  20.261  0.00  0.00    +0.000 A 
ATOM     25  C   UNL     1       1.680   9.266  19.021  0.00  0.00    +0.000 A 
ATOM     26  F   UNL     1       1.603  10.509  18.528  0.00  0.00    +0.000 F 
ATOM     27  C   UNL     1       2.318   8.277  18.282  0.00  0.00    +0.000 A 
ATOM     28  C   UNL     1       2.399   6.978  18.789  0.00  0.00    +0.000 A 
ENDBRANCH  21  22
ENDBRANCH  19  21
ENDBRANCH  18  19
ENDBRANCH  17  18
ENDBRANCH  16  17
ENDBRANCH   1  16
TORSDOF 8
ENDMDL
MODEL 3
REMARK VINA RESULT:      -7.2      5.093      8.332
REMARK  Name = 
REMARK  8 active torsions:
REMARK  status: ('A' for Active; 'I' for Inactive)
REMARK    1  A    between atoms: C_2  and  C_3
REMARK    2  A    between atoms: C_2  and  C_21
REMARK    3  A    between atoms: C_3  and  C_4
REMARK    4  A    between atoms: C_4  and  C_5
REMARK    5  A    between atoms: C_5  and  C_6
REMARK    6  A    between atoms: C_6  and  N_7
REMARK    7  A    between atoms: C_10  and  O_11
REMARK    8  A    between atoms: C_10  and  C_12
REMARK                            x       y       z     vdW  Elec       q    Type
REMARK                         _______ _______ _______ _____ _____    ______ ____
ROOT
ATOM      1  N   UNL     1       1.287   9.295  18.603  0.00  0.00    +0.000 NA
ATOM      2  C   UNL     1       1.432  10.758  18.520  0.00  0.00    +0.000 C 
ATOM      3  C   UNL     1       0.302  11.475  19.264  0.00  0.00    +0.000 C 
ATOM      4  C   UNL     1       0.184  11.009  20.726  0.00  0.00    +0.000 C 
ATOM      5  C   UNL     1       0.168   9.477  20.794  0.00  0.00    +0.000 C 
ATOM      6  C   UNL     1       1.328   8.870  20.013  0.00  0.00    +0.000 C 
ENDROOT
BRANCH   4   7
ATOM      7  C   UNL     1      -1.061  11.579  21.414  0.00  0.00    +0.000 A 
ATOM      8  C   UNL     1      -1.969  12.379  20.690  0.00  0.00    +0.000 A 
ATOM      9  C   UNL     1      -3.135  12.870  21.282  0.00  0.00    +0.000 A 
ATOM     10  C   UNL     1      -3.413  12.572  22.611  0.00  0.00    +0.000 A 
ATOM     11 CL   UNL     1      -4.860  13.157  23.336  0.00  0.00    +0.000 Cl
ATOM     12  C   UNL     1      -2.532  11.792  23.352  0.00  0.00    +0.000 A 
ATOM     13  C   UNL     1      -1.369  11.293  22.756  0.00  0.00    +0.000 A 
ENDBRANCH   4   7
BRANCH   4  14
ATOM     14  O   UNL     1       1.367  11.443  21.420  0.00  0.00    +0.000 OA
ATOM     15  H   UNL     1       1.129  11.525  22.361  0.00  0.00    +0.000 HD
ENDBRANCH   4  14
BRANCH   1  16
ATOM     16  C   UNL     1       2.335   8.649  17.788  0.00  0.00    +0.000 C 
BRANCH  16  17
ATOM     17  C   UNL     1       2.807   7.320  18.382  0.00  0.00    +0.000 C 
BRANCH  17  18
ATOM     18  C   UNL     1       3.673   6.521  17.413  0.00  0.00    +0.000 C 
BRANCH  18  19
ATOM     19  C   UNL     1       4.457   5.469  18.196  0.00  0.00    +0.000 C 
BRANCH  19  21
ATOM     20  O   UNL     1       4.014   3.348  17.145  0.00  0.00    +0.000 OA
ATOM     21  C   UNL     1       3.839   4.091  18.108  0.00  0.00    +0.000 C 
BRANCH  21  22
ATOM     22  C   UNL     1       2.988   3.633  19.248  0.00  0.00    +0.000 A 
ATOM     23  C   UNL     1       3.609   2.936  20.297  0.00  0.00    +0.000 A 
ATOM     24  C   UNL     1       2.859   2.487  21.384  0.00  0.00    +0.000 A 
ATOM     25  C   UNL     1       1.491   2.733  21.420  0.00  0.00    +0.000 A 
ATOM     26  F   UNL     1       0.769   2.299  22.461  0.00  0.00    +0.000 F 
ATOM     27  C   UNL     1       0.861   3.421  20.390  0.00  0.00    +0.000 A 
ATOM     28  C   UNL     1       1.608   3.873  19.300  0.00  0.00    +0.000 A 
ENDBRANCH  21  22
ENDBRANCH  19  21
ENDBRANCH  18  19
ENDBRANCH  17  18
ENDBRANCH  16  17
ENDBRANCH   1  16
TORSDOF 8
ENDMDL
MODEL 4
REMARK VINA RESULT:      -7.2      5.302      8.538
REMARK  Name = 
REMARK  8 active torsions:
REMARK  status: ('A' for Active; 'I' for Inactive)
REMARK    1  A    between atoms: C_2  and  C_3
REMARK    2  A    between atoms: C_2  and  C_21
REMARK    3  A    between atoms: C_3  and  C_4
REMARK    4  A    between atoms: C_4  and  C_5
REMARK    5  A    between atoms: C_5  and  C_6
REMARK    6  A    between atoms: C_6  and  N_7
REMARK    7  A    between atoms: C_10  and  O_11
REMARK    8  A    between atoms: C_10  and  C_12
REMARK                            x       y       z     vdW  Elec       q    Type
REMARK                         _______ _______ _______ _____ _____    ______ ____
ROOT
ATOM      1  N   UNL     1       1.091   9.823  18.562  0.00  0.00    +0.000 NA
ATOM      2  C   UNL     1       1.265  11.281  18.668  0.00  0.00    +0.000 C 
ATOM      3  C   UNL     1       0.098  11.931  19.416  0.00  0.00    +0.000 C 
ATOM      4  C   UNL     1      -0.128  11.295  20.799  0.00  0.00    +0.000 C 
ATOM      5  C   UNL     1      -0.175   9.768  20.679  0.00  0.00    +0.000 C 
ATOM      6  C   UNL     1       1.027   9.231  19.909  0.00  0.00    +0.000 C 
ENDROOT
BRANCH   4   7
ATOM      7  C   UNL     1      -1.409  11.809  21.466  0.00  0.00    +0.000 A 
ATOM      8  C   UNL     1      -1.620  11.612  22.846  0.00  0.00    +0.000 A 
ATOM      9  C   UNL     1      -2.757  12.113  23.485  0.00  0.00    +0.000 A 
ATOM     10  C   UNL     1      -3.706  12.818  22.754  0.00  0.00    +0.000 A 
ATOM     11 CL   UNL     1      -5.095  13.456  23.543  0.00  0.00    +0.000 Cl
ATOM     12  C   UNL     1      -3.528  13.021  21.389  0.00  0.00    +0.000 A 
ATOM     13  C   UNL     1      -2.386  12.527  20.752  0.00  0.00    +0.000 A 
ENDBRANCH   4   7
BRANCH   4  14
ATOM     14  O   UNL     1       1.010  11.613  21.618  0.00  0.00    +0.000 OA
ATOM     15  H   UNL     1       0.665  11.938  22.470  0.00  0.00    +0.000 HD
ENDBRANCH   4  14
BRANCH   1  16
ATOM     16  C   UNL     1       2.183   9.254  17.746  0.00  0.00    +0.000 C 
BRANCH  16  17
ATOM     17  C   UNL     1       2.659   7.896  18.265  0.00  0.00    +0.000 C 
BRANCH  17  18
ATOM     18  C   UNL     1       3.738   7.277  17.382  0.00  0.00    +0.000 C 
BRANCH  18  19
ATOM     19  C   UNL     1       4.390   6.116  18.131  0.00  0.00    +0.000 C 
BRANCH  19  21
ATOM     20  O   UNL     1       3.781   4.224  16.771  0.00  0.00    +0.000 OA
ATOM     21  C   UNL     1       3.714   4.790  17.859  0.00  0.00    +0.000 C 
BRANCH  21  22
ATOM     22  C   UNL     1       2.941   4.159  18.972  0.00  0.00    +0.000 A 
ATOM     23  C   UNL     1       2.925   4.809  20.216  0.00  0.00    +0.000 A 
ATOM     24  C   UNL     1       2.219   4.261  21.287  0.00  0.00    +0.000 A 
ATOM     25  C   UNL     1       1.533   3.065  21.115  0.00  0.00    +0.000 A 
ATOM     26  F   UNL     1       0.858   2.536  22.142  0.00  0.00    +0.000 F 
ATOM     27  C   UNL     1       1.539   2.407  19.889  0.00  0.00    +0.000 A 
ATOM     28  C   UNL     1       2.244   2.954  18.815  0.00  0.00    +0.000 A 
ENDBRANCH  21  22
ENDBRANCH  19  21
ENDBRANCH  18  19
ENDBRANCH  17  18
ENDBRANCH  16  17
ENDBRANCH   1  16
TORSDOF 8
ENDMDL
MODEL 5
REMARK VINA RESULT:      -7.0      5.179      8.374
REMARK  Name = 
REMARK  8 active torsions:
REMARK  status: ('A' for Active; 'I' for Inactive)
REMARK    1  A    between atoms: C_2  and  C_3
REMARK    2  A    between atoms: C_2  and  C_21
REMARK    3  A    between atoms: C_3  and  C_4
REMARK    4  A    between atoms: C_4  and  C_5
REMARK    5  A    between atoms: C_5  and  C_6
REMARK    6  A    between atoms: C_6  and  N_7
REMARK    7  A    between atoms: C_10  and  O_11
REMARK    8  A    between atoms: C_10  and  C_12
REMARK                            x       y       z     vdW  Elec       q    Type
REMARK                         _______ _______ _______ _____ _____    ______ ____
ROOT
ATOM      1  N   UNL     1       0.983   8.307  20.656  0.00  0.00    +0.000 NA
ATOM      2  C   UNL     1       0.904   9.401  19.672  0.00  0.00    +0.000 C 
ATOM      3  C   UNL     1      -0.229  10.373  20.007  0.00  0.00    +0.000 C 
ATOM      4  C   UNL     1      -0.118  10.921  21.441  0.00  0.00    +0.000 C 
ATOM      5  C   UNL     1       0.094   9.771  22.432  0.00  0.00    +0.000 C 
ATOM      6  C   UNL     1       1.238   8.861  21.996  0.00  0.00    +0.000 C 
ENDROOT
BRANCH   4   7
ATOM      7  C   UNL     1      -1.350  11.739  21.842  0.00  0.00    +0.000 A 
ATOM      8  C   UNL     1      -1.986  12.575  20.901  0.00  0.00    +0.000 A 
ATOM      9  C   UNL     1      -3.138  13.293  21.230  0.00  0.00    +0.000 A 
ATOM     10  C   UNL     1      -3.674  13.190  22.508  0.00  0.00    +0.000 A 
ATOM     11 CL   UNL     1      -5.107  14.056  22.908  0.00  0.00    +0.000 Cl
ATOM     12  C   UNL     1      -3.065  12.380  23.460  0.00  0.00    +0.000 A 
ATOM     13  C   UNL     1      -1.916  11.655  23.127  0.00  0.00    +0.000 A 
ENDBRANCH   4   7
BRANCH   4  14
ATOM     14  O   UNL     1       1.058  11.747  21.504  0.00  0.00    +0.000 OA
ATOM     15  H   UNL     1       1.408  11.672  22.410  0.00  0.00    +0.000 HD
ENDBRANCH   4  14
BRANCH   1  16
ATOM     16  C   UNL     1       2.018   7.342  20.237  0.00  0.00    +0.000 C 
BRANCH  16  17
ATOM     17  C   UNL     1       1.782   5.941  20.807  0.00  0.00    +0.000 C 
BRANCH  17  18
ATOM     18  C   UNL     1       2.488   4.854  20.002  0.00  0.00    +0.000 C 
BRANCH  18  19
ATOM     19  C   UNL     1       1.777   4.685  18.661  0.00  0.00    +0.000 C 
BRANCH  19  21
ATOM     20  O   UNL     1       2.398   3.214  16.858  0.00  0.00    +0.000 OA
ATOM     21  C   UNL     1       2.694   4.168  17.574  0.00  0.00    +0.000 C 
BRANCH  21  22
ATOM     22  C   UNL     1       4.004   4.859  17.377  0.00  0.00    +0.000 A 
ATOM     23  C   UNL     1       5.166   4.073  17.334  0.00  0.00    +0.000 A 
ATOM     24  C   UNL     1       6.413   4.671  17.153  0.00  0.00    +0.000 A 
ATOM     25  C   UNL     1       6.498   6.052  17.018  0.00  0.00    +0.000 A 
ATOM     26  F   UNL     1       7.694   6.627  16.847  0.00  0.00    +0.000 F 
ATOM     27  C   UNL     1       5.357   6.845  17.058  0.00  0.00    +0.000 A 
ATOM     28  C   UNL     1       4.106   6.250  17.239  0.00  0.00    +0.000 A 
ENDBRANCH  21  22
ENDBRANCH  19  21
ENDBRANCH  18  19
ENDBRANCH  17  18
ENDBRANCH  16  17
ENDBRANCH   1  16
TORSDOF 8
ENDMDL
MODEL 6
REMARK VINA RESULT:      -7.0      4.893      8.190
REMARK  Name = 
REMARK  8 active torsions:
REMARK  status: ('A' for Active; 'I' for Inactive)
REMARK    1  A    between atoms: C_2  and  C_3
REMARK    2  A    between atoms: C_2  and  C_21
REMARK    3  A    between atoms: C_3  and  C_4
REMARK    4  A    between atoms: C_4  and  C_5
REMARK    5  A    between atoms: C_5  and  C_6
REMARK    6  A    between atoms: C_6  and  N_7
REMARK    7  A    between atoms: C_10  and  O_11
REMARK    8  A    between atoms: C_10  and  C_12
REMARK                            x       y       z     vdW  Elec       q    Type
REMARK                         _______ _______ _______ _____ _____    ______ ____
ROOT
ATOM      1  N   UNL     1       1.293   8.152  20.161  0.00  0.00    +0.000 NA
ATOM      2  C   UNL     1       1.258   9.341  19.293  0.00  0.00    +0.000 C 
ATOM      3  C   UNL     1       0.101  10.271  19.666  0.00  0.00    +0.000 C 
ATOM      4  C   UNL     1       0.132  10.667  21.153  0.00  0.00    +0.000 C 
ATOM      5  C   UNL     1       0.302   9.420  22.029  0.00  0.00    +0.000 C 
ATOM      6  C   UNL     1       1.474   8.564  21.563  0.00  0.00    +0.000 C 
ENDROOT
BRANCH   4   7
ATOM      7  C   UNL     1      -1.126  11.436  21.571  0.00  0.00    +0.000 A 
ATOM      8  C   UNL     1      -1.493  11.513  22.930  0.00  0.00    +0.000 A 
ATOM      9  C   UNL     1      -2.609  12.248  23.340  0.00  0.00    +0.000 A 
ATOM     10  C   UNL     1      -3.379  12.916  22.396  0.00  0.00    +0.000 A 
ATOM     11 CL   UNL     1      -4.740  13.841  22.900  0.00  0.00    +0.000 Cl
ATOM     12  C   UNL     1      -3.046  12.851  21.047  0.00  0.00    +0.000 A 
ATOM     13  C   UNL     1      -1.924  12.123  20.639  0.00  0.00    +0.000 A 
ENDBRANCH   4   7
BRANCH   4  14
ATOM     14  O   UNL     1       1.296  11.484  21.364  0.00  0.00    +0.000 OA
ATOM     15  H   UNL     1       1.979  10.909  21.754  0.00  0.00    +0.000 HD
ENDBRANCH   4  14
BRANCH   1  16
ATOM     16  C   UNL     1       2.357   7.237  19.699  0.00  0.00    +0.000 C 
BRANCH  16  17
ATOM     17  C   UNL     1       2.299   6.980  18.192  0.00  0.00    +0.000 C 
BRANCH  17  18
ATOM     18  C   UNL     1       2.051   5.512  17.857  0.00  0.00    +0.000 C 
BRANCH  18  19
ATOM     19  C   UNL     1       3.131   4.660  18.521  0.00  0.00    +0.000 C 
BRANCH  19  21
ATOM     20  O   UNL     1       4.391   3.636  16.743  0.00  0.00    +0.000 OA
ATOM     21  C   UNL     1       4.349   4.470  17.644  0.00  0.00    +0.000 C 
BRANCH  21  22
ATOM     22  C   UNL     1       5.536   5.342  17.898  0.00  0.00    +0.000 A 
ATOM     23  C   UNL     1       6.362   5.032  18.990  0.00  0.00    +0.000 A 
ATOM     24  C   UNL     1       7.481   5.816  19.269  0.00  0.00    +0.000 A 
ATOM     25  C   UNL     1       7.772   6.908  18.461  0.00  0.00    +0.000 A 
ATOM     26  F   UNL     1       8.844   7.663  18.730  0.00  0.00    +0.000 F 
ATOM     27  C   UNL     1       6.964   7.230  17.376  0.00  0.00    +0.000 A 
ATOM     28  C   UNL     1       5.843   6.447  17.092  0.00  0.00    +0.000 A 
ENDBRANCH  21  22
ENDBRANCH  19  21
ENDBRANCH  18  19
ENDBRANCH  17  18
ENDBRANCH  16  17
ENDBRANCH   1  16
TORSDOF 8
ENDMDL
MODEL 7
REMARK VINA RESULT:      -7.0      5.348      8.763
REMARK  Name = 
REMARK  8 active torsions:
REMARK  status: ('A' for Active; 'I' for Inactive)
REMARK    1  A    between atoms: C_2  and  C_3
REMARK    2  A    between atoms: C_2  and  C_21
REMARK    3  A    between atoms: C_3  and  C_4
REMARK    4  A    between atoms: C_4  and  C_5
REMARK    5  A    between atoms: C_5  and  C_6
REMARK    6  A    between atoms: C_6  and  N_7
REMARK    7  A    between atoms: C_10  and  O_11
REMARK    8  A    between atoms: C_10  and  C_12
REMARK                            x       y       z     vdW  Elec       q    Type
REMARK                         _______ _______ _______ _____ _____    ______ ____
ROOT
ATOM      1  N   UNL     1       0.901   8.474  20.969  0.00  0.00    +0.000 NA
ATOM      2  C   UNL     1       0.730   9.492  19.918  0.00  0.00    +0.000 C 
ATOM      3  C   UNL     1      -0.464  10.404  20.213  0.00  0.00    +0.000 C 
ATOM      4  C   UNL     1      -0.368  11.051  21.607  0.00  0.00    +0.000 C 
ATOM      5  C   UNL     1      -0.059   9.986  22.665  0.00  0.00    +0.000 C 
ATOM      6  C   UNL     1       1.139   9.131  22.265  0.00  0.00    +0.000 C 
ENDROOT
BRANCH   4   7
ATOM      7  C   UNL     1      -1.648  11.807  21.980  0.00  0.00    +0.000 A 
ATOM      8  C   UNL     1      -2.384  12.490  20.991  0.00  0.00    +0.000 A 
ATOM      9  C   UNL     1      -3.579  13.146  21.298  0.00  0.00    +0.000 A 
ATOM     10  C   UNL     1      -4.058  13.132  22.603  0.00  0.00    +0.000 A 
ATOM     11 CL   UNL     1      -5.541  13.919  22.980  0.00  0.00    +0.000 Cl
ATOM     12  C   UNL     1      -3.349  12.473  23.602  0.00  0.00    +0.000 A 
ATOM     13  C   UNL     1      -2.157  11.810  23.291  0.00  0.00    +0.000 A 
ENDBRANCH   4   7
BRANCH   4  14
ATOM     14  O   UNL     1       0.748  11.958  21.591  0.00  0.00    +0.000 OA
ATOM     15  H   UNL     1       1.104  11.953  20.685  0.00  0.00    +0.000 HD
ENDBRANCH   4  14
BRANCH   1  16
ATOM     16  C   UNL     1       1.995   7.557  20.591  0.00  0.00    +0.000 C 
BRANCH  16  17
ATOM     17  C   UNL     1       2.287   7.577  19.089  0.00  0.00    +0.000 C 
BRANCH  17  18
ATOM     18  C   UNL     1       2.646   6.199  18.543  0.00  0.00    +0.000 C 
BRANCH  18  19
ATOM     19  C   UNL     1       3.353   5.398  19.634  0.00  0.00    +0.000 C 
BRANCH  19  21
ATOM     20  O   UNL     1       3.842   3.040  19.594  0.00  0.00    +0.000 OA
ATOM     21  C   UNL     1       4.027   4.152  19.104  0.00  0.00    +0.000 C 
BRANCH  21  22
ATOM     22  C   UNL     1       4.947   4.299  17.935  0.00  0.00    +0.000 A 
ATOM     23  C   UNL     1       6.241   4.788  18.171  0.00  0.00    +0.000 A 
ATOM     24  C   UNL     1       7.138   4.944  17.114  0.00  0.00    +0.000 A 
ATOM     25  C   UNL     1       6.739   4.614  15.824  0.00  0.00    +0.000 A 
ATOM     26  F   UNL     1       7.597   4.767  14.807  0.00  0.00    +0.000 F 
ATOM     27  C   UNL     1       5.461   4.129  15.572  0.00  0.00    +0.000 A 
ATOM     28  C   UNL     1       4.561   3.971  16.628  0.00  0.00    +0.000 A 
ENDBRANCH  21  22
ENDBRANCH  19  21
ENDBRANCH  18  19
ENDBRANCH  17  18
ENDBRANCH  16  17
ENDBRANCH   1  16
TORSDOF 8
ENDMDL
MODEL 8
REMARK VINA RESULT:      -7.0      5.231      8.674
REMARK  Name = 
REMARK  8 active torsions:
REMARK  status: ('A' for Active; 'I' for Inactive)
REMARK    1  A    between atoms: C_2  and  C_3
REMARK    2  A    between atoms: C_2  and  C_21
REMARK    3  A    between atoms: C_3  and  C_4
REMARK    4  A    between atoms: C_4  and  C_5
REMARK    5  A    between atoms: C_5  and  C_6
REMARK    6  A    between atoms: C_6  and  N_7
REMARK    7  A    between atoms: C_10  and  O_11
REMARK    8  A    between atoms: C_10  and  C_12
REMARK                            x       y       z     vdW  Elec       q    Type
REMARK                         _______ _______ _______ _____ _____    ______ ____
ROOT
ATOM      1  N   UNL     1       0.998   8.495  20.269  0.00  0.00    +0.000 NA
ATOM      2  C   UNL     1       1.029   9.748  19.495  0.00  0.00    +0.000 C 
ATOM      3  C   UNL     1      -0.138  10.664  19.869  0.00  0.00    +0.000 C 
ATOM      4  C   UNL     1      -0.194  10.945  21.381  0.00  0.00    +0.000 C 
ATOM      5  C   UNL     1      -0.092   9.632  22.167  0.00  0.00    +0.000 C 
ATOM      6  C   UNL     1       1.097   8.796  21.707  0.00  0.00    +0.000 C 
ENDROOT
BRANCH   4   7
ATOM      7  C   UNL     1      -1.466  11.699  21.781  0.00  0.00    +0.000 A 
ATOM      8  C   UNL     1      -2.218  12.390  20.808  0.00  0.00    +0.000 A 
ATOM      9  C   UNL     1      -3.406  13.045  21.140  0.00  0.00    +0.000 A 
ATOM     10  C   UNL     1      -3.864  13.023  22.452  0.00  0.00    +0.000 A 
ATOM     11 CL   UNL     1      -5.339  13.809  22.859  0.00  0.00    +0.000 Cl
ATOM     12  C   UNL     1      -3.139  12.356  23.435  0.00  0.00    +0.000 A 
ATOM     13  C   UNL     1      -1.954  11.694  23.100  0.00  0.00    +0.000 A 
ENDBRANCH   4   7
BRANCH   4  14
ATOM     14  O   UNL     1       0.965  11.725  21.724  0.00  0.00    +0.000 OA
ATOM     15  H   UNL     1       0.666  12.647  21.824  0.00  0.00    +0.000 HD
ENDBRANCH   4  14
BRANCH   1  16
ATOM     16  C   UNL     1       2.078   7.602  19.803  0.00  0.00    +0.000 C 
BRANCH  16  17
ATOM     17  C   UNL     1       1.985   6.200  20.410  0.00  0.00    +0.000 C 
BRANCH  17  18
ATOM     18  C   UNL     1       2.646   5.138  19.536  0.00  0.00    +0.000 C 
BRANCH  18  19
ATOM     19  C   UNL     1       4.154   5.378  19.515  0.00  0.00    +0.000 C 
BRANCH  19  21
ATOM     20  O   UNL     1       5.040   3.138  19.553  0.00  0.00    +0.000 OA
ATOM     21  C   UNL     1       4.926   4.204  18.953  0.00  0.00    +0.000 C 
BRANCH  21  22
ATOM     22  C   UNL     1       5.565   4.368  17.611  0.00  0.00    +0.000 A 
ATOM     23  C   UNL     1       4.757   4.227  16.473  0.00  0.00    +0.000 A 
ATOM     24  C   UNL     1       5.306   4.370  15.198  0.00  0.00    +0.000 A 
ATOM     25  C   UNL     1       6.660   4.650  15.064  0.00  0.00    +0.000 A 
ATOM     26  F   UNL     1       7.189   4.783  13.841  0.00  0.00    +0.000 F 
ATOM     27  C   UNL     1       7.476   4.791  16.181  0.00  0.00    +0.000 A 
ATOM     28  C   UNL     1       6.930   4.649  17.458  0.00  0.00    +0.000 A 
ENDBRANCH  21  22
ENDBRANCH  19  21
ENDBRANCH  18  19
ENDBRANCH  17  18
ENDBRANCH  16  17
ENDBRANCH   1  16
TORSDOF 8
ENDMDL
MODEL 9
REMARK VINA RESULT:      -6.9      4.923      8.981
REMARK  Name = 
REMARK  8 active torsions:
REMARK  status: ('A' for Active; 'I' for Inactive)
REMARK    1  A    between atoms: C_2  and  C_3
REMARK    2  A    between atoms: C_2  and  C_21
REMARK    3  A    between atoms: C_3  and  C_4
REMARK    4  A    between atoms: C_4  and  C_5
REMARK    5  A    between atoms: C_5  and  C_6
REMARK    6  A    between atoms: C_6  and  N_7
REMARK    7  A    between atoms: C_10  and  O_11
REMARK    8  A    between atoms: C_10  and  C_12
REMARK                            x       y       z     vdW  Elec       q    Type
REMARK                         _______ _______ _______ _____ _____    ______ ____
ROOT
ATOM      1  N   UNL     1       7.120   7.393  17.687  0.00  0.00    +0.000 NA
ATOM      2  C   UNL     1       7.591   6.270  18.515  0.00  0.00    +0.000 C 
ATOM      3  C   UNL     1       6.443   5.322  18.875  0.00  0.00    +0.000 C 
ATOM      4  C   UNL     1       5.696   4.819  17.627  0.00  0.00    +0.000 C 
ATOM      5  C   UNL     1       5.333   5.997  16.716  0.00  0.00    +0.000 C 
ATOM      6  C   UNL     1       6.544   6.879  16.433  0.00  0.00    +0.000 C 
ENDROOT
BRANCH   4   7
ATOM      7  C   UNL     1       4.434   4.029  17.991  0.00  0.00    +0.000 A 
ATOM      8  C   UNL     1       4.387   3.274  19.182  0.00  0.00    +0.000 A 
ATOM      9  C   UNL     1       3.232   2.584  19.558  0.00  0.00    +0.000 A 
ATOM     10  C   UNL     1       2.103   2.635  18.749  0.00  0.00    +0.000 A 
ATOM     11 CL   UNL     1       0.672   1.805  19.223  0.00  0.00    +0.000 Cl
ATOM     12  C   UNL     1       2.123   3.364  17.566  0.00  0.00    +0.000 A 
ATOM     13  C   UNL     1       3.277   4.061  17.193  0.00  0.00    +0.000 A 
ENDBRANCH   4   7
BRANCH   4  14
ATOM     14  O   UNL     1       6.599   3.982  16.884  0.00  0.00    +0.000 OA
ATOM     15  H   UNL     1       6.795   4.446  16.051  0.00  0.00    +0.000 HD
ENDBRANCH   4  14
BRANCH   1  16
ATOM     16  C   UNL     1       8.235   8.333  17.453  0.00  0.00    +0.000 C 
BRANCH  16  17
ATOM     17  C   UNL     1       8.279   9.462  18.485  0.00  0.00    +0.000 C 
BRANCH  17  18
ATOM     18  C   UNL     1       9.542  10.310  18.372  0.00  0.00    +0.000 C 
BRANCH  18  19
ATOM     19  C   UNL     1       9.821  10.972  19.720  0.00  0.00    +0.000 C 
BRANCH  19  21
ATOM     20  O   UNL     1      12.053  11.648  20.318  0.00  0.00    +0.000 OA
ATOM     21  C   UNL     1      11.027  11.885  19.687  0.00  0.00    +0.000 C 
BRANCH  21  22
ATOM     22  C   UNL     1      10.946  13.117  18.844  0.00  0.00    +0.000 A 
ATOM     23  C   UNL     1      11.763  13.192  17.705  0.00  0.00    +0.000 A 
ATOM     24  C   UNL     1      11.725  14.321  16.886  0.00  0.00    +0.000 A 
ATOM     25  C   UNL     1      10.875  15.372  17.207  0.00  0.00    +0.000 A 
ATOM     26  F   UNL     1      10.840  16.457  16.423  0.00  0.00    +0.000 F 
ATOM     27  C   UNL     1      10.059  15.314  18.331  0.00  0.00    +0.000 A 
ATOM     28  C   UNL     1      10.094  14.185  19.153  0.00  0.00    +0.000 A 
ENDBRANCH  21  22
ENDBRANCH  19  21
ENDBRANCH  18  19
ENDBRANCH  17  18
ENDBRANCH  16  17
ENDBRANCH   1  16
TORSDOF 8
ENDMDL
