MODEL 1
REMARK VINA RESULT:      -9.1      0.000      0.000
REMARK  Name = 
REMARK  6 active torsions:
REMARK  status: ('A' for Active; 'I' for Inactive)
REMARK    1  A    between atoms: N_3  and  C_4
REMARK    2  A    between atoms: N_12  and  C_13
REMARK    3  A    between atoms: N_12  and  C_20
REMARK    4  A    between atoms: C_13  and  C_14
REMARK    5  A    between atoms: C_14  and  N_15
REMARK    6  A    between atoms: C_23  and  C_24
REMARK                            x       y       z     vdW  Elec       q    Type
REMARK                         _______ _______ _______ _____ _____    ______ ____
ROOT
ATOM      1  O   UNL     1       1.728   5.517  18.147  0.00  0.00    +0.000 OA
ATOM      2  C   UNL     1       2.834   6.013  18.349  0.00  0.00    +0.000 C 
ATOM      3  N   UNL     1       2.995   7.309  18.800  0.00  0.00    +0.000 N 
ATOM      4  N   UNL     1       3.997   5.267  18.108  0.00  0.00    +0.000 N 
ATOM      5  H   UNL     1       3.906   7.728  18.686  0.00  0.00    +0.000 HD
ENDROOT
BRANCH   3   6
ATOM      6  C   UNL     1       1.935   8.210  19.104  0.00  0.00    +0.000 A 
ATOM      7  C   UNL     1       1.386   9.097  18.167  0.00  0.00    +0.000 A 
ATOM      8  C   UNL     1       0.415  10.036  18.532  0.00  0.00    +0.000 A 
ATOM      9  C   UNL     1      -0.043  10.076  19.836  0.00  0.00    +0.000 A 
ATOM     10  F   UNL     1      -0.956  11.000  20.176  0.00  0.00    +0.000 F 
ATOM     11  C   UNL     1       0.443   9.168  20.773  0.00  0.00    +0.000 A 
ATOM     12 CL   UNL     1      -0.139   9.201  22.395  0.00  0.00    +0.000 Cl
ATOM     13  C   UNL     1       1.422   8.230  20.410  0.00  0.00    +0.000 A 
ENDBRANCH   3   6
BRANCH   4  14
ATOM     14  C   UNL     1       5.403   5.770  18.322  0.00  0.00    +0.000 C 
ATOM     15  C   UNL     1       6.569   4.759  18.215  0.00  0.00    +0.000 C 
ATOM     16  C   UNL     1       6.890   4.381  16.794  0.00  0.00    +0.000 C 
ATOM     17  C   UNL     1       6.598   5.180  15.748  0.00  0.00    +0.000 C 
ATOM     18  C   UNL     1       6.041   6.576  15.958  0.00  0.00    +0.000 C 
ATOM     19  C   UNL     1       5.767   6.963  17.421  0.00  0.00    +0.000 C 
BRANCH  17  20
ATOM     20  C   UNL     1       6.707   4.684  14.351  0.00  0.00    +0.000 A 
ATOM     21  C   UNL     1       5.804   3.745  13.831  0.00  0.00    +0.000 A 
ATOM     22  C   UNL     1       5.885   3.338  12.499  0.00  0.00    +0.000 A 
ATOM     23  C   UNL     1       6.873   3.888  11.705  0.00  0.00    +0.000 A 
ATOM     24  N   UNL     1       7.759   4.801  12.151  0.00  0.00    +0.000 NA
ATOM     25  C   UNL     1       7.643   5.183  13.448  0.00  0.00    +0.000 A 
ENDBRANCH  17  20
ENDBRANCH   4  14
BRANCH   4  26
ATOM     26  C   UNL     1       3.752   3.943  17.453  0.00  0.00    +0.000 C 
BRANCH  26  27
ATOM     27  C   UNL     1       2.342   3.350  17.682  0.00  0.00    +0.000 C 
BRANCH  27  28
ATOM     28  N   UNL     1       2.291   2.270  18.689  0.00  0.00    +0.000 NA
ATOM     29  C   UNL     1       1.026   2.256  19.439  0.00  0.00    +0.000 C 
ATOM     30  C   UNL     1       1.281   3.096  20.676  0.00  0.00    +0.000 C 
ATOM     31  C   UNL     1       2.724   2.795  21.017  0.00  0.00    +0.000 C 
ATOM     32  C   UNL     1       3.366   2.422  19.691  0.00  0.00    +0.000 C 
ENDBRANCH  27  28
ENDBRANCH  26  27
ENDBRANCH   4  26
TORSDOF 6
ENDMDL
MODEL 2
REMARK VINA RESULT:      -8.7      0.915      1.256
REMARK  Name = 
REMARK  6 active torsions:
REMARK  status: ('A' for Active; 'I' for Inactive)
REMARK    1  A    between atoms: N_3  and  C_4
REMARK    2  A    between atoms: N_12  and  C_13
REMARK    3  A    between atoms: N_12  and  C_20
REMARK    4  A    between atoms: C_13  and  C_14
REMARK    5  A    between atoms: C_14  and  N_15
REMARK    6  A    between atoms: C_23  and  C_24
REMARK                            x       y       z     vdW  Elec       q    Type
REMARK                         _______ _______ _______ _____ _____    ______ ____
ROOT
ATOM      1  O   UNL     1       1.613   5.615  18.246  0.00  0.00    +0.000 OA
ATOM      2  C   UNL     1       2.742   6.028  18.506  0.00  0.00    +0.000 C 
ATOM      3  N   UNL     1       2.961   7.202  19.201  0.00  0.00    +0.000 N 
ATOM      4  N   UNL     1       3.870   5.311  18.081  0.00  0.00    +0.000 N 
ATOM      5  H   UNL     1       3.883   7.608  19.142  0.00  0.00    +0.000 HD
ENDROOT
BRANCH   3   6
ATOM      6  C   UNL     1       1.942   8.054  19.715  0.00  0.00    +0.000 A 
ATOM      7  C   UNL     1       1.358   7.881  20.977  0.00  0.00    +0.000 A 
ATOM      8  C   UNL     1       0.290   8.679  21.403  0.00  0.00    +0.000 A 
ATOM      9  C   UNL     1      -0.185   9.684  20.579  0.00  0.00    +0.000 A 
ATOM     10  F   UNL     1      -1.226  10.423  20.992  0.00  0.00    +0.000 F 
ATOM     11  C   UNL     1       0.416   9.915  19.345  0.00  0.00    +0.000 A 
ATOM     12 CL   UNL     1      -0.159  11.178  18.323  0.00  0.00    +0.000 Cl
ATOM     13  C   UNL     1       1.483   9.111  18.914  0.00  0.00    +0.000 A 
ENDBRANCH   3   6
BRANCH   4  14
ATOM     14  C   UNL     1       5.298   5.720  18.343  0.00  0.00    +0.000 C 
ATOM     15  C   UNL     1       6.401   4.640  18.242  0.00  0.00    +0.000 C 
ATOM     16  C   UNL     1       6.737   4.275  16.820  0.00  0.00    +0.000 C 
ATOM     17  C   UNL     1       6.523   5.115  15.788  0.00  0.00    +0.000 C 
ATOM     18  C   UNL     1       6.050   6.538  16.017  0.00  0.00    +0.000 C 
ATOM     19  C   UNL     1       5.761   6.907  17.482  0.00  0.00    +0.000 C 
BRANCH  17  20
ATOM     20  C   UNL     1       6.640   4.645  14.382  0.00  0.00    +0.000 A 
ATOM     21  C   UNL     1       5.720   3.740  13.830  0.00  0.00    +0.000 A 
ATOM     22  C   UNL     1       5.809   3.359  12.491  0.00  0.00    +0.000 A 
ATOM     23  C   UNL     1       6.822   3.899  11.722  0.00  0.00    +0.000 A 
ATOM     24  N   UNL     1       7.724   4.780  12.199  0.00  0.00    +0.000 NA
ATOM     25  C   UNL     1       7.600   5.139  13.502  0.00  0.00    +0.000 A 
ENDBRANCH  17  20
ENDBRANCH   4  14
BRANCH   4  26
ATOM     26  C   UNL     1       3.560   4.154  17.184  0.00  0.00    +0.000 C 
BRANCH  26  27
ATOM     27  C   UNL     1       2.236   3.418  17.497  0.00  0.00    +0.000 C 
BRANCH  27  28
ATOM     28  N   UNL     1       2.375   2.284  18.435  0.00  0.00    +0.000 NA
ATOM     29  C   UNL     1       1.191   2.108  19.288  0.00  0.00    +0.000 C 
ATOM     30  C   UNL     1       1.480   2.899  20.549  0.00  0.00    +0.000 C 
ATOM     31  C   UNL     1       2.970   2.720  20.745  0.00  0.00    +0.000 C 
ATOM     32  C   UNL     1       3.519   2.483  19.348  0.00  0.00    +0.000 C 
ENDBRANCH  27  28
ENDBRANCH  26  27
ENDBRANCH   4  26
TORSDOF 6
ENDMDL
MODEL 3
REMARK VINA RESULT:      -8.3      4.758      9.701
REMARK  Name = 
REMARK  6 active torsions:
REMARK  status: ('A' for Active; 'I' for Inactive)
REMARK    1  A    between atoms: N_3  and  C_4
REMARK    2  A    between atoms: N_12  and  C_13
REMARK    3  A    between atoms: N_12  and  C_20
REMARK    4  A    between atoms: C_13  and  C_14
REMARK    5  A    between atoms: C_14  and  N_15
REMARK    6  A    between atoms: C_23  and  C_24
REMARK                            x       y       z     vdW  Elec       q    Type
REMARK                         _______ _______ _______ _____ _____    ______ ____
ROOT
ATOM      1  O   UNL     1       1.274   8.297  21.807  0.00  0.00    +0.000 OA
ATOM      2  C   UNL     1       1.397   8.628  20.630  0.00  0.00    +0.000 C 
ATOM      3  N   UNL     1       1.841   7.755  19.656  0.00  0.00    +0.000 N 
ATOM      4  N   UNL     1       1.097   9.939  20.231  0.00  0.00    +0.000 N 
ATOM      5  H   UNL     1       2.169   8.157  18.790  0.00  0.00    +0.000 HD
ENDROOT
BRANCH   3   6
ATOM      6  C   UNL     1       2.185   6.390  19.871  0.00  0.00    +0.000 A 
ATOM      7  C   UNL     1       1.399   5.509  20.627  0.00  0.00    +0.000 A 
ATOM      8  C   UNL     1       1.822   4.203  20.899  0.00  0.00    +0.000 A 
ATOM      9  C   UNL     1       3.027   3.754  20.390  0.00  0.00    +0.000 A 
ATOM     10  F   UNL     1       3.431   2.507  20.681  0.00  0.00    +0.000 F 
ATOM     11  C   UNL     1       3.800   4.590  19.587  0.00  0.00    +0.000 A 
ATOM     12 CL   UNL     1       5.292   4.028  18.934  0.00  0.00    +0.000 Cl
ATOM     13  C   UNL     1       3.379   5.902  19.319  0.00  0.00    +0.000 A 
ENDBRANCH   3   6
BRANCH   4  14
ATOM     14  C   UNL     1       1.209  10.455  18.818  0.00  0.00    +0.000 C 
ATOM     15  C   UNL     1       0.413   9.731  17.707  0.00  0.00    +0.000 C 
ATOM     16  C   UNL     1      -1.058  10.047  17.737  0.00  0.00    +0.000 C 
ATOM     17  C   UNL     1      -1.543  11.183  18.277  0.00  0.00    +0.000 C 
ATOM     18  C   UNL     1      -0.616  12.275  18.774  0.00  0.00    +0.000 C 
ATOM     19  C   UNL     1       0.886  11.954  18.689  0.00  0.00    +0.000 C 
BRANCH  17  20
ATOM     20  C   UNL     1      -3.002  11.360  18.506  0.00  0.00    +0.000 A 
ATOM     21  C   UNL     1      -3.494  12.308  19.415  0.00  0.00    +0.000 A 
ATOM     22  C   UNL     1      -4.868  12.503  19.571  0.00  0.00    +0.000 A 
ATOM     23  C   UNL     1      -5.728  11.742  18.802  0.00  0.00    +0.000 A 
ATOM     24  N   UNL     1      -5.308  10.827  17.907  0.00  0.00    +0.000 NA
ATOM     25  C   UNL     1      -3.966  10.672  17.772  0.00  0.00    +0.000 A 
ENDBRANCH  17  20
ENDBRANCH   4  14
BRANCH   4  26
ATOM     26  C   UNL     1       0.797  10.872  21.363  0.00  0.00    +0.000 C 
BRANCH  26  27
ATOM     27  C   UNL     1      -0.664  10.837  21.870  0.00  0.00    +0.000 C 
BRANCH  27  28
ATOM     28  N   UNL     1      -0.938  11.744  23.004  0.00  0.00    +0.000 NA
ATOM     29  C   UNL     1      -2.314  11.621  23.506  0.00  0.00    +0.000 C 
ATOM     30  C   UNL     1      -3.112  12.672  22.760  0.00  0.00    +0.000 C 
ATOM     31  C   UNL     1      -2.133  13.816  22.605  0.00  0.00    +0.000 C 
ATOM     32  C   UNL     1      -0.764  13.158  22.611  0.00  0.00    +0.000 C 
ENDBRANCH  27  28
ENDBRANCH  26  27
ENDBRANCH   4  26
TORSDOF 6
ENDMDL
MODEL 4
REMARK VINA RESULT:      -8.3      4.563      9.080
REMARK  Name = 
REMARK  6 active torsions:
REMARK  status: ('A' for Active; 'I' for Inactive)
REMARK    1  A    between atoms: N_3  and  C_4
REMARK    2  A    between atoms: N_12  and  C_13
REMARK    3  A    between atoms: N_12  and  C_20
REMARK    4  A    between atoms: C_13  and  C_14
REMARK    5  A    between atoms: C_14  and  N_15
REMARK    6  A    between atoms: C_23  and  C_24
REMARK                            x       y       z     vdW  Elec       q    Type
REMARK                         _______ _______ _______ _____ _____    ______ ____
ROOT
ATOM      1  O   UNL     1       1.710   8.255  21.901  0.00  0.00    +0.000 OA
ATOM      2  C   UNL     1       1.376   8.477  20.739  0.00  0.00    +0.000 C 
ATOM      3  N   UNL     1       1.644   7.596  19.709  0.00  0.00    +0.000 N 
ATOM      4  N   UNL     1       0.708   9.666  20.411  0.00  0.00    +0.000 N 
ATOM      5  H   UNL     1       1.586   7.955  18.768  0.00  0.00    +0.000 HD
ENDROOT
BRANCH   3   6
ATOM      6  C   UNL     1       2.304   6.342  19.851  0.00  0.00    +0.000 A 
ATOM      7  C   UNL     1       3.551   6.059  19.277  0.00  0.00    +0.000 A 
ATOM      8  C   UNL     1       4.119   4.783  19.356  0.00  0.00    +0.000 A 
ATOM      9  C   UNL     1       3.457   3.780  20.042  0.00  0.00    +0.000 A 
ATOM     10  F   UNL     1       4.002   2.555  20.087  0.00  0.00    +0.000 F 
ATOM     11  C   UNL     1       2.244   4.050  20.672  0.00  0.00    +0.000 A 
ATOM     12 CL   UNL     1       1.425   2.810  21.543  0.00  0.00    +0.000 Cl
ATOM     13  C   UNL     1       1.671   5.329  20.587  0.00  0.00    +0.000 A 
ENDBRANCH   3   6
BRANCH   4  14
ATOM     14  C   UNL     1       0.249  10.041  19.024  0.00  0.00    +0.000 C 
ATOM     15  C   UNL     1      -0.524  11.369  18.841  0.00  0.00    +0.000 C 
ATOM     16  C   UNL     1       0.366  12.581  18.906  0.00  0.00    +0.000 C 
ATOM     17  C   UNL     1       1.683  12.528  18.624  0.00  0.00    +0.000 C 
ATOM     18  C   UNL     1       2.323  11.258  18.094  0.00  0.00    +0.000 C 
ATOM     19  C   UNL     1       1.385  10.044  17.987  0.00  0.00    +0.000 C 
BRANCH  17  20
ATOM     20  C   UNL     1       2.578  13.677  18.924  0.00  0.00    +0.000 A 
ATOM     21  C   UNL     1       2.974  14.581  17.926  0.00  0.00    +0.000 A 
ATOM     22  C   UNL     1       3.763  15.688  18.239  0.00  0.00    +0.000 A 
ATOM     23  C   UNL     1       4.138  15.875  19.556  0.00  0.00    +0.000 A 
ATOM     24  N   UNL     1       3.776  15.045  20.553  0.00  0.00    +0.000 NA
ATOM     25  C   UNL     1       2.998  13.984  20.215  0.00  0.00    +0.000 A 
ENDBRANCH  17  20
ENDBRANCH   4  14
BRANCH   4  26
ATOM     26  C   UNL     1       0.612  10.647  21.538  0.00  0.00    +0.000 C 
BRANCH  26  27
ATOM     27  C   UNL     1      -0.667  10.530  22.401  0.00  0.00    +0.000 C 
BRANCH  27  28
ATOM     28  N   UNL     1      -1.048  11.776  23.098  0.00  0.00    +0.000 NA
ATOM     29  C   UNL     1      -2.504  11.909  23.260  0.00  0.00    +0.000 C 
ATOM     30  C   UNL     1      -2.972  12.702  22.055  0.00  0.00    +0.000 C 
ATOM     31  C   UNL     1      -1.835  13.669  21.802  0.00  0.00    +0.000 C 
ATOM     32  C   UNL     1      -0.603  12.967  22.347  0.00  0.00    +0.000 C 
ENDBRANCH  27  28
ENDBRANCH  26  27
ENDBRANCH   4  26
TORSDOF 6
ENDMDL
MODEL 5
REMARK VINA RESULT:      -8.2      1.221      1.667
REMARK  Name = 
REMARK  6 active torsions:
REMARK  status: ('A' for Active; 'I' for Inactive)
REMARK    1  A    between atoms: N_3  and  C_4
REMARK    2  A    between atoms: N_12  and  C_13
REMARK    3  A    between atoms: N_12  and  C_20
REMARK    4  A    between atoms: C_13  and  C_14
REMARK    5  A    between atoms: C_14  and  N_15
REMARK    6  A    between atoms: C_23  and  C_24
REMARK                            x       y       z     vdW  Elec       q    Type
REMARK                         _______ _______ _______ _____ _____    ______ ____
ROOT
ATOM      1  O   UNL     1       1.525   5.393  18.425  0.00  0.00    +0.000 OA
ATOM      2  C   UNL     1       2.658   5.867  18.484  0.00  0.00    +0.000 C 
ATOM      3  N   UNL     1       2.920   7.095  19.062  0.00  0.00    +0.000 N 
ATOM      4  N   UNL     1       3.745   5.166  17.941  0.00  0.00    +0.000 N 
ATOM      5  H   UNL     1       3.802   7.531  18.838  0.00  0.00    +0.000 HD
ENDROOT
BRANCH   3   6
ATOM      6  C   UNL     1       1.948   7.941  19.667  0.00  0.00    +0.000 A 
ATOM      7  C   UNL     1       1.427   7.720  20.950  0.00  0.00    +0.000 A 
ATOM      8  C   UNL     1       0.401   8.517  21.468  0.00  0.00    +0.000 A 
ATOM      9  C   UNL     1      -0.096   9.568  20.718  0.00  0.00    +0.000 A 
ATOM     10  F   UNL     1      -1.098  10.307  21.219  0.00  0.00    +0.000 F 
ATOM     11  C   UNL     1       0.444   9.845  19.464  0.00  0.00    +0.000 A 
ATOM     12 CL   UNL     1      -0.158  11.165  18.534  0.00  0.00    +0.000 Cl
ATOM     13  C   UNL     1       1.470   9.042  18.941  0.00  0.00    +0.000 A 
ENDBRANCH   3   6
BRANCH   4  14
ATOM     14  C   UNL     1       5.174   5.648  17.957  0.00  0.00    +0.000 C 
ATOM     15  C   UNL     1       6.303   4.604  17.784  0.00  0.00    +0.000 C 
ATOM     16  C   UNL     1       6.449   4.128  16.363  0.00  0.00    +0.000 C 
ATOM     17  C   UNL     1       6.050   4.866  15.308  0.00  0.00    +0.000 C 
ATOM     18  C   UNL     1       5.546   6.285  15.487  0.00  0.00    +0.000 C 
ATOM     19  C   UNL     1       5.451   6.771  16.943  0.00  0.00    +0.000 C 
BRANCH  17  20
ATOM     20  C   UNL     1       5.988   4.279  13.943  0.00  0.00    +0.000 A 
ATOM     21  C   UNL     1       7.145   4.077  13.175  0.00  0.00    +0.000 A 
ATOM     22  C   UNL     1       7.073   3.467  11.922  0.00  0.00    +0.000 A 
ATOM     23  C   UNL     1       5.835   3.064  11.460  0.00  0.00    +0.000 A 
ATOM     24  N   UNL     1       4.695   3.224  12.161  0.00  0.00    +0.000 NA
ATOM     25  C   UNL     1       4.804   3.808  13.381  0.00  0.00    +0.000 A 
ENDBRANCH  17  20
ENDBRANCH   4  14
BRANCH   4  26
ATOM     26  C   UNL     1       3.363   3.936  17.177  0.00  0.00    +0.000 C 
BRANCH  26  27
ATOM     27  C   UNL     1       2.100   3.209  17.696  0.00  0.00    +0.000 C 
BRANCH  27  28
ATOM     28  N   UNL     1       2.379   2.072  18.599  0.00  0.00    +0.000 NA
ATOM     29  C   UNL     1       1.754   2.234  19.920  0.00  0.00    +0.000 C 
ATOM     30  C   UNL     1       2.809   2.894  20.787  0.00  0.00    +0.000 C 
ATOM     31  C   UNL     1       4.105   2.293  20.288  0.00  0.00    +0.000 C 
ATOM     32  C   UNL     1       3.829   1.925  18.840  0.00  0.00    +0.000 C 
ENDBRANCH  27  28
ENDBRANCH  26  27
ENDBRANCH   4  26
TORSDOF 6
ENDMDL
MODEL 6
REMARK VINA RESULT:      -8.1      4.520      9.580
REMARK  Name = 
REMARK  6 active torsions:
REMARK  status: ('A' for Active; 'I' for Inactive)
REMARK    1  A    between atoms: N_3  and  C_4
REMARK    2  A    between atoms: N_12  and  C_13
REMARK    3  A    between atoms: N_12  and  C_20
REMARK    4  A    between atoms: C_13  and  C_14
REMARK    5  A    between atoms: C_14  and  N_15
REMARK    6  A    between atoms: C_23  and  C_24
REMARK                            x       y       z     vdW  Elec       q    Type
REMARK                         _______ _______ _______ _____ _____    ______ ____
ROOT
ATOM      1  O   UNL     1       1.568   8.311  21.614  0.00  0.00    +0.000 OA
ATOM      2  C   UNL     1       1.618   8.620  20.425  0.00  0.00    +0.000 C 
ATOM      3  N   UNL     1       2.076   7.754  19.451  0.00  0.00    +0.000 N 
ATOM      4  N   UNL     1       1.213   9.898  20.011  0.00  0.00    +0.000 N 
ATOM      5  H   UNL     1       2.338   8.155  18.563  0.00  0.00    +0.000 HD
ENDROOT
BRANCH   3   6
ATOM      6  C   UNL     1       2.520   6.421  19.681  0.00  0.00    +0.000 A 
ATOM      7  C   UNL     1       3.780   5.950  19.285  0.00  0.00    +0.000 A 
ATOM      8  C   UNL     1       4.139   4.606  19.440  0.00  0.00    +0.000 A 
ATOM      9  C   UNL     1       3.249   3.723  20.024  0.00  0.00    +0.000 A 
ATOM     10  F   UNL     1       3.598   2.432  20.141  0.00  0.00    +0.000 F 
ATOM     11  C   UNL     1       2.013   4.177  20.479  0.00  0.00    +0.000 A 
ATOM     12 CL   UNL     1       0.909   3.084  21.224  0.00  0.00    +0.000 Cl
ATOM     13  C   UNL     1       1.650   5.523  20.318  0.00  0.00    +0.000 A 
ENDBRANCH   3   6
BRANCH   4  14
ATOM     14  C   UNL     1       1.228  10.385  18.584  0.00  0.00    +0.000 C 
ATOM     15  C   UNL     1       0.341   9.653  17.549  0.00  0.00    +0.000 C 
ATOM     16  C   UNL     1      -1.119   9.994  17.680  0.00  0.00    +0.000 C 
ATOM     17  C   UNL     1      -1.546  11.148  18.232  0.00  0.00    +0.000 C 
ATOM     18  C   UNL     1      -0.567  12.234  18.637  0.00  0.00    +0.000 C 
ATOM     19  C   UNL     1       0.919  11.886  18.448  0.00  0.00    +0.000 C 
BRANCH  17  20
ATOM     20  C   UNL     1      -2.980  11.353  18.563  0.00  0.00    +0.000 A 
ATOM     21  C   UNL     1      -3.390  12.328  19.486  0.00  0.00    +0.000 A 
ATOM     22  C   UNL     1      -4.745  12.548  19.738  0.00  0.00    +0.000 A 
ATOM     23  C   UNL     1      -5.671  11.787  19.051  0.00  0.00    +0.000 A 
ATOM     24  N   UNL     1      -5.332  10.846  18.148  0.00  0.00    +0.000 NA
ATOM     25  C   UNL     1      -4.006  10.667  17.918  0.00  0.00    +0.000 A 
ENDBRANCH  17  20
ENDBRANCH   4  14
BRANCH   4  26
ATOM     26  C   UNL     1       0.901  10.837  21.134  0.00  0.00    +0.000 C 
BRANCH  26  27
ATOM     27  C   UNL     1      -0.527  10.711  21.715  0.00  0.00    +0.000 C 
BRANCH  27  28
ATOM     28  N   UNL     1      -0.770  11.530  22.922  0.00  0.00    +0.000 NA
ATOM     29  C   UNL     1      -2.090  11.279  23.518  0.00  0.00    +0.000 C 
ATOM     30  C   UNL     1      -3.014  12.312  22.902  0.00  0.00    +0.000 C 
ATOM     31  C   UNL     1      -2.129  13.530  22.746  0.00  0.00    +0.000 C 
ATOM     32  C   UNL     1      -0.723  12.972  22.607  0.00  0.00    +0.000 C 
ENDBRANCH  27  28
ENDBRANCH  26  27
ENDBRANCH   4  26
TORSDOF 6
ENDMDL
MODEL 7
REMARK VINA RESULT:      -8.0      5.108      9.929
REMARK  Name = 
REMARK  6 active torsions:
REMARK  status: ('A' for Active; 'I' for Inactive)
REMARK    1  A    between atoms: N_3  and  C_4
REMARK    2  A    between atoms: N_12  and  C_13
REMARK    3  A    between atoms: N_12  and  C_20
REMARK    4  A    between atoms: C_13  and  C_14
REMARK    5  A    between atoms: C_14  and  N_15
REMARK    6  A    between atoms: C_23  and  C_24
REMARK                            x       y       z     vdW  Elec       q    Type
REMARK                         _______ _______ _______ _____ _____    ______ ____
ROOT
ATOM      1  O   UNL     1       0.011   9.774  18.077  0.00  0.00    +0.000 OA
ATOM      2  C   UNL     1       0.485  10.280  19.093  0.00  0.00    +0.000 C 
ATOM      3  N   UNL     1       1.302   9.579  19.959  0.00  0.00    +0.000 N 
ATOM      4  N   UNL     1       0.191  11.612  19.420  0.00  0.00    +0.000 N 
ATOM      5  H   UNL     1       1.428   9.961  20.885  0.00  0.00    +0.000 HD
ENDROOT
BRANCH   3   6
ATOM      6  C   UNL     1       1.712   8.226  19.788  0.00  0.00    +0.000 A 
ATOM      7  C   UNL     1       1.368   7.199  20.678  0.00  0.00    +0.000 A 
ATOM      8  C   UNL     1       1.874   5.904  20.529  0.00  0.00    +0.000 A 
ATOM      9  C   UNL     1       2.709   5.613  19.465  0.00  0.00    +0.000 A 
ATOM     10  F   UNL     1       3.207   4.372  19.350  0.00  0.00    +0.000 F 
ATOM     11  C   UNL     1       3.020   6.600  18.533  0.00  0.00    +0.000 A 
ATOM     12 CL   UNL     1       4.043   6.238  17.195  0.00  0.00    +0.000 Cl
ATOM     13  C   UNL     1       2.517   7.903  18.686  0.00  0.00    +0.000 A 
ENDBRANCH   3   6
BRANCH   4  14
ATOM     14  C   UNL     1       0.715  12.335  20.636  0.00  0.00    +0.000 C 
ATOM     15  C   UNL     1       2.095  13.028  20.539  0.00  0.00    +0.000 C 
ATOM     16  C   UNL     1       2.053  14.314  19.757  0.00  0.00    +0.000 C 
ATOM     17  C   UNL     1       0.926  15.041  19.620  0.00  0.00    +0.000 C 
ATOM     18  C   UNL     1      -0.344  14.668  20.361  0.00  0.00    +0.000 C 
ATOM     19  C   UNL     1      -0.266  13.379  21.195  0.00  0.00    +0.000 C 
BRANCH  17  20
ATOM     20  C   UNL     1       0.855  16.169  18.654  0.00  0.00    +0.000 A 
ATOM     21  C   UNL     1      -0.371  16.729  18.265  0.00  0.00    +0.000 A 
ATOM     22  C   UNL     1      -0.414  17.828  17.406  0.00  0.00    +0.000 A 
ATOM     23  C   UNL     1       0.782  18.353  16.954  0.00  0.00    +0.000 A 
ATOM     24  N   UNL     1       1.986  17.861  17.305  0.00  0.00    +0.000 NA
ATOM     25  C   UNL     1       1.991  16.800  18.152  0.00  0.00    +0.000 A 
ENDBRANCH  17  20
ENDBRANCH   4  14
BRANCH   4  26
ATOM     26  C   UNL     1      -0.838  12.248  18.539  0.00  0.00    +0.000 C 
BRANCH  26  27
ATOM     27  C   UNL     1      -2.306  11.948  18.924  0.00  0.00    +0.000 C 
BRANCH  27  28
ATOM     28  N   UNL     1      -3.211  11.750  17.773  0.00  0.00    +0.000 NA
ATOM     29  C   UNL     1      -4.210  10.699  18.015  0.00  0.00    +0.000 C 
ATOM     30  C   UNL     1      -3.596   9.424  17.468  0.00  0.00    +0.000 C 
ATOM     31  C   UNL     1      -2.818   9.897  16.259  0.00  0.00    +0.000 C 
ATOM     32  C   UNL     1      -2.461  11.341  16.568  0.00  0.00    +0.000 C 
ENDBRANCH  27  28
ENDBRANCH  26  27
ENDBRANCH   4  26
TORSDOF 6
ENDMDL
MODEL 8
REMARK VINA RESULT:      -8.0      4.652      9.397
REMARK  Name = 
REMARK  6 active torsions:
REMARK  status: ('A' for Active; 'I' for Inactive)
REMARK    1  A    between atoms: N_3  and  C_4
REMARK    2  A    between atoms: N_12  and  C_13
REMARK    3  A    between atoms: N_12  and  C_20
REMARK    4  A    between atoms: C_13  and  C_14
REMARK    5  A    between atoms: C_14  and  N_15
REMARK    6  A    between atoms: C_23  and  C_24
REMARK                            x       y       z     vdW  Elec       q    Type
REMARK                         _______ _______ _______ _____ _____    ______ ____
ROOT
ATOM      1  O   UNL     1       1.686   8.159  21.730  0.00  0.00    +0.000 OA
ATOM      2  C   UNL     1       1.440   8.373  20.544  0.00  0.00    +0.000 C 
ATOM      3  N   UNL     1       1.710   7.449  19.552  0.00  0.00    +0.000 N 
ATOM      4  N   UNL     1       0.876   9.595  20.149  0.00  0.00    +0.000 N 
ATOM      5  H   UNL     1       1.734   7.787  18.602  0.00  0.00    +0.000 HD
ENDROOT
BRANCH   3   6
ATOM      6  C   UNL     1       2.272   6.158  19.763  0.00  0.00    +0.000 A 
ATOM      7  C   UNL     1       1.666   5.175  20.558  0.00  0.00    +0.000 A 
ATOM      8  C   UNL     1       2.300   3.956  20.822  0.00  0.00    +0.000 A 
ATOM      9  C   UNL     1       3.538   3.693  20.265  0.00  0.00    +0.000 A 
ATOM     10  F   UNL     1       4.144   2.530  20.548  0.00  0.00    +0.000 F 
ATOM     11  C   UNL     1       4.136   4.628  19.423  0.00  0.00    +0.000 A 
ATOM     12 CL   UNL     1       5.669   4.298  18.710  0.00  0.00    +0.000 Cl
ATOM     13  C   UNL     1       3.504   5.855  19.163  0.00  0.00    +0.000 A 
ENDBRANCH   3   6
BRANCH   4  14
ATOM     14  C   UNL     1       0.531   9.964  18.728  0.00  0.00    +0.000 C 
ATOM     15  C   UNL     1      -0.545  11.051  18.494  0.00  0.00    +0.000 C 
ATOM     16  C   UNL     1      -0.041  12.444  18.763  0.00  0.00    +0.000 C 
ATOM     17  C   UNL     1       1.265  12.767  18.693  0.00  0.00    +0.000 C 
ATOM     18  C   UNL     1       2.297  11.768  18.206  0.00  0.00    +0.000 C 
ATOM     19  C   UNL     1       1.755  10.364  17.887  0.00  0.00    +0.000 C 
BRANCH  17  20
ATOM     20  C   UNL     1       1.758  14.079  19.191  0.00  0.00    +0.000 A 
ATOM     21  C   UNL     1       0.881  15.143  19.453  0.00  0.00    +0.000 A 
ATOM     22  C   UNL     1       1.353  16.345  19.979  0.00  0.00    +0.000 A 
ATOM     23  C   UNL     1       2.706  16.459  20.242  0.00  0.00    +0.000 A 
ATOM     24  N   UNL     1       3.588  15.465  20.020  0.00  0.00    +0.000 NA
ATOM     25  C   UNL     1       3.092  14.305  19.520  0.00  0.00    +0.000 A 
ENDBRANCH  17  20
ENDBRANCH   4  14
BRANCH   4  26
ATOM     26  C   UNL     1       0.780  10.609  21.246  0.00  0.00    +0.000 C 
BRANCH  26  27
ATOM     27  C   UNL     1      -0.489  10.504  22.125  0.00  0.00    +0.000 C 
BRANCH  27  28
ATOM     28  N   UNL     1      -0.771  11.707  22.936  0.00  0.00    +0.000 NA
ATOM     29  C   UNL     1      -2.197  11.839  23.272  0.00  0.00    +0.000 C 
ATOM     30  C   UNL     1      -2.790  12.707  22.179  0.00  0.00    +0.000 C 
ATOM     31  C   UNL     1      -1.677  13.680  21.857  0.00  0.00    +0.000 C 
ATOM     32  C   UNL     1      -0.399  12.938  22.211  0.00  0.00    +0.000 C 
ENDBRANCH  27  28
ENDBRANCH  26  27
ENDBRANCH   4  26
TORSDOF 6
ENDMDL
MODEL 9
REMARK VINA RESULT:      -7.9      4.554     10.486
REMARK  Name = 
REMARK  6 active torsions:
REMARK  status: ('A' for Active; 'I' for Inactive)
REMARK    1  A    between atoms: N_3  and  C_4
REMARK    2  A    between atoms: N_12  and  C_13
REMARK    3  A    between atoms: N_12  and  C_20
REMARK    4  A    between atoms: C_13  and  C_14
REMARK    5  A    between atoms: C_14  and  N_15
REMARK    6  A    between atoms: C_23  and  C_24
REMARK                            x       y       z     vdW  Elec       q    Type
REMARK                         _______ _______ _______ _____ _____    ______ ____
ROOT
ATOM      1  O   UNL     1       0.268   9.457  18.033  0.00  0.00    +0.000 OA
ATOM      2  C   UNL     1       0.750   9.814  19.107  0.00  0.00    +0.000 C 
ATOM      3  N   UNL     1       1.601   9.012  19.843  0.00  0.00    +0.000 N 
ATOM      4  N   UNL     1       0.432  11.073  19.637  0.00  0.00    +0.000 N 
ATOM      5  H   UNL     1       1.736   9.252  20.813  0.00  0.00    +0.000 HD
ENDROOT
BRANCH   3   6
ATOM      6  C   UNL     1       2.038   7.712  19.461  0.00  0.00    +0.000 A 
ATOM      7  C   UNL     1       2.718   7.450  18.263  0.00  0.00    +0.000 A 
ATOM      8  C   UNL     1       3.041   6.144  17.878  0.00  0.00    +0.000 A 
ATOM      9  C   UNL     1       2.716   5.085  18.706  0.00  0.00    +0.000 A 
ATOM     10  F   UNL     1       3.010   3.837  18.310  0.00  0.00    +0.000 F 
ATOM     11  C   UNL     1       2.093   5.323  19.929  0.00  0.00    +0.000 A 
ATOM     12 CL   UNL     1       1.703   4.009  20.973  0.00  0.00    +0.000 Cl
ATOM     13  C   UNL     1       1.762   6.632  20.313  0.00  0.00    +0.000 A 
ENDBRANCH   3   6
BRANCH   4  14
ATOM     14  C   UNL     1       0.964  11.617  20.940  0.00  0.00    +0.000 C 
ATOM     15  C   UNL     1       0.671  13.094  21.293  0.00  0.00    +0.000 C 
ATOM     16  C   UNL     1      -0.747  13.320  21.745  0.00  0.00    +0.000 C 
ATOM     17  C   UNL     1      -1.500  12.340  22.283  0.00  0.00    +0.000 C 
ATOM     18  C   UNL     1      -0.913  10.975  22.586  0.00  0.00    +0.000 C 
ATOM     19  C   UNL     1       0.553  10.779  22.163  0.00  0.00    +0.000 C 
BRANCH  17  20
ATOM     20  C   UNL     1      -2.960  12.526  22.498  0.00  0.00    +0.000 A 
ATOM     21  C   UNL     1      -3.527  12.477  23.780  0.00  0.00    +0.000 A 
ATOM     22  C   UNL     1      -4.888  12.716  23.969  0.00  0.00    +0.000 A 
ATOM     23  C   UNL     1      -5.662  13.007  22.862  0.00  0.00    +0.000 A 
ATOM     24  N   UNL     1      -5.166  13.078  21.611  0.00  0.00    +0.000 NA
ATOM     25  C   UNL     1      -3.835  12.853  21.465  0.00  0.00    +0.000 A 
ENDBRANCH  17  20
ENDBRANCH   4  14
BRANCH   4  26
ATOM     26  C   UNL     1      -0.629  11.809  18.880  0.00  0.00    +0.000 C 
BRANCH  26  27
ATOM     27  C   UNL     1      -2.056  11.231  19.024  0.00  0.00    +0.000 C 
BRANCH  27  28
ATOM     28  N   UNL     1      -2.958  11.543  17.895  0.00  0.00    +0.000 NA
ATOM     29  C   UNL     1      -4.032  10.551  17.741  0.00  0.00    +0.000 C 
ATOM     30  C   UNL     1      -3.503   9.534  16.748  0.00  0.00    +0.000 C 
ATOM     31  C   UNL     1      -2.677  10.368  15.793  0.00  0.00    +0.000 C 
ATOM     32  C   UNL     1      -2.223  11.563  16.615  0.00  0.00    +0.000 C 
ENDBRANCH  27  28
ENDBRANCH  26  27
ENDBRANCH   4  26
TORSDOF 6
ENDMDL
