MODEL 1
REMARK VINA RESULT:      -7.1      0.000      0.000
REMARK  Name = 
REMARK  4 active torsions:
REMARK  status: ('A' for Active; 'I' for Inactive)
REMARK    1  A    between atoms: C_1  and  O_2
REMARK    2  A    between atoms: O_2  and  C_3
REMARK    3  A    between atoms: C_3  and  C_5
REMARK    4  A    between atoms: C_5  and  C_18
REMARK                            x       y       z     vdW  Elec       q    Type
REMARK                         _______ _______ _______ _____ _____    ______ ____
ROOT
ATOM      1  C   UNL     1       4.663   5.510  17.631  0.00  0.00    +0.000 C 
ATOM      2  C   UNL     1       3.707   6.308  18.131  0.00  0.00    +0.000 C 
ATOM      3  O   UNL     1       3.288   7.463  17.445  0.00  0.00    +0.000 OA
ATOM      4  C   UNL     1       2.442   8.211  18.234  0.00  0.00    +0.000 A 
ATOM      5  C   UNL     1       1.968   9.465  17.872  0.00  0.00    +0.000 A 
ATOM      6  C   UNL     1       1.195  10.112  18.818  0.00  0.00    +0.000 A 
ATOM      7  C   UNL     1       0.894   9.544  20.044  0.00  0.00    +0.000 A 
ATOM      8  C   UNL     1       1.336   8.291  20.404  0.00  0.00    +0.000 A 
ATOM      9  C   UNL     1       2.119   7.632  19.475  0.00  0.00    +0.000 A 
ATOM     10  S   UNL     1       2.869   6.051  19.654  0.00  0.00    +0.000 S 
ATOM     11  O   UNL     1       0.143  10.366  20.829  0.00  0.00    +0.000 OA
ATOM     12  C   UNL     1       0.077  11.544  20.001  0.00  0.00    +0.000 C 
ATOM     13  O   UNL     1       0.656  11.357  18.691  0.00  0.00    +0.000 OA
ENDROOT
BRANCH   1  14
ATOM     14  C   UNL     1       5.249   5.735  16.290  0.00  0.00    +0.000 C 
ATOM     15  F   UNL     1       4.853   6.870  15.662  0.00  0.00    +0.000 F 
ATOM     16  F   UNL     1       6.608   5.779  16.338  0.00  0.00    +0.000 F 
ATOM     17  F   UNL     1       4.934   4.722  15.433  0.00  0.00    +0.000 F 
ENDBRANCH   1  14
BRANCH   1  18
ATOM     18  C   UNL     1       5.194   4.320  18.313  0.00  0.00    +0.000 C 
ATOM     19  O   UNL     1       6.166   4.335  19.050  0.00  0.00    +0.000 OA
BRANCH  18  21
ATOM     20  C   UNL     1       4.003   2.466  19.172  0.00  0.00    +0.000 C 
ATOM     21  O   UNL     1       4.439   3.228  18.041  0.00  0.00    +0.000 OA
ENDBRANCH  18  21
ENDBRANCH   1  18
TORSDOF 3
ENDMDL
MODEL 2
REMARK VINA RESULT:      -7.0      2.970      3.732
REMARK  Name = 
REMARK  4 active torsions:
REMARK  status: ('A' for Active; 'I' for Inactive)
REMARK    1  A    between atoms: C_1  and  O_2
REMARK    2  A    between atoms: O_2  and  C_3
REMARK    3  A    between atoms: C_3  and  C_5
REMARK    4  A    between atoms: C_5  and  C_18
REMARK                            x       y       z     vdW  Elec       q    Type
REMARK                         _______ _______ _______ _____ _____    ______ ____
ROOT
ATOM      1  C   UNL     1       2.283   4.370  19.438  0.00  0.00    +0.000 C 
ATOM      2  C   UNL     1       2.190   5.709  19.464  0.00  0.00    +0.000 C 
ATOM      3  O   UNL     1       1.718   6.386  20.604  0.00  0.00    +0.000 OA
ATOM      4  C   UNL     1       1.539   7.723  20.329  0.00  0.00    +0.000 A 
ATOM      5  C   UNL     1       0.964   8.617  21.223  0.00  0.00    +0.000 A 
ATOM      6  C   UNL     1       0.785   9.906  20.754  0.00  0.00    +0.000 A 
ATOM      7  C   UNL     1       1.167  10.291  19.481  0.00  0.00    +0.000 A 
ATOM      8  C   UNL     1       1.761   9.421  18.595  0.00  0.00    +0.000 A 
ATOM      9  C   UNL     1       1.940   8.125  19.042  0.00  0.00    +0.000 A 
ATOM     10  S   UNL     1       2.621   6.778  18.137  0.00  0.00    +0.000 S 
ATOM     11  O   UNL     1       0.873  11.595  19.220  0.00  0.00    +0.000 OA
ATOM     12  C   UNL     1       0.187  11.965  20.434  0.00  0.00    +0.000 C 
ATOM     13  O   UNL     1       0.214  10.933  21.444  0.00  0.00    +0.000 OA
ENDROOT
BRANCH   1  14
ATOM     14  C   UNL     1       2.001   3.542  20.633  0.00  0.00    +0.000 C 
ATOM     15  F   UNL     1       2.601   3.947  21.779  0.00  0.00    +0.000 F 
ATOM     16  F   UNL     1       0.667   3.485  20.899  0.00  0.00    +0.000 F 
ATOM     17  F   UNL     1       2.405   2.253  20.451  0.00  0.00    +0.000 F 
ENDBRANCH   1  14
BRANCH   1  18
ATOM     18  C   UNL     1       2.711   3.588  18.268  0.00  0.00    +0.000 C 
ATOM     19  O   UNL     1       1.949   3.171  17.413  0.00  0.00    +0.000 OA
BRANCH  18  21
ATOM     20  C   UNL     1       4.727   3.836  17.056  0.00  0.00    +0.000 C 
ATOM     21  O   UNL     1       4.058   3.433  18.256  0.00  0.00    +0.000 OA
ENDBRANCH  18  21
ENDBRANCH   1  18
TORSDOF 3
ENDMDL
MODEL 3
REMARK VINA RESULT:      -6.9      4.373      6.770
REMARK  Name = 
REMARK  4 active torsions:
REMARK  status: ('A' for Active; 'I' for Inactive)
REMARK    1  A    between atoms: C_1  and  O_2
REMARK    2  A    between atoms: O_2  and  C_3
REMARK    3  A    between atoms: C_3  and  C_5
REMARK    4  A    between atoms: C_5  and  C_18
REMARK                            x       y       z     vdW  Elec       q    Type
REMARK                         _______ _______ _______ _____ _____    ______ ____
ROOT
ATOM      1  C   UNL     1       3.116   3.263  18.950  0.00  0.00    +0.000 C 
ATOM      2  C   UNL     1       3.942   3.842  18.065  0.00  0.00    +0.000 C 
ATOM      3  O   UNL     1       3.827   3.590  16.686  0.00  0.00    +0.000 OA
ATOM      4  C   UNL     1       4.889   4.143  16.005  0.00  0.00    +0.000 A 
ATOM      5  C   UNL     1       5.110   3.951  14.647  0.00  0.00    +0.000 A 
ATOM      6  C   UNL     1       6.269   4.511  14.141  0.00  0.00    +0.000 A 
ATOM      7  C   UNL     1       7.148   5.233  14.930  0.00  0.00    +0.000 A 
ATOM      8  C   UNL     1       6.926   5.454  16.270  0.00  0.00    +0.000 A 
ATOM      9  C   UNL     1       5.777   4.893  16.797  0.00  0.00    +0.000 A 
ATOM     10  S   UNL     1       5.242   4.953  18.472  0.00  0.00    +0.000 S 
ATOM     11  O   UNL     1       8.234   5.670  14.234  0.00  0.00    +0.000 OA
ATOM     12  C   UNL     1       7.988   5.071  12.945  0.00  0.00    +0.000 C 
ATOM     13  O   UNL     1       6.702   4.420  12.853  0.00  0.00    +0.000 OA
ENDROOT
BRANCH   1  14
ATOM     14  C   UNL     1       1.977   2.420  18.523  0.00  0.00    +0.000 C 
ATOM     15  F   UNL     1       1.418   1.656  19.494  0.00  0.00    +0.000 F 
ATOM     16  F   UNL     1       0.969   3.168  17.997  0.00  0.00    +0.000 F 
ATOM     17  F   UNL     1       2.346   1.544  17.545  0.00  0.00    +0.000 F 
ENDBRANCH   1  14
BRANCH   1  18
ATOM     18  C   UNL     1       3.209   3.431  20.408  0.00  0.00    +0.000 C 
ATOM     19  O   UNL     1       3.602   2.563  21.170  0.00  0.00    +0.000 OA
BRANCH  18  21
ATOM     20  C   UNL     1       1.437   4.965  20.720  0.00  0.00    +0.000 C 
ATOM     21  O   UNL     1       2.838   4.681  20.777  0.00  0.00    +0.000 OA
ENDBRANCH  18  21
ENDBRANCH   1  18
TORSDOF 3
ENDMDL
MODEL 4
REMARK VINA RESULT:      -6.9      4.018      7.577
REMARK  Name = 
REMARK  4 active torsions:
REMARK  status: ('A' for Active; 'I' for Inactive)
REMARK    1  A    between atoms: C_1  and  O_2
REMARK    2  A    between atoms: O_2  and  C_3
REMARK    3  A    between atoms: C_3  and  C_5
REMARK    4  A    between atoms: C_5  and  C_18
REMARK                            x       y       z     vdW  Elec       q    Type
REMARK                         _______ _______ _______ _____ _____    ______ ____
ROOT
ATOM      1  C   UNL     1       0.287  10.116  21.330  0.00  0.00    +0.000 C 
ATOM      2  C   UNL     1       0.900   9.296  20.462  0.00  0.00    +0.000 C 
ATOM      3  O   UNL     1       1.263   7.987  20.828  0.00  0.00    +0.000 OA
ATOM      4  C   UNL     1       2.035   7.409  19.844  0.00  0.00    +0.000 A 
ATOM      5  C   UNL     1       2.645   6.169  19.980  0.00  0.00    +0.000 A 
ATOM      6  C   UNL     1       3.451   5.776  18.927  0.00  0.00    +0.000 A 
ATOM      7  C   UNL     1       3.631   6.558  17.799  0.00  0.00    +0.000 A 
ATOM      8  C   UNL     1       3.011   7.777  17.641  0.00  0.00    +0.000 A 
ATOM      9  C   UNL     1       2.208   8.191  18.687  0.00  0.00    +0.000 A 
ATOM     10  S   UNL     1       1.327   9.709  18.808  0.00  0.00    +0.000 S 
ATOM     11  O   UNL     1       4.484   5.991  16.903  0.00  0.00    +0.000 OA
ATOM     12  C   UNL     1       4.890   4.811  17.625  0.00  0.00    +0.000 C 
ATOM     13  O   UNL     1       4.169   4.619  18.861  0.00  0.00    +0.000 OA
ENDROOT
BRANCH   1  14
ATOM     14  C   UNL     1      -0.135   9.661  22.673  0.00  0.00    +0.000 C 
ATOM     15  F   UNL     1      -0.957   8.583  22.693  0.00  0.00    +0.000 F 
ATOM     16  F   UNL     1       0.934   9.340  23.452  0.00  0.00    +0.000 F 
ATOM     17  F   UNL     1      -0.809  10.640  23.341  0.00  0.00    +0.000 F 
ENDBRANCH   1  14
BRANCH   1  18
ATOM     18  C   UNL     1      -0.072  11.513  21.041  0.00  0.00    +0.000 C 
ATOM     19  O   UNL     1      -1.133  11.854  20.545  0.00  0.00    +0.000 OA
BRANCH  18  21
ATOM     20  C   UNL     1       1.136  13.497  20.596  0.00  0.00    +0.000 C 
ATOM     21  O   UNL     1       0.912  12.358  21.434  0.00  0.00    +0.000 OA
ENDBRANCH  18  21
ENDBRANCH   1  18
TORSDOF 3
ENDMDL
MODEL 5
REMARK VINA RESULT:      -6.9      4.039      7.515
REMARK  Name = 
REMARK  4 active torsions:
REMARK  status: ('A' for Active; 'I' for Inactive)
REMARK    1  A    between atoms: C_1  and  O_2
REMARK    2  A    between atoms: O_2  and  C_3
REMARK    3  A    between atoms: C_3  and  C_5
REMARK    4  A    between atoms: C_5  and  C_18
REMARK                            x       y       z     vdW  Elec       q    Type
REMARK                         _______ _______ _______ _____ _____    ______ ____
ROOT
ATOM      1  C   UNL     1       0.416   9.964  21.384  0.00  0.00    +0.000 C 
ATOM      2  C   UNL     1       0.967   9.053  20.566  0.00  0.00    +0.000 C 
ATOM      3  O   UNL     1       1.186   7.730  20.990  0.00  0.00    +0.000 OA
ATOM      4  C   UNL     1       1.923   7.040  20.054  0.00  0.00    +0.000 A 
ATOM      5  C   UNL     1       2.399   5.751  20.253  0.00  0.00    +0.000 A 
ATOM      6  C   UNL     1       3.192   5.239  19.242  0.00  0.00    +0.000 A 
ATOM      7  C   UNL     1       3.483   5.955  18.094  0.00  0.00    +0.000 A 
ATOM      8  C   UNL     1       2.995   7.223  17.872  0.00  0.00    +0.000 A 
ATOM      9  C   UNL     1       2.208   7.756  18.876  0.00  0.00    +0.000 A 
ATOM     10  S   UNL     1       1.482   9.358  18.914  0.00  0.00    +0.000 S 
ATOM     11  O   UNL     1       4.300   5.271  17.246  0.00  0.00    +0.000 OA
ATOM     12  C   UNL     1       4.563   4.084  18.023  0.00  0.00    +0.000 C 
ATOM     13  O   UNL     1       3.790   4.014  19.241  0.00  0.00    +0.000 OA
ENDROOT
BRANCH   1  14
ATOM     14  C   UNL     1      -0.089   9.606  22.728  0.00  0.00    +0.000 C 
ATOM     15  F   UNL     1      -0.771  10.582  23.376  0.00  0.00    +0.000 F 
ATOM     16  F   UNL     1      -0.919   8.527  22.680  0.00  0.00    +0.000 F 
ATOM     17  F   UNL     1       0.929   9.262  23.567  0.00  0.00    +0.000 F 
ENDBRANCH   1  14
BRANCH   1  18
ATOM     18  C   UNL     1       0.209  11.378  21.035  0.00  0.00    +0.000 C 
ATOM     19  O   UNL     1       1.044  12.251  21.207  0.00  0.00    +0.000 OA
BRANCH  18  21
ATOM     20  C   UNL     1      -1.011  12.125  19.152  0.00  0.00    +0.000 C 
ATOM     21  O   UNL     1      -1.008  11.564  20.469  0.00  0.00    +0.000 OA
ENDBRANCH  18  21
ENDBRANCH   1  18
TORSDOF 3
ENDMDL
MODEL 6
REMARK VINA RESULT:      -6.9      4.219      6.634
REMARK  Name = 
REMARK  4 active torsions:
REMARK  status: ('A' for Active; 'I' for Inactive)
REMARK    1  A    between atoms: C_1  and  O_2
REMARK    2  A    between atoms: O_2  and  C_3
REMARK    3  A    between atoms: C_3  and  C_5
REMARK    4  A    between atoms: C_5  and  C_18
REMARK                            x       y       z     vdW  Elec       q    Type
REMARK                         _______ _______ _______ _____ _____    ______ ____
ROOT
ATOM      1  C   UNL     1       2.535   3.396  19.667  0.00  0.00    +0.000 C 
ATOM      2  C   UNL     1       3.389   3.925  18.778  0.00  0.00    +0.000 C 
ATOM      3  O   UNL     1       3.290   3.629  17.406  0.00  0.00    +0.000 OA
ATOM      4  C   UNL     1       4.376   4.133  16.725  0.00  0.00    +0.000 A 
ATOM      5  C   UNL     1       4.615   3.889  15.378  0.00  0.00    +0.000 A 
ATOM      6  C   UNL     1       5.795   4.404  14.874  0.00  0.00    +0.000 A 
ATOM      7  C   UNL     1       6.679   5.130  15.653  0.00  0.00    +0.000 A 
ATOM      8  C   UNL     1       6.441   5.401  16.981  0.00  0.00    +0.000 A 
ATOM      9  C   UNL     1       5.270   4.887  17.506  0.00  0.00    +0.000 A 
ATOM     10  S   UNL     1       4.709   5.017  19.169  0.00  0.00    +0.000 S 
ATOM     11  O   UNL     1       7.787   5.517  14.961  0.00  0.00    +0.000 OA
ATOM     12  C   UNL     1       7.546   4.881  13.689  0.00  0.00    +0.000 C 
ATOM     13  O   UNL     1       6.246   4.259  13.596  0.00  0.00    +0.000 OA
ENDROOT
BRANCH   1  14
ATOM     14  C   UNL     1       1.382   2.567  19.249  0.00  0.00    +0.000 C 
ATOM     15  F   UNL     1       0.716   3.003  18.151  0.00  0.00    +0.000 F 
ATOM     16  F   UNL     1       1.757   1.285  18.984  0.00  0.00    +0.000 F 
ATOM     17  F   UNL     1       0.442   2.489  20.233  0.00  0.00    +0.000 F 
ENDBRANCH   1  14
BRANCH   1  18
ATOM     18  C   UNL     1       2.609   3.611  21.120  0.00  0.00    +0.000 C 
ATOM     19  O   UNL     1       2.829   2.724  21.929  0.00  0.00    +0.000 OA
BRANCH  18  21
ATOM     20  C   UNL     1       1.363   5.588  20.758  0.00  0.00    +0.000 C 
ATOM     21  O   UNL     1       2.438   4.920  21.426  0.00  0.00    +0.000 OA
ENDBRANCH  18  21
ENDBRANCH   1  18
TORSDOF 3
ENDMDL
MODEL 7
REMARK VINA RESULT:      -6.8      3.728      7.320
REMARK  Name = 
REMARK  4 active torsions:
REMARK  status: ('A' for Active; 'I' for Inactive)
REMARK    1  A    between atoms: C_1  and  O_2
REMARK    2  A    between atoms: O_2  and  C_3
REMARK    3  A    between atoms: C_3  and  C_5
REMARK    4  A    between atoms: C_5  and  C_18
REMARK                            x       y       z     vdW  Elec       q    Type
REMARK                         _______ _______ _______ _____ _____    ______ ____
ROOT
ATOM      1  C   UNL     1       0.496   9.581  20.507  0.00  0.00    +0.000 C 
ATOM      2  C   UNL     1       1.260   8.749  19.782  0.00  0.00    +0.000 C 
ATOM      3  O   UNL     1       1.664   7.501  20.290  0.00  0.00    +0.000 OA
ATOM      4  C   UNL     1       2.584   6.914  19.449  0.00  0.00    +0.000 A 
ATOM      5  C   UNL     1       3.254   5.736  19.751  0.00  0.00    +0.000 A 
ATOM      6  C   UNL     1       4.203   5.331  18.832  0.00  0.00    +0.000 A 
ATOM      7  C   UNL     1       4.463   6.042  17.673  0.00  0.00    +0.000 A 
ATOM      8  C   UNL     1       3.787   7.196  17.349  0.00  0.00    +0.000 A 
ATOM      9  C   UNL     1       2.840   7.623  18.261  0.00  0.00    +0.000 A 
ATOM     10  S   UNL     1       1.852   9.075  18.160  0.00  0.00    +0.000 S 
ATOM     11  O   UNL     1       5.453   5.478  16.927  0.00  0.00    +0.000 OA
ATOM     12  C   UNL     1       5.848   4.386  17.782  0.00  0.00    +0.000 C 
ATOM     13  O   UNL     1       4.999   4.230  18.940  0.00  0.00    +0.000 OA
ENDROOT
BRANCH   1  14
ATOM     14  C   UNL     1      -0.052   9.192  21.826  0.00  0.00    +0.000 C 
ATOM     15  F   UNL     1      -0.828   8.081  21.832  0.00  0.00    +0.000 F 
ATOM     16  F   UNL     1       0.938   8.971  22.734  0.00  0.00    +0.000 F 
ATOM     17  F   UNL     1      -0.832  10.179  22.351  0.00  0.00    +0.000 F 
ENDBRANCH   1  14
BRANCH   1  18
ATOM     18  C   UNL     1       0.081  10.923  20.070  0.00  0.00    +0.000 C 
ATOM     19  O   UNL     1       0.731  11.935  20.270  0.00  0.00    +0.000 OA
BRANCH  18  21
ATOM     20  C   UNL     1      -1.991  11.964  19.601  0.00  0.00    +0.000 C 
ATOM     21  O   UNL     1      -1.090  10.871  19.390  0.00  0.00    +0.000 OA
ENDBRANCH  18  21
ENDBRANCH   1  18
TORSDOF 3
ENDMDL
MODEL 8
REMARK VINA RESULT:      -6.8      3.998      7.530
REMARK  Name = 
REMARK  4 active torsions:
REMARK  status: ('A' for Active; 'I' for Inactive)
REMARK    1  A    between atoms: C_1  and  O_2
REMARK    2  A    between atoms: O_2  and  C_3
REMARK    3  A    between atoms: C_3  and  C_5
REMARK    4  A    between atoms: C_5  and  C_18
REMARK                            x       y       z     vdW  Elec       q    Type
REMARK                         _______ _______ _______ _____ _____    ______ ____
ROOT
ATOM      1  C   UNL     1       0.603   9.749  21.139  0.00  0.00    +0.000 C 
ATOM      2  C   UNL     1       1.141   8.714  20.474  0.00  0.00    +0.000 C 
ATOM      3  O   UNL     1       1.196   7.429  21.044  0.00  0.00    +0.000 OA
ATOM      4  C   UNL     1       1.951   6.586  20.259  0.00  0.00    +0.000 A 
ATOM      5  C   UNL     1       2.285   5.290  20.631  0.00  0.00    +0.000 A 
ATOM      6  C   UNL     1       3.118   4.611  19.760  0.00  0.00    +0.000 A 
ATOM      7  C   UNL     1       3.579   5.175  18.584  0.00  0.00    +0.000 A 
ATOM      8  C   UNL     1       3.234   6.449  18.192  0.00  0.00    +0.000 A 
ATOM      9  C   UNL     1       2.409   7.148  19.053  0.00  0.00    +0.000 A 
ATOM     10  S   UNL     1       1.834   8.800  18.861  0.00  0.00    +0.000 S 
ATOM     11  O   UNL     1       4.405   4.341  17.895  0.00  0.00    +0.000 OA
ATOM     12  C   UNL     1       4.484   3.225  18.805  0.00  0.00    +0.000 C 
ATOM     13  O   UNL     1       3.598   3.348  19.939  0.00  0.00    +0.000 OA
ENDROOT
BRANCH   1  14
ATOM     14  C   UNL     1      -0.057   9.577  22.453  0.00  0.00    +0.000 C 
ATOM     15  F   UNL     1      -0.819  10.620  22.865  0.00  0.00    +0.000 F 
ATOM     16  F   UNL     1      -0.867   8.483  22.468  0.00  0.00    +0.000 F 
ATOM     17  F   UNL     1       0.857   9.384  23.446  0.00  0.00    +0.000 F 
ENDBRANCH   1  14
BRANCH   1  18
ATOM     18  C   UNL     1       0.560  11.130  20.635  0.00  0.00    +0.000 C 
ATOM     19  O   UNL     1      -0.245  11.529  19.810  0.00  0.00    +0.000 OA
BRANCH  18  21
ATOM     20  C   UNL     1       1.778  13.157  20.619  0.00  0.00    +0.000 C 
ATOM     21  O   UNL     1       1.505  11.894  21.235  0.00  0.00    +0.000 OA
ENDBRANCH  18  21
ENDBRANCH   1  18
TORSDOF 3
ENDMDL
MODEL 9
REMARK VINA RESULT:      -6.8      3.713      7.302
REMARK  Name = 
REMARK  4 active torsions:
REMARK  status: ('A' for Active; 'I' for Inactive)
REMARK    1  A    between atoms: C_1  and  O_2
REMARK    2  A    between atoms: O_2  and  C_3
REMARK    3  A    between atoms: C_3  and  C_5
REMARK    4  A    between atoms: C_5  and  C_18
REMARK                            x       y       z     vdW  Elec       q    Type
REMARK                         _______ _______ _______ _____ _____    ______ ____
ROOT
ATOM      1  C   UNL     1       0.500   9.559  20.526  0.00  0.00    +0.000 C 
ATOM      2  C   UNL     1       1.264   8.730  19.797  0.00  0.00    +0.000 C 
ATOM      3  O   UNL     1       1.669   7.480  20.300  0.00  0.00    +0.000 OA
ATOM      4  C   UNL     1       2.588   6.897  19.457  0.00  0.00    +0.000 A 
ATOM      5  C   UNL     1       3.258   5.717  19.754  0.00  0.00    +0.000 A 
ATOM      6  C   UNL     1       4.208   5.316  18.832  0.00  0.00    +0.000 A 
ATOM      7  C   UNL     1       4.467   6.031  17.675  0.00  0.00    +0.000 A 
ATOM      8  C   UNL     1       3.790   7.187  17.357  0.00  0.00    +0.000 A 
ATOM      9  C   UNL     1       2.844   7.610  18.271  0.00  0.00    +0.000 A 
ATOM     10  S   UNL     1       1.855   9.062  18.176  0.00  0.00    +0.000 S 
ATOM     11  O   UNL     1       5.456   5.471  16.927  0.00  0.00    +0.000 OA
ATOM     12  C   UNL     1       5.852   4.376  17.777  0.00  0.00    +0.000 C 
ATOM     13  O   UNL     1       5.004   4.215  18.935  0.00  0.00    +0.000 OA
ENDROOT
BRANCH   1  14
ATOM     14  C   UNL     1      -0.047   9.165  21.844  0.00  0.00    +0.000 C 
ATOM     15  F   UNL     1      -0.829  10.090  22.453  0.00  0.00    +0.000 F 
ATOM     16  F   UNL     1      -0.794   8.030  21.757  0.00  0.00    +0.000 F 
ATOM     17  F   UNL     1       0.949   8.894  22.735  0.00  0.00    +0.000 F 
ENDBRANCH   1  14
BRANCH   1  18
ATOM     18  C   UNL     1       0.085  10.902  20.094  0.00  0.00    +0.000 C 
ATOM     19  O   UNL     1      -0.956  11.135  19.502  0.00  0.00    +0.000 OA
BRANCH  18  21
ATOM     20  C   UNL     1       1.431  12.739  19.456  0.00  0.00    +0.000 C 
ATOM     21  O   UNL     1       0.990  11.836  20.475  0.00  0.00    +0.000 OA
ENDBRANCH  18  21
ENDBRANCH   1  18
TORSDOF 3
ENDMDL
