MODEL 1
REMARK VINA RESULT:      -6.8      0.000      0.000
REMARK  Name = 
REMARK  4 active torsions:
REMARK  status: ('A' for Active; 'I' for Inactive)
REMARK    1  A    between atoms: C_2  and  C_4
REMARK    2  A    between atoms: N_7  and  C_8
REMARK    3  A    between atoms: C_8  and  C_9
REMARK    4  A    between atoms: C_18  and  N_19
REMARK                            x       y       z     vdW  Elec       q    Type
REMARK                         _______ _______ _______ _____ _____    ______ ____
ROOT
ATOM      1  C   UNL     1       6.684   4.363  14.075  0.00  0.00    +0.000 A 
ATOM      2  N   UNL     1       7.463   5.486  14.240  0.00  0.00    +0.000 NA
ATOM      3  N   UNL     1       7.566   5.736  15.538  0.00  0.00    +0.000 NA
ATOM      4  N   UNL     1       6.848   4.797  16.195  0.00  0.00    +0.000 N 
ATOM      5  C   UNL     1       6.285   3.898  15.318  0.00  0.00    +0.000 A 
ENDROOT
BRANCH   1   7
ATOM      6  N   UNL     1       7.291   4.083  11.793  0.00  0.00    +0.000 N 
ATOM      7  C   UNL     1       6.382   3.789  12.774  0.00  0.00    +0.000 C 
ATOM      8  O   UNL     1       5.403   3.089  12.539  0.00  0.00    +0.000 OA
ATOM      9  H   UNL     1       7.153   3.701  10.870  0.00  0.00    +0.000 HD
ATOM     10  H   UNL     1       8.115   4.634  12.001  0.00  0.00    +0.000 HD
ENDBRANCH   1   7
BRANCH   5  11
ATOM     11  N   UNL     1       5.566   2.811  15.689  0.00  0.00    +0.000 N 
ATOM     12  H   UNL     1       5.252   2.637  16.639  0.00  0.00    +0.000 HD
ATOM     13  H   UNL     1       4.974   2.359  14.987  0.00  0.00    +0.000 HD
ENDBRANCH   5  11
BRANCH   4  14
ATOM     14  C   UNL     1       6.962   4.696  17.639  0.00  0.00    +0.000 C 
BRANCH  14  15
ATOM     15  C   UNL     1       5.655   4.859  18.384  0.00  0.00    +0.000 A 
ATOM     16  C   UNL     1       4.844   5.978  18.153  0.00  0.00    +0.000 A 
ATOM     17  C   UNL     1       3.554   6.060  18.698  0.00  0.00    +0.000 A 
ATOM     18 BR   UNL     1       2.552   7.618  18.248  0.00  0.00    +0.000 Br
ATOM     19  C   UNL     1       3.046   5.023  19.496  0.00  0.00    +0.000 A 
ATOM     20 BR   UNL     1       1.257   5.089  20.160  0.00  0.00    +0.000 Br
ATOM     21  C   UNL     1       3.874   3.920  19.765  0.00  0.00    +0.000 A 
ATOM     22 BR   UNL     1       3.321   2.438  20.825  0.00  0.00    +0.000 Br
ATOM     23  C   UNL     1       5.164   3.846  19.218  0.00  0.00    +0.000 A 
ENDBRANCH  14  15
ENDBRANCH   4  14
TORSDOF 4
ENDMDL
MODEL 2
REMARK VINA RESULT:      -6.7      0.310      2.214
REMARK  Name = 
REMARK  4 active torsions:
REMARK  status: ('A' for Active; 'I' for Inactive)
REMARK    1  A    between atoms: C_2  and  C_4
REMARK    2  A    between atoms: N_7  and  C_8
REMARK    3  A    between atoms: C_8  and  C_9
REMARK    4  A    between atoms: C_18  and  N_19
REMARK                            x       y       z     vdW  Elec       q    Type
REMARK                         _______ _______ _______ _____ _____    ______ ____
ROOT
ATOM      1  C   UNL     1       6.819   4.393  14.016  0.00  0.00    +0.000 A 
ATOM      2  N   UNL     1       7.599   5.496  14.284  0.00  0.00    +0.000 NA
ATOM      3  N   UNL     1       7.567   5.722  15.590  0.00  0.00    +0.000 NA
ATOM      4  N   UNL     1       6.763   4.790  16.149  0.00  0.00    +0.000 N 
ATOM      5  C   UNL     1       6.279   3.917  15.201  0.00  0.00    +0.000 A 
ENDROOT
BRANCH   1   7
ATOM      6  N   UNL     1       7.437   4.420  11.720  0.00  0.00    +0.000 N 
ATOM      7  C   UNL     1       6.646   3.846  12.680  0.00  0.00    +0.000 C 
ATOM      8  O   UNL     1       5.868   2.941  12.400  0.00  0.00    +0.000 OA
ATOM      9  H   UNL     1       7.382   4.075  10.774  0.00  0.00    +0.000 HD
ATOM     10  H   UNL     1       8.102   5.144  11.963  0.00  0.00    +0.000 HD
ENDBRANCH   1   7
BRANCH   5  11
ATOM     11  N   UNL     1       5.501   2.842  15.473  0.00  0.00    +0.000 N 
ATOM     12  H   UNL     1       5.100   2.239  14.762  0.00  0.00    +0.000 HD
ATOM     13  H   UNL     1       5.628   2.367  16.370  0.00  0.00    +0.000 HD
ENDBRANCH   5  11
BRANCH   4  14
ATOM     14  C   UNL     1       6.719   4.664  17.594  0.00  0.00    +0.000 C 
BRANCH  14  15
ATOM     15  C   UNL     1       5.337   4.811  18.195  0.00  0.00    +0.000 A 
ATOM     16  C   UNL     1       4.846   3.847  19.083  0.00  0.00    +0.000 A 
ATOM     17  C   UNL     1       3.647   4.052  19.783  0.00  0.00    +0.000 A 
ATOM     18 BR   UNL     1       3.139   2.675  20.999  0.00  0.00    +0.000 Br
ATOM     19  C   UNL     1       2.907   5.231  19.603  0.00  0.00    +0.000 A 
ATOM     20 BR   UNL     1       1.326   5.556  20.624  0.00  0.00    +0.000 Br
ATOM     21  C   UNL     1       3.375   6.181  18.679  0.00  0.00    +0.000 A 
ATOM     22 BR   UNL     1       2.480   7.825  18.333  0.00  0.00    +0.000 Br
ATOM     23  C   UNL     1       4.573   5.966  17.982  0.00  0.00    +0.000 A 
ENDBRANCH  14  15
ENDBRANCH   4  14
TORSDOF 4
ENDMDL
MODEL 3
REMARK VINA RESULT:      -6.6      1.789      2.101
REMARK  Name = 
REMARK  4 active torsions:
REMARK  status: ('A' for Active; 'I' for Inactive)
REMARK    1  A    between atoms: C_2  and  C_4
REMARK    2  A    between atoms: N_7  and  C_8
REMARK    3  A    between atoms: C_8  and  C_9
REMARK    4  A    between atoms: C_18  and  N_19
REMARK                            x       y       z     vdW  Elec       q    Type
REMARK                         _______ _______ _______ _____ _____    ______ ____
ROOT
ATOM      1  C   UNL     1       7.088   4.870  15.364  0.00  0.00    +0.000 A 
ATOM      2  N   UNL     1       7.934   4.162  16.188  0.00  0.00    +0.000 NA
ATOM      3  N   UNL     1       7.734   4.562  17.435  0.00  0.00    +0.000 NA
ATOM      4  N   UNL     1       6.786   5.526  17.411  0.00  0.00    +0.000 N 
ATOM      5  C   UNL     1       6.334   5.746  16.129  0.00  0.00    +0.000 A 
ENDROOT
BRANCH   1   7
ATOM      6  N   UNL     1       6.257   3.605  13.530  0.00  0.00    +0.000 N 
ATOM      7  C   UNL     1       7.024   4.668  13.926  0.00  0.00    +0.000 C 
ATOM      8  O   UNL     1       7.595   5.376  13.103  0.00  0.00    +0.000 OA
ATOM      9  H   UNL     1       6.153   3.418  12.545  0.00  0.00    +0.000 HD
ATOM     10  H   UNL     1       5.762   3.044  14.212  0.00  0.00    +0.000 HD
ENDBRANCH   1   7
BRANCH   5  11
ATOM     11  N   UNL     1       5.340   6.607  15.803  0.00  0.00    +0.000 N 
ATOM     12  H   UNL     1       5.455   7.614  15.757  0.00  0.00    +0.000 HD
ATOM     13  H   UNL     1       4.581   6.267  15.205  0.00  0.00    +0.000 HD
ENDBRANCH   5  11
BRANCH   4  14
ATOM     14  C   UNL     1       6.211   5.990  18.660  0.00  0.00    +0.000 C 
BRANCH  14  15
ATOM     15  C   UNL     1       4.976   5.235  19.101  0.00  0.00    +0.000 A 
ATOM     16  C   UNL     1       3.902   5.916  19.687  0.00  0.00    +0.000 A 
ATOM     17  C   UNL     1       2.685   5.265  19.939  0.00  0.00    +0.000 A 
ATOM     18 BR   UNL     1       1.300   6.339  20.688  0.00  0.00    +0.000 Br
ATOM     19  C   UNL     1       2.517   3.909  19.615  0.00  0.00    +0.000 A 
ATOM     20 BR   UNL     1       0.833   3.047  19.869  0.00  0.00    +0.000 Br
ATOM     21  C   UNL     1       3.607   3.213  19.067  0.00  0.00    +0.000 A 
ATOM     22 BR   UNL     1       3.527   1.375  18.574  0.00  0.00    +0.000 Br
ATOM     23  C   UNL     1       4.822   3.870  18.820  0.00  0.00    +0.000 A 
ENDBRANCH  14  15
ENDBRANCH   4  14
TORSDOF 4
ENDMDL
MODEL 4
REMARK VINA RESULT:      -6.6      1.643      1.799
REMARK  Name = 
REMARK  4 active torsions:
REMARK  status: ('A' for Active; 'I' for Inactive)
REMARK    1  A    between atoms: C_2  and  C_4
REMARK    2  A    between atoms: N_7  and  C_8
REMARK    3  A    between atoms: C_8  and  C_9
REMARK    4  A    between atoms: C_18  and  N_19
REMARK                            x       y       z     vdW  Elec       q    Type
REMARK                         _______ _______ _______ _____ _____    ______ ____
ROOT
ATOM      1  C   UNL     1       7.104   5.022  14.305  0.00  0.00    +0.000 A 
ATOM      2  N   UNL     1       7.564   5.428  15.538  0.00  0.00    +0.000 NA
ATOM      3  N   UNL     1       6.677   5.066  16.455  0.00  0.00    +0.000 NA
ATOM      4  N   UNL     1       5.653   4.454  15.817  0.00  0.00    +0.000 N 
ATOM      5  C   UNL     1       5.882   4.385  14.461  0.00  0.00    +0.000 A 
ENDROOT
BRANCH   1   7
ATOM      6  N   UNL     1       8.948   6.031  13.196  0.00  0.00    +0.000 N 
ATOM      7  C   UNL     1       7.841   5.234  13.071  0.00  0.00    +0.000 C 
ATOM      8  O   UNL     1       7.529   4.752  11.988  0.00  0.00    +0.000 OA
ATOM      9  H   UNL     1       9.518   6.205  12.382  0.00  0.00    +0.000 HD
ATOM     10  H   UNL     1       9.221   6.399  14.099  0.00  0.00    +0.000 HD
ENDBRANCH   1   7
BRANCH   5  11
ATOM     11  N   UNL     1       5.063   3.770  13.575  0.00  0.00    +0.000 N 
ATOM     12  H   UNL     1       4.775   4.179  12.692  0.00  0.00    +0.000 HD
ATOM     13  H   UNL     1       5.042   2.747  13.564  0.00  0.00    +0.000 HD
ENDBRANCH   5  11
BRANCH   4  14
ATOM     14  C   UNL     1       4.643   3.761  16.596  0.00  0.00    +0.000 C 
BRANCH  14  15
ATOM     15  C   UNL     1       3.997   4.604  17.675  0.00  0.00    +0.000 A 
ATOM     16  C   UNL     1       3.694   5.949  17.434  0.00  0.00    +0.000 A 
ATOM     17  C   UNL     1       2.939   6.696  18.352  0.00  0.00    +0.000 A 
ATOM     18 BR   UNL     1       2.561   8.497  17.858  0.00  0.00    +0.000 Br
ATOM     19  C   UNL     1       2.474   6.110  19.540  0.00  0.00    +0.000 A 
ATOM     20 BR   UNL     1       1.368   7.095  20.745  0.00  0.00    +0.000 Br
ATOM     21  C   UNL     1       2.814   4.773  19.804  0.00  0.00    +0.000 A 
ATOM     22 BR   UNL     1       2.253   3.845  21.370  0.00  0.00    +0.000 Br
ATOM     23  C   UNL     1       3.571   4.034  18.882  0.00  0.00    +0.000 A 
ENDBRANCH  14  15
ENDBRANCH   4  14
TORSDOF 4
ENDMDL
MODEL 5
REMARK VINA RESULT:      -6.6      1.777      2.693
REMARK  Name = 
REMARK  4 active torsions:
REMARK  status: ('A' for Active; 'I' for Inactive)
REMARK    1  A    between atoms: C_2  and  C_4
REMARK    2  A    between atoms: N_7  and  C_8
REMARK    3  A    between atoms: C_8  and  C_9
REMARK    4  A    between atoms: C_18  and  N_19
REMARK                            x       y       z     vdW  Elec       q    Type
REMARK                         _______ _______ _______ _____ _____    ______ ____
ROOT
ATOM      1  C   UNL     1       7.035   4.948  15.124  0.00  0.00    +0.000 A 
ATOM      2  N   UNL     1       7.858   4.307  16.022  0.00  0.00    +0.000 NA
ATOM      3  N   UNL     1       7.586   4.764  17.237  0.00  0.00    +0.000 NA
ATOM      4  N   UNL     1       6.616   5.699  17.117  0.00  0.00    +0.000 N 
ATOM      5  C   UNL     1       6.222   5.841  15.806  0.00  0.00    +0.000 A 
ENDROOT
BRANCH   1   7
ATOM      6  N   UNL     1       6.318   3.576  13.320  0.00  0.00    +0.000 N 
ATOM      7  C   UNL     1       7.046   4.673  13.697  0.00  0.00    +0.000 C 
ATOM      8  O   UNL     1       7.646   5.348  12.867  0.00  0.00    +0.000 OA
ATOM      9  H   UNL     1       6.266   3.337  12.341  0.00  0.00    +0.000 HD
ATOM     10  H   UNL     1       5.797   3.041  14.004  0.00  0.00    +0.000 HD
ENDBRANCH   1   7
BRANCH   5  11
ATOM     11  N   UNL     1       5.223   6.656  15.388  0.00  0.00    +0.000 N 
ATOM     12  H   UNL     1       4.900   6.708  14.428  0.00  0.00    +0.000 HD
ATOM     13  H   UNL     1       4.505   6.927  16.065  0.00  0.00    +0.000 HD
ENDBRANCH   5  11
BRANCH   4  14
ATOM     14  C   UNL     1       5.970   6.209  18.312  0.00  0.00    +0.000 C 
BRANCH  14  15
ATOM     15  C   UNL     1       4.673   5.516  18.668  0.00  0.00    +0.000 A 
ATOM     16  C   UNL     1       4.515   4.145  18.427  0.00  0.00    +0.000 A 
ATOM     17  C   UNL     1       3.394   3.451  18.908  0.00  0.00    +0.000 A 
ATOM     18 BR   UNL     1       3.350   1.579  18.549  0.00  0.00    +0.000 Br
ATOM     19  C   UNL     1       2.398   4.118  19.639  0.00  0.00    +0.000 A 
ATOM     20 BR   UNL     1       0.920   3.160  20.375  0.00  0.00    +0.000 Br
ATOM     21  C   UNL     1       2.532   5.502  19.843  0.00  0.00    +0.000 A 
ATOM     22 BR   UNL     1       1.266   6.539  20.816  0.00  0.00    +0.000 Br
ATOM     23  C   UNL     1       3.655   6.189  19.357  0.00  0.00    +0.000 A 
ENDBRANCH  14  15
ENDBRANCH   4  14
TORSDOF 4
ENDMDL
MODEL 6
REMARK VINA RESULT:      -6.4      1.703      2.824
REMARK  Name = 
REMARK  4 active torsions:
REMARK  status: ('A' for Active; 'I' for Inactive)
REMARK    1  A    between atoms: C_2  and  C_4
REMARK    2  A    between atoms: N_7  and  C_8
REMARK    3  A    between atoms: C_8  and  C_9
REMARK    4  A    between atoms: C_18  and  N_19
REMARK                            x       y       z     vdW  Elec       q    Type
REMARK                         _______ _______ _______ _____ _____    ______ ____
ROOT
ATOM      1  C   UNL     1       7.096   4.847  14.411  0.00  0.00    +0.000 A 
ATOM      2  N   UNL     1       7.612   5.086  15.665  0.00  0.00    +0.000 NA
ATOM      3  N   UNL     1       6.745   4.645  16.565  0.00  0.00    +0.000 NA
ATOM      4  N   UNL     1       5.678   4.147  15.898  0.00  0.00    +0.000 N 
ATOM      5  C   UNL     1       5.858   4.236  14.536  0.00  0.00    +0.000 A 
ENDROOT
BRANCH   1   7
ATOM      6  N   UNL     1       8.892   5.990  13.353  0.00  0.00    +0.000 N 
ATOM      7  C   UNL     1       7.798   5.184  13.184  0.00  0.00    +0.000 C 
ATOM      8  O   UNL     1       7.469   4.793  12.070  0.00  0.00    +0.000 OA
ATOM      9  H   UNL     1       9.438   6.248  12.545  0.00  0.00    +0.000 HD
ATOM     10  H   UNL     1       9.180   6.283  14.279  0.00  0.00    +0.000 HD
ENDBRANCH   1   7
BRANCH   5  11
ATOM     11  N   UNL     1       4.987   3.760  13.614  0.00  0.00    +0.000 N 
ATOM     12  H   UNL     1       4.427   4.350  13.007  0.00  0.00    +0.000 HD
ATOM     13  H   UNL     1       5.160   2.833  13.217  0.00  0.00    +0.000 HD
ENDBRANCH   5  11
BRANCH   4  14
ATOM     14  C   UNL     1       4.671   3.398  16.626  0.00  0.00    +0.000 C 
BRANCH  14  15
ATOM     15  C   UNL     1       3.797   4.239  17.532  0.00  0.00    +0.000 A 
ATOM     16  C   UNL     1       3.271   3.697  18.711  0.00  0.00    +0.000 A 
ATOM     17  C   UNL     1       2.609   4.506  19.647  0.00  0.00    +0.000 A 
ATOM     18 BR   UNL     1       2.001   3.633  21.228  0.00  0.00    +0.000 Br
ATOM     19  C   UNL     1       2.452   5.882  19.419  0.00  0.00    +0.000 A 
ATOM     20 BR   UNL     1       1.635   7.002  20.732  0.00  0.00    +0.000 Br
ATOM     21  C   UNL     1       2.939   6.421  18.216  0.00  0.00    +0.000 A 
ATOM     22 BR   UNL     1       2.801   8.267  17.770  0.00  0.00    +0.000 Br
ATOM     23  C   UNL     1       3.598   5.605  17.284  0.00  0.00    +0.000 A 
ENDBRANCH  14  15
ENDBRANCH   4  14
TORSDOF 4
ENDMDL
MODEL 7
REMARK VINA RESULT:      -6.1      1.142      1.710
REMARK  Name = 
REMARK  4 active torsions:
REMARK  status: ('A' for Active; 'I' for Inactive)
REMARK    1  A    between atoms: C_2  and  C_4
REMARK    2  A    between atoms: N_7  and  C_8
REMARK    3  A    between atoms: C_8  and  C_9
REMARK    4  A    between atoms: C_18  and  N_19
REMARK                            x       y       z     vdW  Elec       q    Type
REMARK                         _______ _______ _______ _____ _____    ______ ____
ROOT
ATOM      1  C   UNL     1       6.320   3.906  13.582  0.00  0.00    +0.000 A 
ATOM      2  N   UNL     1       5.264   3.416  14.316  0.00  0.00    +0.000 NA
ATOM      3  N   UNL     1       5.297   3.972  15.519  0.00  0.00    +0.000 NA
ATOM      4  N   UNL     1       6.370   4.794  15.562  0.00  0.00    +0.000 N 
ATOM      5  C   UNL     1       7.040   4.801  14.360  0.00  0.00    +0.000 A 
ENDROOT
BRANCH   1   7
ATOM      6  N   UNL     1       5.991   2.350  11.816  0.00  0.00    +0.000 N 
ATOM      7  C   UNL     1       6.576   3.526  12.203  0.00  0.00    +0.000 C 
ATOM      8  O   UNL     1       7.252   4.182  11.419  0.00  0.00    +0.000 OA
ATOM      9  H   UNL     1       6.112   2.034  10.865  0.00  0.00    +0.000 HD
ATOM     10  H   UNL     1       5.406   1.828  12.457  0.00  0.00    +0.000 HD
ENDBRANCH   1   7
BRANCH   5  11
ATOM     11  N   UNL     1       8.115   5.578  14.084  0.00  0.00    +0.000 N 
ATOM     12  H   UNL     1       8.632   5.540  13.212  0.00  0.00    +0.000 HD
ATOM     13  H   UNL     1       8.187   6.487  14.549  0.00  0.00    +0.000 HD
ENDBRANCH   5  11
BRANCH   4  14
ATOM     14  C   UNL     1       6.526   5.701  16.685  0.00  0.00    +0.000 C 
BRANCH  14  15
ATOM     15  C   UNL     1       5.442   5.590  17.735  0.00  0.00    +0.000 A 
ATOM     16  C   UNL     1       4.478   6.596  17.865  0.00  0.00    +0.000 A 
ATOM     17  C   UNL     1       3.368   6.430  18.708  0.00  0.00    +0.000 A 
ATOM     18 BR   UNL     1       2.113   7.865  18.734  0.00  0.00    +0.000 Br
ATOM     19  C   UNL     1       3.202   5.249  19.448  0.00  0.00    +0.000 A 
ATOM     20 BR   UNL     1       1.647   4.981  20.522  0.00  0.00    +0.000 Br
ATOM     21  C   UNL     1       4.192   4.256  19.354  0.00  0.00    +0.000 A 
ATOM     22 BR   UNL     1       4.101   2.603  20.294  0.00  0.00    +0.000 Br
ATOM     23  C   UNL     1       5.299   4.431  18.510  0.00  0.00    +0.000 A 
ENDBRANCH  14  15
ENDBRANCH   4  14
TORSDOF 4
ENDMDL
MODEL 8
REMARK VINA RESULT:      -5.9      1.797      1.959
REMARK  Name = 
REMARK  4 active torsions:
REMARK  status: ('A' for Active; 'I' for Inactive)
REMARK    1  A    between atoms: C_2  and  C_4
REMARK    2  A    between atoms: N_7  and  C_8
REMARK    3  A    between atoms: C_8  and  C_9
REMARK    4  A    between atoms: C_18  and  N_19
REMARK                            x       y       z     vdW  Elec       q    Type
REMARK                         _______ _______ _______ _____ _____    ______ ____
ROOT
ATOM      1  C   UNL     1       6.576   5.375  14.629  0.00  0.00    +0.000 A 
ATOM      2  N   UNL     1       5.528   6.267  14.596  0.00  0.00    +0.000 NA
ATOM      3  N   UNL     1       5.159   6.525  15.843  0.00  0.00    +0.000 NA
ATOM      4  N   UNL     1       5.948   5.794  16.664  0.00  0.00    +0.000 N 
ATOM      5  C   UNL     1       6.869   5.064  15.949  0.00  0.00    +0.000 A 
ENDROOT
BRANCH   1   7
ATOM      6  N   UNL     1       6.801   3.677  12.981  0.00  0.00    +0.000 N 
ATOM      7  C   UNL     1       7.247   4.890  13.435  0.00  0.00    +0.000 C 
ATOM      8  O   UNL     1       8.140   5.492  12.850  0.00  0.00    +0.000 OA
ATOM      9  H   UNL     1       7.209   3.289  12.144  0.00  0.00    +0.000 HD
ATOM     10  H   UNL     1       6.040   3.199  13.447  0.00  0.00    +0.000 HD
ENDBRANCH   1   7
BRANCH   5  11
ATOM     11  N   UNL     1       7.833   4.290  16.503  0.00  0.00    +0.000 N 
ATOM     12  H   UNL     1       7.654   3.582  17.208  0.00  0.00    +0.000 HD
ATOM     13  H   UNL     1       8.677   4.101  15.955  0.00  0.00    +0.000 HD
ENDBRANCH   5  11
BRANCH   4  14
ATOM     14  C   UNL     1       5.912   6.046  18.093  0.00  0.00    +0.000 C 
BRANCH  14  15
ATOM     15  C   UNL     1       4.813   5.312  18.831  0.00  0.00    +0.000 A 
ATOM     16  C   UNL     1       3.812   6.026  19.501  0.00  0.00    +0.000 A 
ATOM     17  C   UNL     1       2.693   5.371  20.039  0.00  0.00    +0.000 A 
ATOM     18 BR   UNL     1       1.389   6.486  20.870  0.00  0.00    +0.000 Br
ATOM     19  C   UNL     1       2.554   3.979  19.923  0.00  0.00    +0.000 A 
ATOM     20 BR   UNL     1       0.989   3.098  20.570  0.00  0.00    +0.000 Br
ATOM     21  C   UNL     1       3.579   3.255  19.291  0.00  0.00    +0.000 A 
ATOM     22 BR   UNL     1       3.528   1.366  19.057  0.00  0.00    +0.000 Br
ATOM     23  C   UNL     1       4.695   3.917  18.758  0.00  0.00    +0.000 A 
ENDBRANCH  14  15
ENDBRANCH   4  14
TORSDOF 4
ENDMDL
MODEL 9
REMARK VINA RESULT:      -5.9      7.001      8.869
REMARK  Name = 
REMARK  4 active torsions:
REMARK  status: ('A' for Active; 'I' for Inactive)
REMARK    1  A    between atoms: C_2  and  C_4
REMARK    2  A    between atoms: N_7  and  C_8
REMARK    3  A    between atoms: C_8  and  C_9
REMARK    4  A    between atoms: C_18  and  N_19
REMARK                            x       y       z     vdW  Elec       q    Type
REMARK                         _______ _______ _______ _____ _____    ______ ____
ROOT
ATOM      1  C   UNL     1       1.842   7.501  19.906  0.00  0.00    +0.000 A 
ATOM      2  N   UNL     1       1.221   7.955  21.047  0.00  0.00    +0.000 NA
ATOM      3  N   UNL     1       0.871   9.219  20.858  0.00  0.00    +0.000 NA
ATOM      4  N   UNL     1       1.280   9.577  19.619  0.00  0.00    +0.000 N 
ATOM      5  C   UNL     1       1.883   8.523  18.971  0.00  0.00    +0.000 A 
ENDROOT
BRANCH   1   7
ATOM      6  N   UNL     1       2.444   5.440  20.926  0.00  0.00    +0.000 N 
ATOM      7  C   UNL     1       2.336   6.142  19.756  0.00  0.00    +0.000 C 
ATOM      8  O   UNL     1       2.637   5.631  18.683  0.00  0.00    +0.000 OA
ATOM      9  H   UNL     1       2.763   4.483  20.894  0.00  0.00    +0.000 HD
ATOM     10  H   UNL     1       2.163   5.855  21.806  0.00  0.00    +0.000 HD
ENDBRANCH   1   7
BRANCH   5  11
ATOM     11  N   UNL     1       2.334   8.564  17.694  0.00  0.00    +0.000 N 
ATOM     12  H   UNL     1       2.249   9.374  17.089  0.00  0.00    +0.000 HD
ATOM     13  H   UNL     1       3.119   7.959  17.438  0.00  0.00    +0.000 HD
ENDBRANCH   5  11
BRANCH   4  14
ATOM     14  C   UNL     1       0.836  10.842  19.061  0.00  0.00    +0.000 C 
BRANCH  14  15
ATOM     15  C   UNL     1      -0.645  10.907  18.758  0.00  0.00    +0.000 A 
ATOM     16  C   UNL     1      -1.508  11.626  19.595  0.00  0.00    +0.000 A 
ATOM     17  C   UNL     1      -2.847  11.845  19.237  0.00  0.00    +0.000 A 
ATOM     18 BR   UNL     1      -3.879  12.889  20.452  0.00  0.00    +0.000 Br
ATOM     19  C   UNL     1      -3.357  11.340  18.030  0.00  0.00    +0.000 A 
ATOM     20 BR   UNL     1      -5.151  11.717  17.497  0.00  0.00    +0.000 Br
ATOM     21  C   UNL     1      -2.506  10.581  17.210  0.00  0.00    +0.000 A 
ATOM     22 BR   UNL     1      -3.055   9.837  15.546  0.00  0.00    +0.000 Br
ATOM     23  C   UNL     1      -1.169  10.365  17.576  0.00  0.00    +0.000 A 
ENDBRANCH  14  15
ENDBRANCH   4  14
TORSDOF 4
ENDMDL
