MODEL 1
REMARK VINA RESULT:      -7.5      0.000      0.000
REMARK  Name = 
REMARK  4 active torsions:
REMARK  status: ('A' for Active; 'I' for Inactive)
REMARK    1  A    between atoms: C_4  and  O_5
REMARK    2  A    between atoms: O_5  and  C_6
REMARK    3  A    between atoms: C_6  and  C_7
REMARK    4  A    between atoms: C_7  and  N_8
REMARK                            x       y       z     vdW  Elec       q    Type
REMARK                         _______ _______ _______ _____ _____    ______ ____
ROOT
ATOM      1  N   UNL     1       3.286   4.300  17.429  0.00  0.00    +0.000 N 
ATOM      2  C   UNL     1       3.305   5.669  17.805  0.00  0.00    +0.000 C 
ATOM      3  N   UNL     1       3.650   6.696  17.130  0.00  0.00    +0.000 NA
ATOM      4  C   UNL     1       3.345   7.854  17.967  0.00  0.00    +0.000 C 
ATOM      5  C   UNL     1       2.383   7.293  19.053  0.00  0.00    +0.000 C 
ATOM      6  N   UNL     1       2.781   5.930  19.042  0.00  0.00    +0.000 N 
ATOM      7  C   UNL     1       2.205   4.737  19.454  0.00  0.00    +0.000 A 
ATOM      8  C   UNL     1       1.505   4.465  20.621  0.00  0.00    +0.000 A 
ATOM      9  C   UNL     1       0.914   3.200  20.735  0.00  0.00    +0.000 A 
ATOM     10  C   UNL     1       1.001   2.272  19.671  0.00  0.00    +0.000 A 
ATOM     11  C   UNL     1       1.769   2.558  18.522  0.00  0.00    +0.000 A 
ATOM     12  C   UNL     1       2.415   3.796  18.455  0.00  0.00    +0.000 A 
ENDROOT
BRANCH   1  13
ATOM     13  C   UNL     1       4.627   3.763  17.280  0.00  0.00    +0.000 C 
BRANCH  13  14
ATOM     14  C   UNL     1       5.281   3.901  15.907  0.00  0.00    +0.000 C 
BRANCH  14  15
ATOM     15  O   UNL     1       6.597   4.245  16.156  0.00  0.00    +0.000 OA
BRANCH  15  19
ATOM     16  C   UNL     1       8.104   7.132  18.740  0.00  0.00    +0.000 A 
ATOM     17  C   UNL     1       7.603   7.527  17.496  0.00  0.00    +0.000 A 
ATOM     18  C   UNL     1       7.101   6.574  16.601  0.00  0.00    +0.000 A 
ATOM     19  C   UNL     1       7.080   5.220  16.968  0.00  0.00    +0.000 A 
ATOM     20  C   UNL     1       7.599   4.825  18.212  0.00  0.00    +0.000 A 
ATOM     21  C   UNL     1       8.107   5.780  19.096  0.00  0.00    +0.000 A 
ENDBRANCH  15  19
ENDBRANCH  14  15
ENDBRANCH  13  14
ENDBRANCH   1  13
TORSDOF 4
ENDMDL
MODEL 2
REMARK VINA RESULT:      -7.5      2.193      5.008
REMARK  Name = 
REMARK  4 active torsions:
REMARK  status: ('A' for Active; 'I' for Inactive)
REMARK    1  A    between atoms: C_4  and  O_5
REMARK    2  A    between atoms: O_5  and  C_6
REMARK    3  A    between atoms: C_6  and  C_7
REMARK    4  A    between atoms: C_7  and  N_8
REMARK                            x       y       z     vdW  Elec       q    Type
REMARK                         _______ _______ _______ _____ _____    ______ ____
ROOT
ATOM      1  N   UNL     1       6.079   5.438  17.708  0.00  0.00    +0.000 N 
ATOM      2  C   UNL     1       6.257   5.160  16.328  0.00  0.00    +0.000 C 
ATOM      3  N   UNL     1       7.069   5.676  15.488  0.00  0.00    +0.000 NA
ATOM      4  C   UNL     1       6.907   4.922  14.248  0.00  0.00    +0.000 C 
ATOM      5  C   UNL     1       6.160   3.630  14.686  0.00  0.00    +0.000 C 
ATOM      6  N   UNL     1       5.513   4.113  15.854  0.00  0.00    +0.000 N 
ATOM      7  C   UNL     1       4.952   3.526  16.978  0.00  0.00    +0.000 A 
ATOM      8  C   UNL     1       4.141   2.404  17.062  0.00  0.00    +0.000 A 
ATOM      9  C   UNL     1       3.811   1.943  18.344  0.00  0.00    +0.000 A 
ATOM     10  C   UNL     1       4.334   2.585  19.491  0.00  0.00    +0.000 A 
ATOM     11  C   UNL     1       5.109   3.758  19.372  0.00  0.00    +0.000 A 
ATOM     12  C   UNL     1       5.368   4.249  18.089  0.00  0.00    +0.000 A 
ENDROOT
BRANCH   1  13
ATOM     13  C   UNL     1       5.483   6.746  17.922  0.00  0.00    +0.000 C 
BRANCH  13  14
ATOM     14  C   UNL     1       4.151   7.022  17.229  0.00  0.00    +0.000 C 
BRANCH  14  15
ATOM     15  O   UNL     1       3.207   7.050  18.239  0.00  0.00    +0.000 OA
BRANCH  15  19
ATOM     16  C   UNL     1       0.971   3.962  19.899  0.00  0.00    +0.000 A 
ATOM     17  C   UNL     1       1.104   4.036  18.509  0.00  0.00    +0.000 A 
ATOM     18  C   UNL     1       1.840   5.073  17.923  0.00  0.00    +0.000 A 
ATOM     19  C   UNL     1       2.467   6.027  18.739  0.00  0.00    +0.000 A 
ATOM     20  C   UNL     1       2.319   5.959  20.134  0.00  0.00    +0.000 A 
ATOM     21  C   UNL     1       1.575   4.927  20.711  0.00  0.00    +0.000 A 
ENDBRANCH  15  19
ENDBRANCH  14  15
ENDBRANCH  13  14
ENDBRANCH   1  13
TORSDOF 4
ENDMDL
MODEL 3
REMARK VINA RESULT:      -7.5      3.237      5.051
REMARK  Name = 
REMARK  4 active torsions:
REMARK  status: ('A' for Active; 'I' for Inactive)
REMARK    1  A    between atoms: C_4  and  O_5
REMARK    2  A    between atoms: O_5  and  C_6
REMARK    3  A    between atoms: C_6  and  C_7
REMARK    4  A    between atoms: C_7  and  N_8
REMARK                            x       y       z     vdW  Elec       q    Type
REMARK                         _______ _______ _______ _____ _____    ______ ____
ROOT
ATOM      1  N   UNL     1       6.871   5.756  17.259  0.00  0.00    +0.000 N 
ATOM      2  C   UNL     1       6.797   5.346  15.902  0.00  0.00    +0.000 C 
ATOM      3  N   UNL     1       7.668   5.434  14.973  0.00  0.00    +0.000 NA
ATOM      4  C   UNL     1       7.106   4.737  13.820  0.00  0.00    +0.000 C 
ATOM      5  C   UNL     1       5.946   3.890  14.417  0.00  0.00    +0.000 C 
ATOM      6  N   UNL     1       5.656   4.665  15.571  0.00  0.00    +0.000 N 
ATOM      7  C   UNL     1       5.011   4.428  16.776  0.00  0.00    +0.000 A 
ATOM      8  C   UNL     1       3.829   3.740  17.009  0.00  0.00    +0.000 A 
ATOM      9  C   UNL     1       3.459   3.533  18.345  0.00  0.00    +0.000 A 
ATOM     10  C   UNL     1       4.298   3.975  19.396  0.00  0.00    +0.000 A 
ATOM     11  C   UNL     1       5.464   4.722  19.125  0.00  0.00    +0.000 A 
ATOM     12  C   UNL     1       5.781   4.985  17.789  0.00  0.00    +0.000 A 
ENDROOT
BRANCH   1  13
ATOM     13  C   UNL     1       6.872   7.203  17.385  0.00  0.00    +0.000 C 
BRANCH  13  14
ATOM     14  C   UNL     1       8.074   7.837  18.082  0.00  0.00    +0.000 C 
BRANCH  14  15
ATOM     15  O   UNL     1       8.003   9.186  17.787  0.00  0.00    +0.000 OA
BRANCH  15  19
ATOM     16  C   UNL     1      10.002  12.427  19.459  0.00  0.00    +0.000 A 
ATOM     17  C   UNL     1      10.034  11.194  20.117  0.00  0.00    +0.000 A 
ATOM     18  C   UNL     1       9.359  10.090  19.583  0.00  0.00    +0.000 A 
ATOM     19  C   UNL     1       8.668  10.218  18.369  0.00  0.00    +0.000 A 
ATOM     20  C   UNL     1       8.625  11.462  17.718  0.00  0.00    +0.000 A 
ATOM     21  C   UNL     1       9.293  12.562  18.261  0.00  0.00    +0.000 A 
ENDBRANCH  15  19
ENDBRANCH  14  15
ENDBRANCH  13  14
ENDBRANCH   1  13
TORSDOF 4
ENDMDL
MODEL 4
REMARK VINA RESULT:      -7.4      1.997      3.149
REMARK  Name = 
REMARK  4 active torsions:
REMARK  status: ('A' for Active; 'I' for Inactive)
REMARK    1  A    between atoms: C_4  and  O_5
REMARK    2  A    between atoms: O_5  and  C_6
REMARK    3  A    between atoms: C_6  and  C_7
REMARK    4  A    between atoms: C_7  and  N_8
REMARK                            x       y       z     vdW  Elec       q    Type
REMARK                         _______ _______ _______ _____ _____    ______ ____
ROOT
ATOM      1  N   UNL     1       4.705   4.754  17.484  0.00  0.00    +0.000 N 
ATOM      2  C   UNL     1       4.051   5.986  17.750  0.00  0.00    +0.000 C 
ATOM      3  N   UNL     1       4.258   7.145  17.255  0.00  0.00    +0.000 NA
ATOM      4  C   UNL     1       3.211   8.010  17.792  0.00  0.00    +0.000 C 
ATOM      5  C   UNL     1       2.146   7.020  18.342  0.00  0.00    +0.000 C 
ATOM      6  N   UNL     1       2.974   5.893  18.590  0.00  0.00    +0.000 N 
ATOM      7  C   UNL     1       2.758   4.534  18.756  0.00  0.00    +0.000 A 
ATOM      8  C   UNL     1       1.764   3.892  19.482  0.00  0.00    +0.000 A 
ATOM      9  C   UNL     1       1.693   2.496  19.381  0.00  0.00    +0.000 A 
ATOM     10  C   UNL     1       2.580   1.796  18.529  0.00  0.00    +0.000 A 
ATOM     11  C   UNL     1       3.615   2.472  17.849  0.00  0.00    +0.000 A 
ATOM     12  C   UNL     1       3.720   3.855  18.019  0.00  0.00    +0.000 A 
ENDROOT
BRANCH   1  13
ATOM     13  C   UNL     1       6.062   4.742  17.999  0.00  0.00    +0.000 C 
BRANCH  13  14
ATOM     14  C   UNL     1       7.187   4.535  16.987  0.00  0.00    +0.000 C 
BRANCH  14  15
ATOM     15  O   UNL     1       6.807   5.243  15.862  0.00  0.00    +0.000 OA
BRANCH  15  19
ATOM     16  C   UNL     1       6.794   3.948  11.910  0.00  0.00    +0.000 A 
ATOM     17  C   UNL     1       7.708   4.930  12.302  0.00  0.00    +0.000 A 
ATOM     18  C   UNL     1       7.726   5.394  13.623  0.00  0.00    +0.000 A 
ATOM     19  C   UNL     1       6.837   4.850  14.562  0.00  0.00    +0.000 A 
ATOM     20  C   UNL     1       5.909   3.874  14.162  0.00  0.00    +0.000 A 
ATOM     21  C   UNL     1       5.891   3.423  12.840  0.00  0.00    +0.000 A 
ENDBRANCH  15  19
ENDBRANCH  14  15
ENDBRANCH  13  14
ENDBRANCH   1  13
TORSDOF 4
ENDMDL
MODEL 5
REMARK VINA RESULT:      -7.4      2.001      3.214
REMARK  Name = 
REMARK  4 active torsions:
REMARK  status: ('A' for Active; 'I' for Inactive)
REMARK    1  A    between atoms: C_4  and  O_5
REMARK    2  A    between atoms: O_5  and  C_6
REMARK    3  A    between atoms: C_6  and  C_7
REMARK    4  A    between atoms: C_7  and  N_8
REMARK                            x       y       z     vdW  Elec       q    Type
REMARK                         _______ _______ _______ _____ _____    ______ ____
ROOT
ATOM      1  N   UNL     1       4.698   4.807  17.481  0.00  0.00    +0.000 N 
ATOM      2  C   UNL     1       4.012   6.023  17.738  0.00  0.00    +0.000 C 
ATOM      3  N   UNL     1       4.191   7.183  17.237  0.00  0.00    +0.000 NA
ATOM      4  C   UNL     1       3.121   8.025  17.766  0.00  0.00    +0.000 C 
ATOM      5  C   UNL     1       2.080   7.010  18.320  0.00  0.00    +0.000 C 
ATOM      6  N   UNL     1       2.936   5.907  18.576  0.00  0.00    +0.000 N 
ATOM      7  C   UNL     1       2.754   4.543  18.750  0.00  0.00    +0.000 A 
ATOM      8  C   UNL     1       1.776   3.881  19.478  0.00  0.00    +0.000 A 
ATOM      9  C   UNL     1       1.742   2.483  19.384  0.00  0.00    +0.000 A 
ATOM     10  C   UNL     1       2.648   1.801  18.539  0.00  0.00    +0.000 A 
ATOM     11  C   UNL     1       3.667   2.499  17.858  0.00  0.00    +0.000 A 
ATOM     12  C   UNL     1       3.736   3.886  18.020  0.00  0.00    +0.000 A 
ENDROOT
BRANCH   1  13
ATOM     13  C   UNL     1       6.055   4.833  18.000  0.00  0.00    +0.000 C 
BRANCH  13  14
ATOM     14  C   UNL     1       7.175   4.468  17.030  0.00  0.00    +0.000 C 
BRANCH  14  15
ATOM     15  O   UNL     1       6.944   5.223  15.895  0.00  0.00    +0.000 OA
BRANCH  15  19
ATOM     16  C   UNL     1       6.836   4.062  11.904  0.00  0.00    +0.000 A 
ATOM     17  C   UNL     1       5.961   3.460  12.812  0.00  0.00    +0.000 A 
ATOM     18  C   UNL     1       5.985   3.822  14.164  0.00  0.00    +0.000 A 
ATOM     19  C   UNL     1       6.876   4.813  14.602  0.00  0.00    +0.000 A 
ATOM     20  C   UNL     1       7.765   5.406  13.690  0.00  0.00    +0.000 A 
ATOM     21  C   UNL     1       7.742   5.032  12.344  0.00  0.00    +0.000 A 
ENDBRANCH  15  19
ENDBRANCH  14  15
ENDBRANCH  13  14
ENDBRANCH   1  13
TORSDOF 4
ENDMDL
MODEL 6
REMARK VINA RESULT:      -7.4      3.297      4.966
REMARK  Name = 
REMARK  4 active torsions:
REMARK  status: ('A' for Active; 'I' for Inactive)
REMARK    1  A    between atoms: C_4  and  O_5
REMARK    2  A    between atoms: O_5  and  C_6
REMARK    3  A    between atoms: C_6  and  C_7
REMARK    4  A    between atoms: C_7  and  N_8
REMARK                            x       y       z     vdW  Elec       q    Type
REMARK                         _______ _______ _______ _____ _____    ______ ____
ROOT
ATOM      1  N   UNL     1       6.800   6.021  17.357  0.00  0.00    +0.000 N 
ATOM      2  C   UNL     1       6.730   5.525  16.029  0.00  0.00    +0.000 C 
ATOM      3  N   UNL     1       7.630   5.482  15.124  0.00  0.00    +0.000 NA
ATOM      4  C   UNL     1       7.045   4.752  14.002  0.00  0.00    +0.000 C 
ATOM      5  C   UNL     1       5.807   4.040  14.618  0.00  0.00    +0.000 C 
ATOM      6  N   UNL     1       5.549   4.912  15.708  0.00  0.00    +0.000 N 
ATOM      7  C   UNL     1       4.855   4.809  16.905  0.00  0.00    +0.000 A 
ATOM      8  C   UNL     1       3.617   4.232  17.146  0.00  0.00    +0.000 A 
ATOM      9  C   UNL     1       3.197   4.146  18.481  0.00  0.00    +0.000 A 
ATOM     10  C   UNL     1       4.039   4.595  19.525  0.00  0.00    +0.000 A 
ATOM     11  C   UNL     1       5.267   5.229  19.242  0.00  0.00    +0.000 A 
ATOM     12  C   UNL     1       5.639   5.374  17.902  0.00  0.00    +0.000 A 
ENDROOT
BRANCH   1  13
ATOM     13  C   UNL     1       6.912   7.469  17.386  0.00  0.00    +0.000 C 
BRANCH  13  14
ATOM     14  C   UNL     1       8.139   8.057  18.079  0.00  0.00    +0.000 C 
BRANCH  14  15
ATOM     15  O   UNL     1       8.176   9.387  17.702  0.00  0.00    +0.000 OA
BRANCH  15  19
ATOM     16  C   UNL     1      10.000  12.505  19.762  0.00  0.00    +0.000 A 
ATOM     17  C   UNL     1       9.417  12.759  18.516  0.00  0.00    +0.000 A 
ATOM     18  C   UNL     1       8.808  11.726  17.795  0.00  0.00    +0.000 A 
ATOM     19  C   UNL     1       8.761  10.433  18.340  0.00  0.00    +0.000 A 
ATOM     20  C   UNL     1       9.361  10.177  19.584  0.00  0.00    +0.000 A 
ATOM     21  C   UNL     1       9.976  11.212  20.293  0.00  0.00    +0.000 A 
ENDBRANCH  15  19
ENDBRANCH  14  15
ENDBRANCH  13  14
ENDBRANCH   1  13
TORSDOF 4
ENDMDL
MODEL 7
REMARK VINA RESULT:      -7.3      3.081      5.961
REMARK  Name = 
REMARK  4 active torsions:
REMARK  status: ('A' for Active; 'I' for Inactive)
REMARK    1  A    between atoms: C_4  and  O_5
REMARK    2  A    between atoms: O_5  and  C_6
REMARK    3  A    between atoms: C_6  and  C_7
REMARK    4  A    between atoms: C_7  and  N_8
REMARK                            x       y       z     vdW  Elec       q    Type
REMARK                         _______ _______ _______ _____ _____    ______ ____
ROOT
ATOM      1  N   UNL     1       2.932   6.376  18.624  0.00  0.00    +0.000 N 
ATOM      2  C   UNL     1       3.786   5.817  17.637  0.00  0.00    +0.000 C 
ATOM      3  N   UNL     1       4.796   6.327  17.047  0.00  0.00    +0.000 NA
ATOM      4  C   UNL     1       5.371   5.262  16.229  0.00  0.00    +0.000 C 
ATOM      5  C   UNL     1       4.738   3.961  16.802  0.00  0.00    +0.000 C 
ATOM      6  N   UNL     1       3.545   4.500  17.352  0.00  0.00    +0.000 N 
ATOM      7  C   UNL     1       2.628   4.082  18.305  0.00  0.00    +0.000 A 
ATOM      8  C   UNL     1       2.078   2.821  18.490  0.00  0.00    +0.000 A 
ATOM      9  C   UNL     1       1.265   2.634  19.617  0.00  0.00    +0.000 A 
ATOM     10  C   UNL     1       1.066   3.690  20.538  0.00  0.00    +0.000 A 
ATOM     11  C   UNL     1       1.592   4.975  20.290  0.00  0.00    +0.000 A 
ATOM     12  C   UNL     1       2.339   5.166  19.124  0.00  0.00    +0.000 A 
ENDROOT
BRANCH   1  13
ATOM     13  C   UNL     1       2.093   7.429  18.077  0.00  0.00    +0.000 C 
BRANCH  13  14
ATOM     14  C   UNL     1       2.056   8.752  18.837  0.00  0.00    +0.000 C 
BRANCH  14  15
ATOM     15  O   UNL     1       1.619   8.436  20.110  0.00  0.00    +0.000 OA
BRANCH  15  19
ATOM     16  C   UNL     1      -0.798  10.766  22.564  0.00  0.00    +0.000 A 
ATOM     17  C   UNL     1      -0.109   9.682  23.117  0.00  0.00    +0.000 A 
ATOM     18  C   UNL     1       0.701   8.873  22.311  0.00  0.00    +0.000 A 
ATOM     19  C   UNL     1       0.840   9.169  20.947  0.00  0.00    +0.000 A 
ATOM     20  C   UNL     1       0.136  10.250  20.391  0.00  0.00    +0.000 A 
ATOM     21  C   UNL     1      -0.679  11.047  21.199  0.00  0.00    +0.000 A 
ENDBRANCH  15  19
ENDBRANCH  14  15
ENDBRANCH  13  14
ENDBRANCH   1  13
TORSDOF 4
ENDMDL
MODEL 8
REMARK VINA RESULT:      -7.2      3.315      6.080
REMARK  Name = 
REMARK  4 active torsions:
REMARK  status: ('A' for Active; 'I' for Inactive)
REMARK    1  A    between atoms: C_4  and  O_5
REMARK    2  A    between atoms: O_5  and  C_6
REMARK    3  A    between atoms: C_6  and  C_7
REMARK    4  A    between atoms: C_7  and  N_8
REMARK                            x       y       z     vdW  Elec       q    Type
REMARK                         _______ _______ _______ _____ _____    ______ ____
ROOT
ATOM      1  N   UNL     1       2.945   6.807  18.595  0.00  0.00    +0.000 N 
ATOM      2  C   UNL     1       3.747   6.213  17.585  0.00  0.00    +0.000 C 
ATOM      3  N   UNL     1       4.730   6.699  16.931  0.00  0.00    +0.000 NA
ATOM      4  C   UNL     1       5.259   5.607  16.119  0.00  0.00    +0.000 C 
ATOM      5  C   UNL     1       4.648   4.328  16.759  0.00  0.00    +0.000 C 
ATOM      6  N   UNL     1       3.486   4.890  17.350  0.00  0.00    +0.000 N 
ATOM      7  C   UNL     1       2.615   4.506  18.358  0.00  0.00    +0.000 A 
ATOM      8  C   UNL     1       2.068   3.255  18.607  0.00  0.00    +0.000 A 
ATOM      9  C   UNL     1       1.310   3.106  19.777  0.00  0.00    +0.000 A 
ATOM     10  C   UNL     1       1.162   4.189  20.675  0.00  0.00    +0.000 A 
ATOM     11  C   UNL     1       1.682   5.464  20.364  0.00  0.00    +0.000 A 
ATOM     12  C   UNL     1       2.372   5.616  19.158  0.00  0.00    +0.000 A 
ENDROOT
BRANCH   1  13
ATOM     13  C   UNL     1       2.086   7.848  18.058  0.00  0.00    +0.000 C 
BRANCH  13  14
ATOM     14  C   UNL     1       1.955   9.130  18.877  0.00  0.00    +0.000 C 
BRANCH  14  15
ATOM     15  O   UNL     1       0.654   9.139  19.344  0.00  0.00    +0.000 OA
BRANCH  15  19
ATOM     16  C   UNL     1      -0.773  10.559  22.983  0.00  0.00    +0.000 A 
ATOM     17  C   UNL     1      -0.918  11.350  21.839  0.00  0.00    +0.000 A 
ATOM     18  C   UNL     1      -0.435  10.902  20.604  0.00  0.00    +0.000 A 
ATOM     19  C   UNL     1       0.175   9.642  20.511  0.00  0.00    +0.000 A 
ATOM     20  C   UNL     1       0.333   8.856  21.665  0.00  0.00    +0.000 A 
ATOM     21  C   UNL     1      -0.143   9.314  22.896  0.00  0.00    +0.000 A 
ENDBRANCH  15  19
ENDBRANCH  14  15
ENDBRANCH  13  14
ENDBRANCH   1  13
TORSDOF 4
ENDMDL
MODEL 9
REMARK VINA RESULT:      -7.2      3.647      6.419
REMARK  Name = 
REMARK  4 active torsions:
REMARK  status: ('A' for Active; 'I' for Inactive)
REMARK    1  A    between atoms: C_4  and  O_5
REMARK    2  A    between atoms: O_5  and  C_6
REMARK    3  A    between atoms: C_6  and  C_7
REMARK    4  A    between atoms: C_7  and  N_8
REMARK                            x       y       z     vdW  Elec       q    Type
REMARK                         _______ _______ _______ _____ _____    ______ ____
ROOT
ATOM      1  N   UNL     1       2.868   6.184  19.494  0.00  0.00    +0.000 N 
ATOM      2  C   UNL     1       3.636   5.996  18.315  0.00  0.00    +0.000 C 
ATOM      3  N   UNL     1       4.673   6.620  17.908  0.00  0.00    +0.000 NA
ATOM      4  C   UNL     1       5.121   5.924  16.705  0.00  0.00    +0.000 C 
ATOM      5  C   UNL     1       4.387   4.554  16.765  0.00  0.00    +0.000 C 
ATOM      6  N   UNL     1       3.265   4.920  17.556  0.00  0.00    +0.000 N 
ATOM      7  C   UNL     1       2.342   4.230  18.327  0.00  0.00    +0.000 A 
ATOM      8  C   UNL     1       1.682   3.043  18.041  0.00  0.00    +0.000 A 
ATOM      9  C   UNL     1       0.889   2.489  19.055  0.00  0.00    +0.000 A 
ATOM     10  C   UNL     1       0.816   3.108  20.325  0.00  0.00    +0.000 A 
ATOM     11  C   UNL     1       1.453   4.345  20.564  0.00  0.00    +0.000 A 
ATOM     12  C   UNL     1       2.180   4.923  19.520  0.00  0.00    +0.000 A 
ENDROOT
BRANCH   1  13
ATOM     13  C   UNL     1       2.115   7.426  19.454  0.00  0.00    +0.000 C 
BRANCH  13  14
ATOM     14  C   UNL     1       1.606   7.971  20.786  0.00  0.00    +0.000 C 
BRANCH  14  15
ATOM     15  O   UNL     1       1.168   9.255  20.518  0.00  0.00    +0.000 OA
BRANCH  15  19
ATOM     16  C   UNL     1      -1.097  11.874  22.820  0.00  0.00    +0.000 A 
ATOM     17  C   UNL     1      -1.056  10.521  23.170  0.00  0.00    +0.000 A 
ATOM     18  C   UNL     1      -0.312   9.615  22.405  0.00  0.00    +0.000 A 
ATOM     19  C   UNL     1       0.415  10.075  21.296  0.00  0.00    +0.000 A 
ATOM     20  C   UNL     1       0.359  11.432  20.939  0.00  0.00    +0.000 A 
ATOM     21  C   UNL     1      -0.393  12.328  21.701  0.00  0.00    +0.000 A 
ENDBRANCH  15  19
ENDBRANCH  14  15
ENDBRANCH  13  14
ENDBRANCH   1  13
TORSDOF 4
ENDMDL
