MODEL 1
REMARK VINA RESULT:      -8.2      0.000      0.000
REMARK  Name = 
REMARK  9 active torsions:
REMARK  status: ('A' for Active; 'I' for Inactive)
REMARK    1  A    between atoms: C_1  and  O_2
REMARK    2  A    between atoms: O_2  and  C_3
REMARK    3  A    between atoms: C_8  and  C_9
REMARK    4  A    between atoms: C_11  and  N_12
REMARK    5  A    between atoms: N_12  and  C_13
REMARK    6  A    between atoms: C_13  and  C_14
REMARK    7  A    between atoms: C_18  and  N_19
REMARK    8  A    between atoms: N_19  and  C_20
REMARK    9  A    between atoms: N_19  and  C_21
REMARK                            x       y       z     vdW  Elec       q    Type
REMARK                         _______ _______ _______ _____ _____    ______ ____
ROOT
ATOM      1  C   UNL     1       6.070   3.524  12.906  0.00  0.00    +0.000 A 
ATOM      2  C   UNL     1       7.061   4.447  12.634  0.00  0.00    +0.000 A 
ATOM      3  C   UNL     1       7.539   5.256  13.668  0.00  0.00    +0.000 A 
ATOM      4  C   UNL     1       7.068   5.159  14.972  0.00  0.00    +0.000 A 
ATOM      5  N   UNL     1       7.603   5.995  15.873  0.00  0.00    +0.000 NA
ATOM      6  C   UNL     1       7.158   5.943  17.142  0.00  0.00    +0.000 A 
ATOM      7  C   UNL     1       7.778   6.894  18.126  0.00  0.00    +0.000 C 
ATOM      8  C   UNL     1       6.184   5.049  17.551  0.00  0.00    +0.000 A 
ATOM      9  C   UNL     1       5.635   4.139  16.636  0.00  0.00    +0.000 A 
ATOM     10  C   UNL     1       6.062   4.212  15.278  0.00  0.00    +0.000 A 
ATOM     11  C   UNL     1       5.562   3.439  14.199  0.00  0.00    +0.000 A 
ENDROOT
BRANCH   1  13
ATOM     12  C   UNL     1       4.338   3.197  11.341  0.00  0.00    +0.000 C 
ATOM     13  O   UNL     1       5.485   2.681  12.002  0.00  0.00    +0.000 OA
ENDBRANCH   1  13
BRANCH   9  14
ATOM     14  N   UNL     1       4.675   3.275  17.173  0.00  0.00    +0.000 N 
ATOM     15  H   UNL     1       4.931   2.955  18.106  0.00  0.00    +0.000 HD
BRANCH  14  16
ATOM     16  C   UNL     1       3.245   3.489  17.040  0.00  0.00    +0.000 C 
BRANCH  16  17
ATOM     17  C   UNL     1       2.702   4.147  18.282  0.00  0.00    +0.000 A 
ATOM     18  C   UNL     1       2.315   3.379  19.381  0.00  0.00    +0.000 A 
ATOM     19  C   UNL     1       1.828   4.009  20.519  0.00  0.00    +0.000 A 
ATOM     20  C   UNL     1       1.732   5.405  20.561  0.00  0.00    +0.000 A 
ATOM     21  C   UNL     1       2.120   6.219  19.484  0.00  0.00    +0.000 A 
ATOM     22  C   UNL     1       2.608   5.548  18.352  0.00  0.00    +0.000 A 
BRANCH  21  23
ATOM     23  N   UNL     1       2.010   7.598  19.515  0.00  0.00    +0.000 N 
ATOM     24  C   UNL     1       1.554   8.309  20.706  0.00  0.00    +0.000 C 
ATOM     25  C   UNL     1       2.215   8.420  18.331  0.00  0.00    +0.000 C 
ENDBRANCH  21  23
ENDBRANCH  16  17
ENDBRANCH  14  16
ENDBRANCH   9  14
TORSDOF 5
ENDMDL
MODEL 2
REMARK VINA RESULT:      -7.8      2.379      6.628
REMARK  Name = 
REMARK  9 active torsions:
REMARK  status: ('A' for Active; 'I' for Inactive)
REMARK    1  A    between atoms: C_1  and  O_2
REMARK    2  A    between atoms: O_2  and  C_3
REMARK    3  A    between atoms: C_8  and  C_9
REMARK    4  A    between atoms: C_11  and  N_12
REMARK    5  A    between atoms: N_12  and  C_13
REMARK    6  A    between atoms: C_13  and  C_14
REMARK    7  A    between atoms: C_18  and  N_19
REMARK    8  A    between atoms: N_19  and  C_20
REMARK    9  A    between atoms: N_19  and  C_21
REMARK                            x       y       z     vdW  Elec       q    Type
REMARK                         _______ _______ _______ _____ _____    ______ ____
ROOT
ATOM      1  C   UNL     1       2.279   7.812  18.461  0.00  0.00    +0.000 A 
ATOM      2  C   UNL     1       1.935   8.058  19.776  0.00  0.00    +0.000 A 
ATOM      3  C   UNL     1       1.753   6.979  20.645  0.00  0.00    +0.000 A 
ATOM      4  C   UNL     1       1.922   5.660  20.243  0.00  0.00    +0.000 A 
ATOM      5  N   UNL     1       1.714   4.713  21.169  0.00  0.00    +0.000 NA
ATOM      6  C   UNL     1       1.850   3.422  20.813  0.00  0.00    +0.000 A 
ATOM      7  C   UNL     1       1.608   2.388  21.874  0.00  0.00    +0.000 C 
ATOM      8  C   UNL     1       2.213   3.041  19.533  0.00  0.00    +0.000 A 
ATOM      9  C   UNL     1       2.472   4.013  18.556  0.00  0.00    +0.000 A 
ATOM     10  C   UNL     1       2.288   5.382  18.905  0.00  0.00    +0.000 A 
ATOM     11  C   UNL     1       2.417   6.495  18.034  0.00  0.00    +0.000 A 
ENDROOT
BRANCH   1  13
ATOM     12  C   UNL     1       1.900  10.029  17.756  0.00  0.00    +0.000 C 
ATOM     13  O   UNL     1       2.468   8.754  17.489  0.00  0.00    +0.000 OA
ENDBRANCH   1  13
BRANCH   9  14
ATOM     14  N   UNL     1       2.849   3.504  17.308  0.00  0.00    +0.000 N 
ATOM     15  H   UNL     1       2.574   4.122  16.547  0.00  0.00    +0.000 HD
BRANCH  14  16
ATOM     16  C   UNL     1       4.130   2.865  17.062  0.00  0.00    +0.000 C 
BRANCH  16  17
ATOM     17  C   UNL     1       5.131   3.880  16.576  0.00  0.00    +0.000 A 
ATOM     18  C   UNL     1       5.365   4.051  15.210  0.00  0.00    +0.000 A 
ATOM     19  C   UNL     1       6.284   5.001  14.787  0.00  0.00    +0.000 A 
ATOM     20  C   UNL     1       6.964   5.786  15.725  0.00  0.00    +0.000 A 
ATOM     21  C   UNL     1       6.753   5.658  17.107  0.00  0.00    +0.000 A 
ATOM     22  C   UNL     1       5.817   4.689  17.499  0.00  0.00    +0.000 A 
BRANCH  21  23
ATOM     23  N   UNL     1       7.437   6.421  18.039  0.00  0.00    +0.000 N 
ATOM     24  C   UNL     1       7.866   7.786  17.752  0.00  0.00    +0.000 C 
ATOM     25  C   UNL     1       7.888   5.872  19.310  0.00  0.00    +0.000 C 
ENDBRANCH  21  23
ENDBRANCH  16  17
ENDBRANCH  14  16
ENDBRANCH   9  14
TORSDOF 5
ENDMDL
MODEL 3
REMARK VINA RESULT:      -7.7      2.878      5.466
REMARK  Name = 
REMARK  9 active torsions:
REMARK  status: ('A' for Active; 'I' for Inactive)
REMARK    1  A    between atoms: C_1  and  O_2
REMARK    2  A    between atoms: O_2  and  C_3
REMARK    3  A    between atoms: C_8  and  C_9
REMARK    4  A    between atoms: C_11  and  N_12
REMARK    5  A    between atoms: N_12  and  C_13
REMARK    6  A    between atoms: C_13  and  C_14
REMARK    7  A    between atoms: C_18  and  N_19
REMARK    8  A    between atoms: N_19  and  C_20
REMARK    9  A    between atoms: N_19  and  C_21
REMARK                            x       y       z     vdW  Elec       q    Type
REMARK                         _______ _______ _______ _____ _____    ______ ____
ROOT
ATOM      1  C   UNL     1       1.856   3.307  19.238  0.00  0.00    +0.000 A 
ATOM      2  C   UNL     1       2.349   2.222  18.540  0.00  0.00    +0.000 A 
ATOM      3  C   UNL     1       3.315   2.429  17.552  0.00  0.00    +0.000 A 
ATOM      4  C   UNL     1       3.816   3.690  17.251  0.00  0.00    +0.000 A 
ATOM      5  N   UNL     1       4.736   3.759  16.279  0.00  0.00    +0.000 NA
ATOM      6  C   UNL     1       5.232   4.965  15.946  0.00  0.00    +0.000 A 
ATOM      7  C   UNL     1       6.260   5.006  14.852  0.00  0.00    +0.000 C 
ATOM      8  C   UNL     1       4.839   6.129  16.583  0.00  0.00    +0.000 A 
ATOM      9  C   UNL     1       3.906   6.079  17.628  0.00  0.00    +0.000 A 
ATOM     10  C   UNL     1       3.337   4.816  17.961  0.00  0.00    +0.000 A 
ATOM     11  C   UNL     1       2.322   4.580  18.924  0.00  0.00    +0.000 A 
ENDROOT
BRANCH   1  13
ATOM     12  C   UNL     1       1.346   2.850  21.493  0.00  0.00    +0.000 C 
ATOM     13  O   UNL     1       0.897   3.271  20.212  0.00  0.00    +0.000 OA
ENDBRANCH   1  13
BRANCH   9  14
ATOM     14  N   UNL     1       3.605   7.318  18.205  0.00  0.00    +0.000 N 
ATOM     15  H   UNL     1       4.443   7.808  18.511  0.00  0.00    +0.000 HD
BRANCH  14  16
ATOM     16  C   UNL     1       2.603   8.224  17.670  0.00  0.00    +0.000 C 
BRANCH  16  17
ATOM     17  C   UNL     1       1.675   8.676  18.767  0.00  0.00    +0.000 A 
ATOM     18  C   UNL     1       1.758   8.118  20.044  0.00  0.00    +0.000 A 
ATOM     19  C   UNL     1       0.899   8.560  21.041  0.00  0.00    +0.000 A 
ATOM     20  C   UNL     1      -0.038   9.562  20.767  0.00  0.00    +0.000 A 
ATOM     21  C   UNL     1      -0.151  10.161  19.501  0.00  0.00    +0.000 A 
ATOM     22  C   UNL     1       0.734   9.691  18.519  0.00  0.00    +0.000 A 
BRANCH  21  23
ATOM     23  N   UNL     1      -1.088  11.141  19.221  0.00  0.00    +0.000 N 
ATOM     24  C   UNL     1      -1.627  12.012  20.261  0.00  0.00    +0.000 C 
ATOM     25  C   UNL     1      -1.694  11.281  17.905  0.00  0.00    +0.000 C 
ENDBRANCH  21  23
ENDBRANCH  16  17
ENDBRANCH  14  16
ENDBRANCH   9  14
TORSDOF 5
ENDMDL
MODEL 4
REMARK VINA RESULT:      -7.6      2.717      5.436
REMARK  Name = 
REMARK  9 active torsions:
REMARK  status: ('A' for Active; 'I' for Inactive)
REMARK    1  A    between atoms: C_1  and  O_2
REMARK    2  A    between atoms: O_2  and  C_3
REMARK    3  A    between atoms: C_8  and  C_9
REMARK    4  A    between atoms: C_11  and  N_12
REMARK    5  A    between atoms: N_12  and  C_13
REMARK    6  A    between atoms: C_13  and  C_14
REMARK    7  A    between atoms: C_18  and  N_19
REMARK    8  A    between atoms: N_19  and  C_20
REMARK    9  A    between atoms: N_19  and  C_21
REMARK                            x       y       z     vdW  Elec       q    Type
REMARK                         _______ _______ _______ _____ _____    ______ ____
ROOT
ATOM      1  C   UNL     1       5.750   6.039  16.656  0.00  0.00    +0.000 A 
ATOM      2  C   UNL     1       5.678   4.807  16.034  0.00  0.00    +0.000 A 
ATOM      3  C   UNL     1       4.662   3.920  16.397  0.00  0.00    +0.000 A 
ATOM      4  C   UNL     1       3.704   4.232  17.353  0.00  0.00    +0.000 A 
ATOM      5  N   UNL     1       2.784   3.294  17.618  0.00  0.00    +0.000 NA
ATOM      6  C   UNL     1       1.849   3.553  18.552  0.00  0.00    +0.000 A 
ATOM      7  C   UNL     1       0.835   2.480  18.824  0.00  0.00    +0.000 C 
ATOM      8  C   UNL     1       1.797   4.757  19.233  0.00  0.00    +0.000 A 
ATOM      9  C   UNL     1       2.725   5.768  18.949  0.00  0.00    +0.000 A 
ATOM     10  C   UNL     1       3.748   5.492  17.996  0.00  0.00    +0.000 A 
ATOM     11  C   UNL     1       4.819   6.352  17.642  0.00  0.00    +0.000 A 
ENDROOT
BRANCH   1  13
ATOM     12  C   UNL     1       7.499   7.342  17.549  0.00  0.00    +0.000 C 
ATOM     13  O   UNL     1       6.694   7.002  16.429  0.00  0.00    +0.000 OA
ENDBRANCH   1  13
BRANCH   9  14
ATOM     14  N   UNL     1       2.556   6.944  19.688  0.00  0.00    +0.000 N 
ATOM     15  H   UNL     1       3.350   7.126  20.299  0.00  0.00    +0.000 HD
BRANCH  14  16
ATOM     16  C   UNL     1       2.002   8.164  19.130  0.00  0.00    +0.000 C 
BRANCH  16  17
ATOM     17  C   UNL     1       1.171   8.878  20.164  0.00  0.00    +0.000 A 
ATOM     18  C   UNL     1       1.153   8.438  21.489  0.00  0.00    +0.000 A 
ATOM     19  C   UNL     1       0.388   9.118  22.426  0.00  0.00    +0.000 A 
ATOM     20  C   UNL     1      -0.354  10.242  22.043  0.00  0.00    +0.000 A 
ATOM     21  C   UNL     1      -0.358  10.728  20.726  0.00  0.00    +0.000 A 
ATOM     22  C   UNL     1       0.427  10.016  19.806  0.00  0.00    +0.000 A 
BRANCH  21  23
ATOM     23  N   UNL     1      -1.104  11.829  20.340  0.00  0.00    +0.000 N 
ATOM     24  C   UNL     1      -2.011  11.784  19.197  0.00  0.00    +0.000 C 
ATOM     25  C   UNL     1      -0.938  13.135  20.962  0.00  0.00    +0.000 C 
ENDBRANCH  21  23
ENDBRANCH  16  17
ENDBRANCH  14  16
ENDBRANCH   9  14
TORSDOF 5
ENDMDL
MODEL 5
REMARK VINA RESULT:      -7.5      2.543      5.337
REMARK  Name = 
REMARK  9 active torsions:
REMARK  status: ('A' for Active; 'I' for Inactive)
REMARK    1  A    between atoms: C_1  and  O_2
REMARK    2  A    between atoms: O_2  and  C_3
REMARK    3  A    between atoms: C_8  and  C_9
REMARK    4  A    between atoms: C_11  and  N_12
REMARK    5  A    between atoms: N_12  and  C_13
REMARK    6  A    between atoms: C_13  and  C_14
REMARK    7  A    between atoms: C_18  and  N_19
REMARK    8  A    between atoms: N_19  and  C_20
REMARK    9  A    between atoms: N_19  and  C_21
REMARK                            x       y       z     vdW  Elec       q    Type
REMARK                         _______ _______ _______ _____ _____    ______ ____
ROOT
ATOM      1  C   UNL     1       5.964   5.751  16.616  0.00  0.00    +0.000 A 
ATOM      2  C   UNL     1       5.769   4.573  15.921  0.00  0.00    +0.000 A 
ATOM      3  C   UNL     1       4.695   3.749  16.266  0.00  0.00    +0.000 A 
ATOM      4  C   UNL     1       3.797   4.075  17.275  0.00  0.00    +0.000 A 
ATOM      5  N   UNL     1       2.811   3.200  17.515  0.00  0.00    +0.000 NA
ATOM      6  C   UNL     1       1.933   3.472  18.498  0.00  0.00    +0.000 A 
ATOM      7  C   UNL     1       0.841   2.469  18.740  0.00  0.00    +0.000 C 
ATOM      8  C   UNL     1       2.003   4.628  19.255  0.00  0.00    +0.000 A 
ATOM      9  C   UNL     1       3.003   5.577  19.000  0.00  0.00    +0.000 A 
ATOM     10  C   UNL     1       3.967   5.282  17.993  0.00  0.00    +0.000 A 
ATOM     11  C   UNL     1       5.095   6.074  17.654  0.00  0.00    +0.000 A 
ENDROOT
BRANCH   1  13
ATOM     12  C   UNL     1       7.450   7.305  17.582  0.00  0.00    +0.000 C 
ATOM     13  O   UNL     1       6.977   6.647  16.415  0.00  0.00    +0.000 OA
ENDBRANCH   1  13
BRANCH   9  14
ATOM     14  N   UNL     1       2.957   6.712  19.817  0.00  0.00    +0.000 N 
ATOM     15  H   UNL     1       3.394   7.518  19.374  0.00  0.00    +0.000 HD
BRANCH  14  16
ATOM     16  C   UNL     1       1.792   7.081  20.603  0.00  0.00    +0.000 C 
BRANCH  16  17
ATOM     17  C   UNL     1       1.287   8.435  20.175  0.00  0.00    +0.000 A 
ATOM     18  C   UNL     1       1.624   8.957  18.925  0.00  0.00    +0.000 A 
ATOM     19  C   UNL     1       1.136  10.201  18.549  0.00  0.00    +0.000 A 
ATOM     20  C   UNL     1       0.308  10.922  19.417  0.00  0.00    +0.000 A 
ATOM     21  C   UNL     1      -0.067  10.432  20.679  0.00  0.00    +0.000 A 
ATOM     22  C   UNL     1       0.443   9.172  21.025  0.00  0.00    +0.000 A 
BRANCH  21  23
ATOM     23  N   UNL     1      -0.872  11.149  21.547  0.00  0.00    +0.000 N 
ATOM     24  C   UNL     1      -0.997  10.792  22.957  0.00  0.00    +0.000 C 
ATOM     25  C   UNL     1      -1.747  12.220  21.089  0.00  0.00    +0.000 C 
ENDBRANCH  21  23
ENDBRANCH  16  17
ENDBRANCH  14  16
ENDBRANCH   9  14
TORSDOF 5
ENDMDL
MODEL 6
REMARK VINA RESULT:      -7.5      2.725      5.424
REMARK  Name = 
REMARK  9 active torsions:
REMARK  status: ('A' for Active; 'I' for Inactive)
REMARK    1  A    between atoms: C_1  and  O_2
REMARK    2  A    between atoms: O_2  and  C_3
REMARK    3  A    between atoms: C_8  and  C_9
REMARK    4  A    between atoms: C_11  and  N_12
REMARK    5  A    between atoms: N_12  and  C_13
REMARK    6  A    between atoms: C_13  and  C_14
REMARK    7  A    between atoms: C_18  and  N_19
REMARK    8  A    between atoms: N_19  and  C_20
REMARK    9  A    between atoms: N_19  and  C_21
REMARK                            x       y       z     vdW  Elec       q    Type
REMARK                         _______ _______ _______ _____ _____    ______ ____
ROOT
ATOM      1  C   UNL     1       5.602   6.305  16.753  0.00  0.00    +0.000 A 
ATOM      2  C   UNL     1       5.572   5.088  16.099  0.00  0.00    +0.000 A 
ATOM      3  C   UNL     1       4.589   4.156  16.442  0.00  0.00    +0.000 A 
ATOM      4  C   UNL     1       3.624   4.409  17.409  0.00  0.00    +0.000 A 
ATOM      5  N   UNL     1       2.739   3.432  17.651  0.00  0.00    +0.000 NA
ATOM      6  C   UNL     1       1.799   3.633  18.594  0.00  0.00    +0.000 A 
ATOM      7  C   UNL     1       0.825   2.517  18.841  0.00  0.00    +0.000 C 
ATOM      8  C   UNL     1       1.706   4.816  19.306  0.00  0.00    +0.000 A 
ATOM      9  C   UNL     1       2.596   5.867  19.045  0.00  0.00    +0.000 A 
ATOM     10  C   UNL     1       3.625   5.653  18.083  0.00  0.00    +0.000 A 
ATOM     11  C   UNL     1       4.663   6.560  17.748  0.00  0.00    +0.000 A 
ENDROOT
BRANCH   1  13
ATOM     12  C   UNL     1       7.526   7.419  17.535  0.00  0.00    +0.000 C 
ATOM     13  O   UNL     1       6.509   7.307  16.548  0.00  0.00    +0.000 OA
ENDBRANCH   1  13
BRANCH   9  14
ATOM     14  N   UNL     1       2.387   7.017  19.815  0.00  0.00    +0.000 N 
ATOM     15  H   UNL     1       2.290   7.849  19.237  0.00  0.00    +0.000 HD
BRANCH  14  16
ATOM     16  C   UNL     1       1.516   7.051  20.977  0.00  0.00    +0.000 C 
BRANCH  16  17
ATOM     17  C   UNL     1       0.902   8.418  21.124  0.00  0.00    +0.000 A 
ATOM     18  C   UNL     1       0.218   8.769  22.289  0.00  0.00    +0.000 A 
ATOM     19  C   UNL     1      -0.330  10.040  22.405  0.00  0.00    +0.000 A 
ATOM     20  C   UNL     1      -0.190  10.962  21.362  0.00  0.00    +0.000 A 
ATOM     21  C   UNL     1       0.499  10.658  20.176  0.00  0.00    +0.000 A 
ATOM     22  C   UNL     1       1.040   9.366  20.094  0.00  0.00    +0.000 A 
BRANCH  21  23
ATOM     23  N   UNL     1       0.625  11.562  19.135  0.00  0.00    +0.000 N 
ATOM     24  C   UNL     1      -0.534  12.223  18.544  0.00  0.00    +0.000 C 
ATOM     25  C   UNL     1       1.898  11.813  18.475  0.00  0.00    +0.000 C 
ENDBRANCH  21  23
ENDBRANCH  16  17
ENDBRANCH  14  16
ENDBRANCH   9  14
TORSDOF 5
ENDMDL
MODEL 7
REMARK VINA RESULT:      -7.5      2.951      5.809
REMARK  Name = 
REMARK  9 active torsions:
REMARK  status: ('A' for Active; 'I' for Inactive)
REMARK    1  A    between atoms: C_1  and  O_2
REMARK    2  A    between atoms: O_2  and  C_3
REMARK    3  A    between atoms: C_8  and  C_9
REMARK    4  A    between atoms: C_11  and  N_12
REMARK    5  A    between atoms: N_12  and  C_13
REMARK    6  A    between atoms: C_13  and  C_14
REMARK    7  A    between atoms: C_18  and  N_19
REMARK    8  A    between atoms: N_19  and  C_20
REMARK    9  A    between atoms: N_19  and  C_21
REMARK                            x       y       z     vdW  Elec       q    Type
REMARK                         _______ _______ _______ _____ _____    ______ ____
ROOT
ATOM      1  C   UNL     1       5.354   5.711  17.079  0.00  0.00    +0.000 A 
ATOM      2  C   UNL     1       5.420   4.332  17.017  0.00  0.00    +0.000 A 
ATOM      3  C   UNL     1       4.578   3.573  17.834  0.00  0.00    +0.000 A 
ATOM      4  C   UNL     1       3.658   4.151  18.700  0.00  0.00    +0.000 A 
ATOM      5  N   UNL     1       2.911   3.315  19.435  0.00  0.00    +0.000 NA
ATOM      6  C   UNL     1       2.021   3.838  20.299  0.00  0.00    +0.000 A 
ATOM      7  C   UNL     1       1.201   2.873  21.108  0.00  0.00    +0.000 C 
ATOM      8  C   UNL     1       1.840   5.203  20.441  0.00  0.00    +0.000 A 
ATOM      9  C   UNL     1       2.583   6.097  19.658  0.00  0.00    +0.000 A 
ATOM     10  C   UNL     1       3.561   5.560  18.772  0.00  0.00    +0.000 A 
ATOM     11  C   UNL     1       4.462   6.305  17.967  0.00  0.00    +0.000 A 
ENDROOT
BRANCH   1  13
ATOM     12  C   UNL     1       7.132   7.257  17.108  0.00  0.00    +0.000 C 
ATOM     13  O   UNL     1       6.123   6.587  16.365  0.00  0.00    +0.000 OA
ENDBRANCH   1  13
BRANCH   9  14
ATOM     14  N   UNL     1       2.295   7.448  19.879  0.00  0.00    +0.000 N 
ATOM     15  H   UNL     1       2.908   7.857  20.583  0.00  0.00    +0.000 HD
BRANCH  14  16
ATOM     16  C   UNL     1       1.985   8.383  18.812  0.00  0.00    +0.000 C 
BRANCH  16  17
ATOM     17  C   UNL     1       0.950   9.375  19.275  0.00  0.00    +0.000 A 
ATOM     18  C   UNL     1       0.277  10.182  18.357  0.00  0.00    +0.000 A 
ATOM     19  C   UNL     1      -0.680  11.081  18.808  0.00  0.00    +0.000 A 
ATOM     20  C   UNL     1      -0.971  11.169  20.174  0.00  0.00    +0.000 A 
ATOM     21  C   UNL     1      -0.328  10.369  21.134  0.00  0.00    +0.000 A 
ATOM     22  C   UNL     1       0.632   9.473  20.642  0.00  0.00    +0.000 A 
BRANCH  21  23
ATOM     23  N   UNL     1      -0.601  10.466  22.487  0.00  0.00    +0.000 N 
ATOM     24  C   UNL     1      -0.019   9.546  23.459  0.00  0.00    +0.000 C 
ATOM     25  C   UNL     1      -1.583  11.403  23.016  0.00  0.00    +0.000 C 
ENDBRANCH  21  23
ENDBRANCH  16  17
ENDBRANCH  14  16
ENDBRANCH   9  14
TORSDOF 5
ENDMDL
MODEL 8
REMARK VINA RESULT:      -7.4      2.676      7.536
REMARK  Name = 
REMARK  9 active torsions:
REMARK  status: ('A' for Active; 'I' for Inactive)
REMARK    1  A    between atoms: C_1  and  O_2
REMARK    2  A    between atoms: O_2  and  C_3
REMARK    3  A    between atoms: C_8  and  C_9
REMARK    4  A    between atoms: C_11  and  N_12
REMARK    5  A    between atoms: N_12  and  C_13
REMARK    6  A    between atoms: C_13  and  C_14
REMARK    7  A    between atoms: C_18  and  N_19
REMARK    8  A    between atoms: N_19  and  C_20
REMARK    9  A    between atoms: N_19  and  C_21
REMARK                            x       y       z     vdW  Elec       q    Type
REMARK                         _______ _______ _______ _____ _____    ______ ____
ROOT
ATOM      1  C   UNL     1       2.347   7.921  18.491  0.00  0.00    +0.000 A 
ATOM      2  C   UNL     1       1.850   7.507  19.712  0.00  0.00    +0.000 A 
ATOM      3  C   UNL     1       2.215   6.251  20.204  0.00  0.00    +0.000 A 
ATOM      4  C   UNL     1       3.077   5.402  19.521  0.00  0.00    +0.000 A 
ATOM      5  N   UNL     1       3.346   4.222  20.096  0.00  0.00    +0.000 NA
ATOM      6  C   UNL     1       4.162   3.365  19.455  0.00  0.00    +0.000 A 
ATOM      7  C   UNL     1       4.441   2.051  20.127  0.00  0.00    +0.000 C 
ATOM      8  C   UNL     1       4.744   3.667  18.237  0.00  0.00    +0.000 A 
ATOM      9  C   UNL     1       4.508   4.909  17.632  0.00  0.00    +0.000 A 
ATOM     10  C   UNL     1       3.610   5.809  18.276  0.00  0.00    +0.000 A 
ATOM     11  C   UNL     1       3.182   7.067  17.778  0.00  0.00    +0.000 A 
ENDROOT
BRANCH   1  13
ATOM     12  C   UNL     1       1.221   9.989  18.589  0.00  0.00    +0.000 C 
ATOM     13  O   UNL     1       2.066   9.104  17.867  0.00  0.00    +0.000 OA
ENDBRANCH   1  13
BRANCH   9  14
ATOM     14  N   UNL     1       5.168   5.103  16.413  0.00  0.00    +0.000 N 
ATOM     15  H   UNL     1       5.040   6.049  16.058  0.00  0.00    +0.000 HD
BRANCH  14  16
ATOM     16  C   UNL     1       6.496   4.587  16.135  0.00  0.00    +0.000 C 
BRANCH  16  17
ATOM     17  C   UNL     1       6.738   4.553  14.649  0.00  0.00    +0.000 A 
ATOM     18  C   UNL     1       7.722   5.356  14.070  0.00  0.00    +0.000 A 
ATOM     19  C   UNL     1       7.934   5.298  12.699  0.00  0.00    +0.000 A 
ATOM     20  C   UNL     1       7.169   4.434  11.907  0.00  0.00    +0.000 A 
ATOM     21  C   UNL     1       6.177   3.598  12.446  0.00  0.00    +0.000 A 
ATOM     22  C   UNL     1       5.991   3.683  13.834  0.00  0.00    +0.000 A 
BRANCH  21  23
ATOM     23  N   UNL     1       5.407   2.755  11.663  0.00  0.00    +0.000 N 
ATOM     24  C   UNL     1       4.058   3.114  11.240  0.00  0.00    +0.000 C 
ATOM     25  C   UNL     1       5.837   1.406  11.322  0.00  0.00    +0.000 C 
ENDBRANCH  21  23
ENDBRANCH  16  17
ENDBRANCH  14  16
ENDBRANCH   9  14
TORSDOF 5
ENDMDL
MODEL 9
REMARK VINA RESULT:      -7.4      2.783      5.778
REMARK  Name = 
REMARK  9 active torsions:
REMARK  status: ('A' for Active; 'I' for Inactive)
REMARK    1  A    between atoms: C_1  and  O_2
REMARK    2  A    between atoms: O_2  and  C_3
REMARK    3  A    between atoms: C_8  and  C_9
REMARK    4  A    between atoms: C_11  and  N_12
REMARK    5  A    between atoms: N_12  and  C_13
REMARK    6  A    between atoms: C_13  and  C_14
REMARK    7  A    between atoms: C_18  and  N_19
REMARK    8  A    between atoms: N_19  and  C_20
REMARK    9  A    between atoms: N_19  and  C_21
REMARK                            x       y       z     vdW  Elec       q    Type
REMARK                         _______ _______ _______ _____ _____    ______ ____
ROOT
ATOM      1  C   UNL     1       4.779   5.165  16.767  0.00  0.00    +0.000 A 
ATOM      2  C   UNL     1       4.773   3.783  16.776  0.00  0.00    +0.000 A 
ATOM      3  C   UNL     1       4.072   3.113  17.782  0.00  0.00    +0.000 A 
ATOM      4  C   UNL     1       3.362   3.782  18.771  0.00  0.00    +0.000 A 
ATOM      5  N   UNL     1       2.735   3.026  19.683  0.00  0.00    +0.000 NA
ATOM      6  C   UNL     1       2.052   3.639  20.668  0.00  0.00    +0.000 A 
ATOM      7  C   UNL     1       1.363   2.761  21.674  0.00  0.00    +0.000 C 
ATOM      8  C   UNL     1       1.961   5.016  20.760  0.00  0.00    +0.000 A 
ATOM      9  C   UNL     1       2.577   5.829  19.798  0.00  0.00    +0.000 A 
ATOM     10  C   UNL     1       3.342   5.196  18.776  0.00  0.00    +0.000 A 
ATOM     11  C   UNL     1       4.102   5.849  17.771  0.00  0.00    +0.000 A 
ENDROOT
BRANCH   1  13
ATOM     12  C   UNL     1       6.017   5.283  14.765  0.00  0.00    +0.000 C 
ATOM     13  O   UNL     1       5.433   5.961  15.869  0.00  0.00    +0.000 OA
ENDBRANCH   1  13
BRANCH   9  14
ATOM     14  N   UNL     1       2.396   7.203  19.989  0.00  0.00    +0.000 N 
ATOM     15  H   UNL     1       2.384   7.711  19.106  0.00  0.00    +0.000 HD
BRANCH  14  16
ATOM     16  C   UNL     1       1.464   7.758  20.954  0.00  0.00    +0.000 C 
BRANCH  16  17
ATOM     17  C   UNL     1       0.902   9.060  20.444  0.00  0.00    +0.000 A 
ATOM     18  C   UNL     1       1.235   9.527  19.172  0.00  0.00    +0.000 A 
ATOM     19  C   UNL     1       0.695  10.724  18.719  0.00  0.00    +0.000 A 
ATOM     20  C   UNL     1      -0.181  11.451  19.534  0.00  0.00    +0.000 A 
ATOM     21  C   UNL     1      -0.553  11.014  20.816  0.00  0.00    +0.000 A 
ATOM     22  C   UNL     1       0.010   9.801  21.239  0.00  0.00    +0.000 A 
BRANCH  21  23
ATOM     23  N   UNL     1      -1.406  11.739  21.631  0.00  0.00    +0.000 N 
ATOM     24  C   UNL     1      -1.436  11.550  23.078  0.00  0.00    +0.000 C 
ATOM     25  C   UNL     1      -2.417  12.637  21.091  0.00  0.00    +0.000 C 
ENDBRANCH  21  23
ENDBRANCH  16  17
ENDBRANCH  14  16
ENDBRANCH   9  14
TORSDOF 5
ENDMDL
