MODEL 1
REMARK VINA RESULT:      -6.1      0.000      0.000
REMARK  Name = 
REMARK  4 active torsions:
REMARK  status: ('A' for Active; 'I' for Inactive)
REMARK    1  A    between atoms: C_1  and  S_2
REMARK    2  A    between atoms: S_2  and  C_3
REMARK    3  A    between atoms: C_6  and  C_7
REMARK    4  A    between atoms: C_7  and  C_8
REMARK                            x       y       z     vdW  Elec       q    Type
REMARK                         _______ _______ _______ _____ _____    ______ ____
ROOT
ATOM      1  C   UNL     1       2.111   3.719  18.987  0.00  0.00    +0.000 A 
ATOM      2  C   UNL     1       3.084   2.878  18.444  0.00  0.00    +0.000 A 
ATOM      3  C   UNL     1       4.096   3.398  17.634  0.00  0.00    +0.000 A 
ATOM      4  C   UNL     1       4.149   4.770  17.355  0.00  0.00    +0.000 A 
ATOM      5  C   UNL     1       3.153   5.606  17.879  0.00  0.00    +0.000 A 
ATOM      6  C   UNL     1       2.138   5.083  18.684  0.00  0.00    +0.000 A 
ENDROOT
BRANCH   1   8
ATOM      7  C   UNL     1       1.826   2.549  21.450  0.00  0.00    +0.000 C 
ATOM      8  S   UNL     1       0.820   3.079  20.038  0.00  0.00    +0.000 S 
ENDBRANCH   1   8
BRANCH   4   9
ATOM      9  C   UNL     1       5.249   5.327  16.480  0.00  0.00    +0.000 C 
BRANCH   9  10
ATOM     10  C   UNL     1       6.335   6.052  17.242  0.00  0.00    +0.000 A 
ATOM     11  C   UNL     1       6.914   5.483  18.363  0.00  0.00    +0.000 A 
ATOM     12  C   UNL     1       7.899   6.216  18.984  0.00  0.00    +0.000 A 
ATOM     13  N   UNL     1       8.316   7.418  18.550  0.00  0.00    +0.000 NA
ATOM     14  C   UNL     1       7.697   7.882  17.454  0.00  0.00    +0.000 A 
ATOM     15  N   UNL     1       6.724   7.258  16.771  0.00  0.00    +0.000 NA
ENDBRANCH   9  10
ENDBRANCH   4   9
TORSDOF 3
ENDMDL
MODEL 2
REMARK VINA RESULT:      -6.1      0.191      1.258
REMARK  Name = 
REMARK  4 active torsions:
REMARK  status: ('A' for Active; 'I' for Inactive)
REMARK    1  A    between atoms: C_1  and  S_2
REMARK    2  A    between atoms: S_2  and  C_3
REMARK    3  A    between atoms: C_6  and  C_7
REMARK    4  A    between atoms: C_7  and  C_8
REMARK                            x       y       z     vdW  Elec       q    Type
REMARK                         _______ _______ _______ _____ _____    ______ ____
ROOT
ATOM      1  C   UNL     1       2.021   3.566  18.898  0.00  0.00    +0.000 A 
ATOM      2  C   UNL     1       2.012   4.918  18.547  0.00  0.00    +0.000 A 
ATOM      3  C   UNL     1       3.033   5.450  17.755  0.00  0.00    +0.000 A 
ATOM      4  C   UNL     1       4.079   4.635  17.302  0.00  0.00    +0.000 A 
ATOM      5  C   UNL     1       4.098   3.285  17.680  0.00  0.00    +0.000 A 
ATOM      6  C   UNL     1       3.080   2.757  18.478  0.00  0.00    +0.000 A 
ENDROOT
BRANCH   1   8
ATOM      7  C   UNL     1       1.622   2.662  21.455  0.00  0.00    +0.000 C 
ATOM      8  S   UNL     1       0.720   2.863  19.895  0.00  0.00    +0.000 S 
ENDBRANCH   1   8
BRANCH   4   9
ATOM      9  C   UNL     1       5.178   5.216  16.441  0.00  0.00    +0.000 C 
BRANCH   9  10
ATOM     10  C   UNL     1       6.263   5.922  17.221  0.00  0.00    +0.000 A 
ATOM     11  C   UNL     1       6.886   5.301  18.289  0.00  0.00    +0.000 A 
ATOM     12  C   UNL     1       7.867   6.022  18.930  0.00  0.00    +0.000 A 
ATOM     13  N   UNL     1       8.239   7.260  18.563  0.00  0.00    +0.000 NA
ATOM     14  C   UNL     1       7.580   7.773  17.513  0.00  0.00    +0.000 A 
ATOM     15  N   UNL     1       6.607   7.166  16.816  0.00  0.00    +0.000 NA
ENDBRANCH   9  10
ENDBRANCH   4   9
TORSDOF 3
ENDMDL
MODEL 3
REMARK VINA RESULT:      -6.1      2.542      3.639
REMARK  Name = 
REMARK  4 active torsions:
REMARK  status: ('A' for Active; 'I' for Inactive)
REMARK    1  A    between atoms: C_1  and  S_2
REMARK    2  A    between atoms: S_2  and  C_3
REMARK    3  A    between atoms: C_6  and  C_7
REMARK    4  A    between atoms: C_7  and  C_8
REMARK                            x       y       z     vdW  Elec       q    Type
REMARK                         _______ _______ _______ _____ _____    ______ ____
ROOT
ATOM      1  C   UNL     1       2.011   7.134  20.005  0.00  0.00    +0.000 A 
ATOM      2  C   UNL     1       1.988   5.830  20.503  0.00  0.00    +0.000 A 
ATOM      3  C   UNL     1       2.555   4.783  19.772  0.00  0.00    +0.000 A 
ATOM      4  C   UNL     1       3.156   5.028  18.530  0.00  0.00    +0.000 A 
ATOM      5  C   UNL     1       3.152   6.334  18.022  0.00  0.00    +0.000 A 
ATOM      6  C   UNL     1       2.577   7.378  18.751  0.00  0.00    +0.000 A 
ENDROOT
BRANCH   1   8
ATOM      7  C   UNL     1       0.927   9.612  19.559  0.00  0.00    +0.000 C 
ATOM      8  S   UNL     1       1.308   8.487  20.929  0.00  0.00    +0.000 S 
ENDBRANCH   1   8
BRANCH   4   9
ATOM      9  C   UNL     1       3.772   3.891  17.745  0.00  0.00    +0.000 C 
BRANCH   9  10
ATOM     10  C   UNL     1       5.179   4.165  17.266  0.00  0.00    +0.000 A 
ATOM     11  C   UNL     1       5.468   4.221  15.914  0.00  0.00    +0.000 A 
ATOM     12  C   UNL     1       6.776   4.484  15.578  0.00  0.00    +0.000 A 
ATOM     13  N   UNL     1       7.748   4.693  16.482  0.00  0.00    +0.000 NA
ATOM     14  C   UNL     1       7.367   4.622  17.766  0.00  0.00    +0.000 A 
ATOM     15  N   UNL     1       6.126   4.370  18.210  0.00  0.00    +0.000 NA
ENDBRANCH   9  10
ENDBRANCH   4   9
TORSDOF 3
ENDMDL
MODEL 4
REMARK VINA RESULT:      -6.0      2.451      3.682
REMARK  Name = 
REMARK  4 active torsions:
REMARK  status: ('A' for Active; 'I' for Inactive)
REMARK    1  A    between atoms: C_1  and  S_2
REMARK    2  A    between atoms: S_2  and  C_3
REMARK    3  A    between atoms: C_6  and  C_7
REMARK    4  A    between atoms: C_7  and  C_8
REMARK                            x       y       z     vdW  Elec       q    Type
REMARK                         _______ _______ _______ _____ _____    ______ ____
ROOT
ATOM      1  C   UNL     1       2.043   6.956  19.902  0.00  0.00    +0.000 A 
ATOM      2  C   UNL     1       2.571   7.310  18.658  0.00  0.00    +0.000 A 
ATOM      3  C   UNL     1       3.109   6.334  17.815  0.00  0.00    +0.000 A 
ATOM      4  C   UNL     1       3.127   4.989  18.206  0.00  0.00    +0.000 A 
ATOM      5  C   UNL     1       2.621   4.643  19.466  0.00  0.00    +0.000 A 
ATOM      6  C   UNL     1       2.090   5.621  20.311  0.00  0.00    +0.000 A 
ENDROOT
BRANCH   1   8
ATOM      7  C   UNL     1       1.014   9.494  19.776  0.00  0.00    +0.000 C 
ATOM      8  S   UNL     1       1.337   8.183  20.986  0.00  0.00    +0.000 S 
ENDBRANCH   1   8
BRANCH   4   9
ATOM      9  C   UNL     1       3.707   3.937  17.287  0.00  0.00    +0.000 C 
BRANCH   9  10
ATOM     10  C   UNL     1       5.100   4.251  16.793  0.00  0.00    +0.000 A 
ATOM     11  C   UNL     1       5.345   4.453  15.446  0.00  0.00    +0.000 A 
ATOM     12  C   UNL     1       6.644   4.741  15.096  0.00  0.00    +0.000 A 
ATOM     13  N   UNL     1       7.648   4.843  15.983  0.00  0.00    +0.000 NA
ATOM     14  C   UNL     1       7.308   4.635  17.264  0.00  0.00    +0.000 A 
ATOM     15  N   UNL     1       6.080   4.344  17.720  0.00  0.00    +0.000 NA
ENDBRANCH   9  10
ENDBRANCH   4   9
TORSDOF 3
ENDMDL
MODEL 5
REMARK VINA RESULT:      -6.0      3.866      6.006
REMARK  Name = 
REMARK  4 active torsions:
REMARK  status: ('A' for Active; 'I' for Inactive)
REMARK    1  A    between atoms: C_1  and  S_2
REMARK    2  A    between atoms: S_2  and  C_3
REMARK    3  A    between atoms: C_6  and  C_7
REMARK    4  A    between atoms: C_7  and  C_8
REMARK                            x       y       z     vdW  Elec       q    Type
REMARK                         _______ _______ _______ _____ _____    ______ ____
ROOT
ATOM      1  C   UNL     1       5.641   5.156  15.902  0.00  0.00    +0.000 A 
ATOM      2  C   UNL     1       5.208   6.467  16.116  0.00  0.00    +0.000 A 
ATOM      3  C   UNL     1       4.158   6.730  16.999  0.00  0.00    +0.000 A 
ATOM      4  C   UNL     1       3.524   5.683  17.682  0.00  0.00    +0.000 A 
ATOM      5  C   UNL     1       3.944   4.367  17.442  0.00  0.00    +0.000 A 
ATOM      6  C   UNL     1       4.989   4.105  16.552  0.00  0.00    +0.000 A 
ENDROOT
BRANCH   1   8
ATOM      7  C   UNL     1       6.102   3.809  13.560  0.00  0.00    +0.000 C 
ATOM      8  S   UNL     1       6.990   4.800  14.791  0.00  0.00    +0.000 S 
ENDBRANCH   1   8
BRANCH   4   9
ATOM      9  C   UNL     1       2.391   5.974  18.640  0.00  0.00    +0.000 C 
BRANCH   9  10
ATOM     10  C   UNL     1       2.020   4.809  19.528  0.00  0.00    +0.000 A 
ATOM     11  C   UNL     1       2.479   4.739  20.832  0.00  0.00    +0.000 A 
ATOM     12  C   UNL     1       2.081   3.645  21.564  0.00  0.00    +0.000 A 
ATOM     13  N   UNL     1       1.279   2.680  21.082  0.00  0.00    +0.000 NA
ATOM     14  C   UNL     1       0.884   2.840  19.810  0.00  0.00    +0.000 A 
ATOM     15  N   UNL     1       1.212   3.861  19.003  0.00  0.00    +0.000 NA
ENDBRANCH   9  10
ENDBRANCH   4   9
TORSDOF 3
ENDMDL
MODEL 6
REMARK VINA RESULT:      -5.9      1.030      1.422
REMARK  Name = 
REMARK  4 active torsions:
REMARK  status: ('A' for Active; 'I' for Inactive)
REMARK    1  A    between atoms: C_1  and  S_2
REMARK    2  A    between atoms: S_2  and  C_3
REMARK    3  A    between atoms: C_6  and  C_7
REMARK    4  A    between atoms: C_7  and  C_8
REMARK                            x       y       z     vdW  Elec       q    Type
REMARK                         _______ _______ _______ _____ _____    ______ ____
ROOT
ATOM      1  C   UNL     1       2.135   3.133  18.558  0.00  0.00    +0.000 A 
ATOM      2  C   UNL     1       3.112   2.193  18.220  0.00  0.00    +0.000 A 
ATOM      3  C   UNL     1       4.267   2.587  17.540  0.00  0.00    +0.000 A 
ATOM      4  C   UNL     1       4.462   3.929  17.188  0.00  0.00    +0.000 A 
ATOM      5  C   UNL     1       3.466   4.863  17.504  0.00  0.00    +0.000 A 
ATOM      6  C   UNL     1       2.308   4.466  18.178  0.00  0.00    +0.000 A 
ENDROOT
BRANCH   1   8
ATOM      7  C   UNL     1       1.262   2.844  21.139  0.00  0.00    +0.000 C 
ATOM      8  S   UNL     1       0.661   2.655  19.439  0.00  0.00    +0.000 S 
ENDBRANCH   1   8
BRANCH   4   9
ATOM      9  C   UNL     1       5.717   4.349  16.456  0.00  0.00    +0.000 C 
BRANCH   9  10
ATOM     10  C   UNL     1       6.596   5.300  17.235  0.00  0.00    +0.000 A 
ATOM     11  C   UNL     1       6.775   6.606  16.812  0.00  0.00    +0.000 A 
ATOM     12  C   UNL     1       7.586   7.397  17.592  0.00  0.00    +0.000 A 
ATOM     13  N   UNL     1       8.181   6.968  18.719  0.00  0.00    +0.000 NA
ATOM     14  C   UNL     1       7.942   5.690  19.047  0.00  0.00    +0.000 A 
ATOM     15  N   UNL     1       7.174   4.827  18.362  0.00  0.00    +0.000 NA
ENDBRANCH   9  10
ENDBRANCH   4   9
TORSDOF 3
ENDMDL
MODEL 7
REMARK VINA RESULT:      -5.9      3.626      5.875
REMARK  Name = 
REMARK  4 active torsions:
REMARK  status: ('A' for Active; 'I' for Inactive)
REMARK    1  A    between atoms: C_1  and  S_2
REMARK    2  A    between atoms: S_2  and  C_3
REMARK    3  A    between atoms: C_6  and  C_7
REMARK    4  A    between atoms: C_7  and  C_8
REMARK                            x       y       z     vdW  Elec       q    Type
REMARK                         _______ _______ _______ _____ _____    ______ ____
ROOT
ATOM      1  C   UNL     1       5.551   5.000  16.147  0.00  0.00    +0.000 A 
ATOM      2  C   UNL     1       4.710   3.914  16.400  0.00  0.00    +0.000 A 
ATOM      3  C   UNL     1       3.556   4.077  17.170  0.00  0.00    +0.000 A 
ATOM      4  C   UNL     1       3.226   5.332  17.699  0.00  0.00    +0.000 A 
ATOM      5  C   UNL     1       4.088   6.412  17.465  0.00  0.00    +0.000 A 
ATOM      6  C   UNL     1       5.246   6.246  16.701  0.00  0.00    +0.000 A 
ENDROOT
BRANCH   1   8
ATOM      7  C   UNL     1       6.315   3.912  13.750  0.00  0.00    +0.000 C 
ATOM      8  S   UNL     1       7.020   4.818  15.153  0.00  0.00    +0.000 S 
ENDBRANCH   1   8
BRANCH   4   9
ATOM      9  C   UNL     1       1.973   5.502  18.528  0.00  0.00    +0.000 C 
BRANCH   9  10
ATOM     10  C   UNL     1       1.862   4.535  19.683  0.00  0.00    +0.000 A 
ATOM     11  C   UNL     1       0.994   3.458  19.624  0.00  0.00    +0.000 A 
ATOM     12  C   UNL     1       0.971   2.629  20.722  0.00  0.00    +0.000 A 
ATOM     13  N   UNL     1       1.741   2.812  21.808  0.00  0.00    +0.000 NA
ATOM     14  C   UNL     1       2.551   3.880  21.767  0.00  0.00    +0.000 A 
ATOM     15  N   UNL     1       2.656   4.756  20.756  0.00  0.00    +0.000 NA
ENDBRANCH   9  10
ENDBRANCH   4   9
TORSDOF 3
ENDMDL
MODEL 8
REMARK VINA RESULT:      -5.9      0.899      1.804
REMARK  Name = 
REMARK  4 active torsions:
REMARK  status: ('A' for Active; 'I' for Inactive)
REMARK    1  A    between atoms: C_1  and  S_2
REMARK    2  A    between atoms: S_2  and  C_3
REMARK    3  A    between atoms: C_6  and  C_7
REMARK    4  A    between atoms: C_7  and  C_8
REMARK                            x       y       z     vdW  Elec       q    Type
REMARK                         _______ _______ _______ _____ _____    ______ ____
ROOT
ATOM      1  C   UNL     1       2.034   3.403  18.859  0.00  0.00    +0.000 A 
ATOM      2  C   UNL     1       2.321   4.754  18.658  0.00  0.00    +0.000 A 
ATOM      3  C   UNL     1       3.438   5.137  17.911  0.00  0.00    +0.000 A 
ATOM      4  C   UNL     1       4.285   4.170  17.352  0.00  0.00    +0.000 A 
ATOM      5  C   UNL     1       4.008   2.815  17.581  0.00  0.00    +0.000 A 
ATOM      6  C   UNL     1       2.894   2.435  18.335  0.00  0.00    +0.000 A 
ENDROOT
BRANCH   1   8
ATOM      7  C   UNL     1       1.367   2.738  21.433  0.00  0.00    +0.000 C 
ATOM      8  S   UNL     1       0.605   2.893  19.796  0.00  0.00    +0.000 S 
ENDBRANCH   1   8
BRANCH   4   9
ATOM      9  C   UNL     1       5.489   4.590  16.541  0.00  0.00    +0.000 C 
BRANCH   9  10
ATOM     10  C   UNL     1       6.465   5.466  17.293  0.00  0.00    +0.000 A 
ATOM     11  C   UNL     1       6.737   6.753  16.864  0.00  0.00    +0.000 A 
ATOM     12  C   UNL     1       7.632   7.474  17.620  0.00  0.00    +0.000 A 
ATOM     13  N   UNL     1       8.222   6.997  18.729  0.00  0.00    +0.000 NA
ATOM     14  C   UNL     1       7.889   5.742  19.065  0.00  0.00    +0.000 A 
ATOM     15  N   UNL     1       7.035   4.946  18.404  0.00  0.00    +0.000 NA
ENDBRANCH   9  10
ENDBRANCH   4   9
TORSDOF 3
ENDMDL
MODEL 9
REMARK VINA RESULT:      -5.8      3.760      5.937
REMARK  Name = 
REMARK  4 active torsions:
REMARK  status: ('A' for Active; 'I' for Inactive)
REMARK    1  A    between atoms: C_1  and  S_2
REMARK    2  A    between atoms: S_2  and  C_3
REMARK    3  A    between atoms: C_6  and  C_7
REMARK    4  A    between atoms: C_7  and  C_8
REMARK                            x       y       z     vdW  Elec       q    Type
REMARK                         _______ _______ _______ _____ _____    ______ ____
ROOT
ATOM      1  C   UNL     1       6.443   4.964  15.706  0.00  0.00    +0.000 A 
ATOM      2  C   UNL     1       7.083   4.552  16.877  0.00  0.00    +0.000 A 
ATOM      3  C   UNL     1       6.443   4.674  18.113  0.00  0.00    +0.000 A 
ATOM      4  C   UNL     1       5.152   5.212  18.196  0.00  0.00    +0.000 A 
ATOM      5  C   UNL     1       4.526   5.650  17.021  0.00  0.00    +0.000 A 
ATOM      6  C   UNL     1       5.170   5.534  15.786  0.00  0.00    +0.000 A 
ENDROOT
BRANCH   1   8
ATOM      7  C   UNL     1       6.040   3.706  13.305  0.00  0.00    +0.000 C 
ATOM      8  S   UNL     1       7.234   4.802  14.117  0.00  0.00    +0.000 S 
ENDBRANCH   1   8
BRANCH   4   9
ATOM      9  C   UNL     1       4.464   5.338  19.536  0.00  0.00    +0.000 C 
BRANCH   9  10
ATOM     10  C   UNL     1       3.257   4.442  19.696  0.00  0.00    +0.000 A 
ATOM     11  C   UNL     1       2.073   4.935  20.217  0.00  0.00    +0.000 A 
ATOM     12  C   UNL     1       1.029   4.044  20.315  0.00  0.00    +0.000 A 
ATOM     13  N   UNL     1       1.109   2.760  19.926  0.00  0.00    +0.000 NA
ATOM     14  C   UNL     1       2.296   2.380  19.430  0.00  0.00    +0.000 A 
ATOM     15  N   UNL     1       3.381   3.158  19.291  0.00  0.00    +0.000 NA
ENDBRANCH   9  10
ENDBRANCH   4   9
TORSDOF 3
ENDMDL
