MODEL 1
REMARK VINA RESULT:      -6.8      0.000      0.000
REMARK  Name = 
REMARK  11 active torsions:
REMARK  status: ('A' for Active; 'I' for Inactive)
REMARK    1  A    between atoms: C_1  and  C_2
REMARK    2  A    between atoms: C_2  and  O_3
REMARK    3  A    between atoms: O_3  and  C_4
REMARK    4  A    between atoms: C_4  and  C_6
REMARK    5  A    between atoms: C_6  and  C_7
REMARK    6  A    between atoms: N_8  and  C_9
REMARK    7  A    between atoms: C_12  and  C_13
REMARK    8  A    between atoms: C_21  and  O_22
REMARK    9  A    between atoms: C_21  and  O_23
REMARK   10  A    between atoms: O_23  and  C_24
REMARK   11  A    between atoms: C_24  and  C_25
REMARK                            x       y       z     vdW  Elec       q    Type
REMARK                         _______ _______ _______ _____ _____    ______ ____
ROOT
ATOM      1  C   UNL     1       2.804   6.066  18.038  0.00  0.00    +0.000 C 
ATOM      2  N   UNL     1       3.158   7.210  18.541  0.00  0.00    +0.000 NA
ENDROOT
BRANCH   2   3
ATOM      3  C   UNL     1       2.195   8.205  18.798  0.00  0.00    +0.000 A 
ATOM      4  C   UNL     1       1.706   9.105  17.849  0.00  0.00    +0.000 A 
ATOM      5  C   UNL     1       0.688  10.016  18.181  0.00  0.00    +0.000 A 
ATOM      6  C   UNL     1       0.108  10.045  19.463  0.00  0.00    +0.000 A 
ATOM      7  C   UNL     1       0.592   9.122  20.405  0.00  0.00    +0.000 A 
ATOM      8 CL   UNL     1      -0.067   8.961  22.000  0.00  0.00    +0.000 Cl
ATOM      9  C   UNL     1       1.622   8.225  20.072  0.00  0.00    +0.000 A 
BRANCH   6  10
ATOM     10  C   UNL     1      -0.963  11.008  19.741  0.00  0.00    +0.000 A 
ATOM     11  C   UNL     1      -1.224  11.934  20.735  0.00  0.00    +0.000 A 
ATOM     12  C   UNL     1      -2.471  12.532  20.429  0.00  0.00    +0.000 A 
ATOM     13  C   UNL     1      -2.891  11.955  19.258  0.00  0.00    +0.000 A 
ATOM     14  O   UNL     1      -1.985  11.040  18.828  0.00  0.00    +0.000 OA
ENDBRANCH   6  10
ENDBRANCH   2   3
BRANCH   1  15
ATOM     15  C   UNL     1       3.778   4.966  17.741  0.00  0.00    +0.000 C 
ATOM     16  C   UNL     1       4.737   5.136  16.806  0.00  0.00    +0.000 C 
BRANCH  15  17
ATOM     17  C   UNL     1       3.652   3.723  18.558  0.00  0.00    +0.000 C 
ATOM     18  O   UNL     1       4.500   3.373  19.368  0.00  0.00    +0.000 OA
BRANCH  17  19
ATOM     19  O   UNL     1       2.638   2.945  18.114  0.00  0.00    +0.000 OA
BRANCH  19  21
ATOM     20  C   UNL     1       0.942   3.092  19.838  0.00  0.00    +0.000 C 
ATOM     21  C   UNL     1       1.919   2.206  19.101  0.00  0.00    +0.000 C 
ENDBRANCH  19  21
ENDBRANCH  17  19
ENDBRANCH  15  17
BRANCH  16  22
ATOM     22  O   UNL     1       4.940   6.336  16.144  0.00  0.00    +0.000 OA
ATOM     23  H   UNL     1       5.895   6.559  16.202  0.00  0.00    +0.000 HD
ENDBRANCH  16  22
BRANCH  16  24
ATOM     24  O   UNL     1       5.541   4.075  16.433  0.00  0.00    +0.000 OA
BRANCH  24  25
ATOM     25  C   UNL     1       6.905   4.422  16.198  0.00  0.00    +0.000 C 
ATOM     26  C   UNL     1       7.577   4.566  17.556  0.00  0.00    +0.000 C 
ENDBRANCH  24  25
ENDBRANCH  16  24
ENDBRANCH   1  15
TORSDOF 9
ENDMDL
MODEL 2
REMARK VINA RESULT:      -6.7      1.361      1.703
REMARK  Name = 
REMARK  11 active torsions:
REMARK  status: ('A' for Active; 'I' for Inactive)
REMARK    1  A    between atoms: C_1  and  C_2
REMARK    2  A    between atoms: C_2  and  O_3
REMARK    3  A    between atoms: O_3  and  C_4
REMARK    4  A    between atoms: C_4  and  C_6
REMARK    5  A    between atoms: C_6  and  C_7
REMARK    6  A    between atoms: N_8  and  C_9
REMARK    7  A    between atoms: C_12  and  C_13
REMARK    8  A    between atoms: C_21  and  O_22
REMARK    9  A    between atoms: C_21  and  O_23
REMARK   10  A    between atoms: O_23  and  C_24
REMARK   11  A    between atoms: C_24  and  C_25
REMARK                            x       y       z     vdW  Elec       q    Type
REMARK                         _______ _______ _______ _____ _____    ______ ____
ROOT
ATOM      1  C   UNL     1       4.075   6.646  17.723  0.00  0.00    +0.000 C 
ATOM      2  N   UNL     1       2.908   6.583  18.290  0.00  0.00    +0.000 NA
ENDROOT
BRANCH   2   3
ATOM      3  C   UNL     1       2.244   7.760  18.688  0.00  0.00    +0.000 A 
ATOM      4  C   UNL     1       1.886   8.802  17.831  0.00  0.00    +0.000 A 
ATOM      5  C   UNL     1       1.157   9.906  18.307  0.00  0.00    +0.000 A 
ATOM      6  C   UNL     1       0.743   9.997  19.650  0.00  0.00    +0.000 A 
ATOM      7  C   UNL     1       1.091   8.935  20.500  0.00  0.00    +0.000 A 
ATOM      8 CL   UNL     1       0.589   8.843  22.156  0.00  0.00    +0.000 Cl
ATOM      9  C   UNL     1       1.834   7.841  20.021  0.00  0.00    +0.000 A 
BRANCH   6  10
ATOM     10  C   UNL     1      -0.030  11.167  20.081  0.00  0.00    +0.000 A 
ATOM     11  C   UNL     1      -1.369  11.513  20.099  0.00  0.00    +0.000 A 
ATOM     12  C   UNL     1      -1.452  12.828  20.620  0.00  0.00    +0.000 A 
ATOM     13  C   UNL     1      -0.165  13.202  20.911  0.00  0.00    +0.000 A 
ATOM     14  O   UNL     1       0.702  12.205  20.599  0.00  0.00    +0.000 OA
ENDBRANCH   6  10
ENDBRANCH   2   3
BRANCH   1  15
ATOM     15  C   UNL     1       4.835   5.435  17.276  0.00  0.00    +0.000 C 
ATOM     16  C   UNL     1       5.439   5.414  16.068  0.00  0.00    +0.000 C 
BRANCH  15  17
ATOM     17  C   UNL     1       4.922   4.304  18.247  0.00  0.00    +0.000 C 
ATOM     18  O   UNL     1       5.870   4.154  19.006  0.00  0.00    +0.000 OA
BRANCH  17  19
ATOM     19  O   UNL     1       3.970   3.375  18.002  0.00  0.00    +0.000 OA
BRANCH  19  21
ATOM     20  C   UNL     1       1.895   2.286  18.618  0.00  0.00    +0.000 C 
ATOM     21  C   UNL     1       3.126   3.020  19.097  0.00  0.00    +0.000 C 
ENDBRANCH  19  21
ENDBRANCH  17  19
ENDBRANCH  15  17
BRANCH  16  22
ATOM     22  O   UNL     1       5.473   6.511  15.223  0.00  0.00    +0.000 OA
ATOM     23  H   UNL     1       4.669   7.049  15.389  0.00  0.00    +0.000 HD
ENDBRANCH  16  22
BRANCH  16  24
ATOM     24  O   UNL     1       6.016   4.248  15.599  0.00  0.00    +0.000 OA
BRANCH  24  25
ATOM     25  C   UNL     1       6.702   4.388  14.355  0.00  0.00    +0.000 C 
ATOM     26  C   UNL     1       5.900   3.632  13.307  0.00  0.00    +0.000 C 
ENDBRANCH  24  25
ENDBRANCH  16  24
ENDBRANCH   1  15
TORSDOF 9
ENDMDL
MODEL 3
REMARK VINA RESULT:      -6.7      1.060      1.408
REMARK  Name = 
REMARK  11 active torsions:
REMARK  status: ('A' for Active; 'I' for Inactive)
REMARK    1  A    between atoms: C_1  and  C_2
REMARK    2  A    between atoms: C_2  and  O_3
REMARK    3  A    between atoms: O_3  and  C_4
REMARK    4  A    between atoms: C_4  and  C_6
REMARK    5  A    between atoms: C_6  and  C_7
REMARK    6  A    between atoms: N_8  and  C_9
REMARK    7  A    between atoms: C_12  and  C_13
REMARK    8  A    between atoms: C_21  and  O_22
REMARK    9  A    between atoms: C_21  and  O_23
REMARK   10  A    between atoms: O_23  and  C_24
REMARK   11  A    between atoms: C_24  and  C_25
REMARK                            x       y       z     vdW  Elec       q    Type
REMARK                         _______ _______ _______ _____ _____    ______ ____
ROOT
ATOM      1  C   UNL     1       3.773   6.662  17.591  0.00  0.00    +0.000 C 
ATOM      2  N   UNL     1       3.038   6.720  18.661  0.00  0.00    +0.000 NA
ENDROOT
BRANCH   2   3
ATOM      3  C   UNL     1       2.224   7.842  18.907  0.00  0.00    +0.000 A 
ATOM      4  C   UNL     1       1.819   8.761  17.937  0.00  0.00    +0.000 A 
ATOM      5  C   UNL     1       0.942   9.811  18.263  0.00  0.00    +0.000 A 
ATOM      6  C   UNL     1       0.423   9.966  19.563  0.00  0.00    +0.000 A 
ATOM      7  C   UNL     1       0.820   9.025  20.527  0.00  0.00    +0.000 A 
ATOM      8 CL   UNL     1       0.210   9.015  22.149  0.00  0.00    +0.000 Cl
ATOM      9  C   UNL     1       1.710   7.987  20.198  0.00  0.00    +0.000 A 
BRANCH   6  10
ATOM     10  C   UNL     1      -0.502  11.072  19.835  0.00  0.00    +0.000 A 
ATOM     11  C   UNL     1      -0.495  12.184  20.657  0.00  0.00    +0.000 A 
ATOM     12  C   UNL     1      -1.733  12.847  20.471  0.00  0.00    +0.000 A 
ATOM     13  C   UNL     1      -2.415  12.117  19.531  0.00  0.00    +0.000 A 
ATOM     14  O   UNL     1      -1.680  11.049  19.133  0.00  0.00    +0.000 OA
ENDBRANCH   6  10
ENDBRANCH   2   3
BRANCH   1  15
ATOM     15  C   UNL     1       4.661   5.499  17.269  0.00  0.00    +0.000 C 
ATOM     16  C   UNL     1       5.877   5.700  16.716  0.00  0.00    +0.000 C 
BRANCH  15  17
ATOM     17  C   UNL     1       4.150   4.145  17.636  0.00  0.00    +0.000 C 
ATOM     18  O   UNL     1       3.308   3.553  16.975  0.00  0.00    +0.000 OA
BRANCH  17  19
ATOM     19  O   UNL     1       4.546   3.794  18.881  0.00  0.00    +0.000 OA
BRANCH  19  21
ATOM     20  C   UNL     1       2.745   3.608  20.492  0.00  0.00    +0.000 C 
ATOM     21  C   UNL     1       3.707   2.877  19.584  0.00  0.00    +0.000 C 
ENDBRANCH  19  21
ENDBRANCH  17  19
ENDBRANCH  15  17
BRANCH  16  22
ATOM     22  O   UNL     1       6.408   6.961  16.500  0.00  0.00    +0.000 OA
ATOM     23  H   UNL     1       6.727   7.002  15.572  0.00  0.00    +0.000 HD
ENDBRANCH  16  22
BRANCH  16  24
ATOM     24  O   UNL     1       6.633   4.624  16.289  0.00  0.00    +0.000 OA
BRANCH  24  25
ATOM     25  C   UNL     1       7.026   4.686  14.918  0.00  0.00    +0.000 C 
ATOM     26  C   UNL     1       5.910   4.055  14.098  0.00  0.00    +0.000 C 
ENDBRANCH  24  25
ENDBRANCH  16  24
ENDBRANCH   1  15
TORSDOF 9
ENDMDL
MODEL 4
REMARK VINA RESULT:      -6.7      1.008      1.262
REMARK  Name = 
REMARK  11 active torsions:
REMARK  status: ('A' for Active; 'I' for Inactive)
REMARK    1  A    between atoms: C_1  and  C_2
REMARK    2  A    between atoms: C_2  and  O_3
REMARK    3  A    between atoms: O_3  and  C_4
REMARK    4  A    between atoms: C_4  and  C_6
REMARK    5  A    between atoms: C_6  and  C_7
REMARK    6  A    between atoms: N_8  and  C_9
REMARK    7  A    between atoms: C_12  and  C_13
REMARK    8  A    between atoms: C_21  and  O_22
REMARK    9  A    between atoms: C_21  and  O_23
REMARK   10  A    between atoms: O_23  and  C_24
REMARK   11  A    between atoms: C_24  and  C_25
REMARK                            x       y       z     vdW  Elec       q    Type
REMARK                         _______ _______ _______ _____ _____    ______ ____
ROOT
ATOM      1  C   UNL     1       3.671   6.425  17.471  0.00  0.00    +0.000 C 
ATOM      2  N   UNL     1       3.233   6.676  18.668  0.00  0.00    +0.000 NA
ENDROOT
BRANCH   2   3
ATOM      3  C   UNL     1       2.364   7.760  18.896  0.00  0.00    +0.000 A 
ATOM      4  C   UNL     1       1.930   8.654  17.916  0.00  0.00    +0.000 A 
ATOM      5  C   UNL     1       1.000   9.664  18.224  0.00  0.00    +0.000 A 
ATOM      6  C   UNL     1       0.457   9.801  19.516  0.00  0.00    +0.000 A 
ATOM      7  C   UNL     1       0.884   8.884  20.490  0.00  0.00    +0.000 A 
ATOM      8 CL   UNL     1       0.253   8.855  22.104  0.00  0.00    +0.000 Cl
ATOM      9  C   UNL     1       1.826   7.888  20.180  0.00  0.00    +0.000 A 
BRANCH   6  10
ATOM     10  C   UNL     1      -0.522  10.864  19.769  0.00  0.00    +0.000 A 
ATOM     11  C   UNL     1      -0.657  11.880  20.697  0.00  0.00    +0.000 A 
ATOM     12  C   UNL     1      -1.871  12.550  20.408  0.00  0.00    +0.000 A 
ATOM     13  C   UNL     1      -2.397  11.922  19.308  0.00  0.00    +0.000 A 
ATOM     14  O   UNL     1      -1.588  10.908  18.908  0.00  0.00    +0.000 OA
ENDBRANCH   6  10
ENDBRANCH   2   3
BRANCH   1  15
ATOM     15  C   UNL     1       4.598   5.290  17.159  0.00  0.00    +0.000 C 
ATOM     16  C   UNL     1       5.480   5.387  16.141  0.00  0.00    +0.000 C 
BRANCH  15  17
ATOM     17  C   UNL     1       4.519   4.097  18.054  0.00  0.00    +0.000 C 
ATOM     18  O   UNL     1       5.234   3.958  19.037  0.00  0.00    +0.000 OA
BRANCH  17  19
ATOM     19  O   UNL     1       3.757   3.123  17.505  0.00  0.00    +0.000 OA
BRANCH  19  21
ATOM     20  C   UNL     1       1.985   2.464  19.021  0.00  0.00    +0.000 C 
ATOM     21  C   UNL     1       2.352   3.195  17.751  0.00  0.00    +0.000 C 
ENDBRANCH  19  21
ENDBRANCH  17  19
ENDBRANCH  15  17
BRANCH  16  22
ATOM     22  O   UNL     1       5.648   6.542  15.396  0.00  0.00    +0.000 OA
ATOM     23  H   UNL     1       6.236   7.147  15.900  0.00  0.00    +0.000 HD
ENDBRANCH  16  22
BRANCH  16  24
ATOM     24  O   UNL     1       6.231   4.289  15.765  0.00  0.00    +0.000 OA
BRANCH  24  25
ATOM     25  C   UNL     1       6.922   4.443  14.525  0.00  0.00    +0.000 C 
ATOM     26  C   UNL     1       6.092   3.750  13.455  0.00  0.00    +0.000 C 
ENDBRANCH  24  25
ENDBRANCH  16  24
ENDBRANCH   1  15
TORSDOF 9
ENDMDL
MODEL 5
REMARK VINA RESULT:      -6.7      1.797      2.713
REMARK  Name = 
REMARK  11 active torsions:
REMARK  status: ('A' for Active; 'I' for Inactive)
REMARK    1  A    between atoms: C_1  and  C_2
REMARK    2  A    between atoms: C_2  and  O_3
REMARK    3  A    between atoms: O_3  and  C_4
REMARK    4  A    between atoms: C_4  and  C_6
REMARK    5  A    between atoms: C_6  and  C_7
REMARK    6  A    between atoms: N_8  and  C_9
REMARK    7  A    between atoms: C_12  and  C_13
REMARK    8  A    between atoms: C_21  and  O_22
REMARK    9  A    between atoms: C_21  and  O_23
REMARK   10  A    between atoms: O_23  and  C_24
REMARK   11  A    between atoms: C_24  and  C_25
REMARK                            x       y       z     vdW  Elec       q    Type
REMARK                         _______ _______ _______ _____ _____    ______ ____
ROOT
ATOM      1  C   UNL     1       4.011   6.971  17.617  0.00  0.00    +0.000 C 
ATOM      2  N   UNL     1       3.083   6.867  18.521  0.00  0.00    +0.000 NA
ENDROOT
BRANCH   2   3
ATOM      3  C   UNL     1       2.241   7.959  18.806  0.00  0.00    +0.000 A 
ATOM      4  C   UNL     1       1.817   8.905  17.871  0.00  0.00    +0.000 A 
ATOM      5  C   UNL     1       0.913   9.919  18.233  0.00  0.00    +0.000 A 
ATOM      6  C   UNL     1       0.386  10.011  19.535  0.00  0.00    +0.000 A 
ATOM      7  C   UNL     1       0.803   9.044  20.464  0.00  0.00    +0.000 A 
ATOM      8 CL   UNL     1       0.188   8.957  22.082  0.00  0.00    +0.000 Cl
ATOM      9  C   UNL     1       1.719   8.042  20.099  0.00  0.00    +0.000 A 
BRANCH   6  10
ATOM     10  C   UNL     1      -0.566  11.083  19.845  0.00  0.00    +0.000 A 
ATOM     11  C   UNL     1      -1.830  11.438  19.409  0.00  0.00    +0.000 A 
ATOM     12  C   UNL     1      -2.189  12.624  20.095  0.00  0.00    +0.000 A 
ATOM     13  C   UNL     1      -1.138  12.915  20.925  0.00  0.00    +0.000 A 
ATOM     14  O   UNL     1      -0.155  11.988  20.791  0.00  0.00    +0.000 OA
ENDBRANCH   6  10
ENDBRANCH   2   3
BRANCH   1  15
ATOM     15  C   UNL     1       4.941   5.850  17.265  0.00  0.00    +0.000 C 
ATOM     16  C   UNL     1       5.435   5.739  16.014  0.00  0.00    +0.000 C 
BRANCH  15  17
ATOM     17  C   UNL     1       5.314   4.919  18.371  0.00  0.00    +0.000 C 
ATOM     18  O   UNL     1       4.765   3.840  18.543  0.00  0.00    +0.000 OA
BRANCH  17  19
ATOM     19  O   UNL     1       6.134   5.522  19.263  0.00  0.00    +0.000 OA
BRANCH  19  21
ATOM     20  C   UNL     1       8.025   6.867  18.566  0.00  0.00    +0.000 C 
ATOM     21  C   UNL     1       7.530   5.497  18.968  0.00  0.00    +0.000 C 
ENDBRANCH  19  21
ENDBRANCH  17  19
ENDBRANCH  15  17
BRANCH  16  22
ATOM     22  O   UNL     1       5.198   6.677  15.023  0.00  0.00    +0.000 OA
ATOM     23  H   UNL     1       5.968   6.679  14.414  0.00  0.00    +0.000 HD
ENDBRANCH  16  22
BRANCH  16  24
ATOM     24  O   UNL     1       6.176   4.628  15.654  0.00  0.00    +0.000 OA
BRANCH  24  25
ATOM     25  C   UNL     1       6.829   4.738  14.390  0.00  0.00    +0.000 C 
ATOM     26  C   UNL     1       6.150   3.762  13.441  0.00  0.00    +0.000 C 
ENDBRANCH  24  25
ENDBRANCH  16  24
ENDBRANCH   1  15
TORSDOF 9
ENDMDL
MODEL 6
REMARK VINA RESULT:      -6.6      1.248      1.662
REMARK  Name = 
REMARK  11 active torsions:
REMARK  status: ('A' for Active; 'I' for Inactive)
REMARK    1  A    between atoms: C_1  and  C_2
REMARK    2  A    between atoms: C_2  and  O_3
REMARK    3  A    between atoms: O_3  and  C_4
REMARK    4  A    between atoms: C_4  and  C_6
REMARK    5  A    between atoms: C_6  and  C_7
REMARK    6  A    between atoms: N_8  and  C_9
REMARK    7  A    between atoms: C_12  and  C_13
REMARK    8  A    between atoms: C_21  and  O_22
REMARK    9  A    between atoms: C_21  and  O_23
REMARK   10  A    between atoms: O_23  and  C_24
REMARK   11  A    between atoms: C_24  and  C_25
REMARK                            x       y       z     vdW  Elec       q    Type
REMARK                         _______ _______ _______ _____ _____    ______ ____
ROOT
ATOM      1  C   UNL     1       2.828   5.988  18.445  0.00  0.00    +0.000 C 
ATOM      2  N   UNL     1       2.876   7.181  17.931  0.00  0.00    +0.000 NA
ENDROOT
BRANCH   2   3
ATOM      3  C   UNL     1       2.190   8.248  18.541  0.00  0.00    +0.000 A 
ATOM      4  C   UNL     1       1.793   9.417  17.888  0.00  0.00    +0.000 A 
ATOM      5  C   UNL     1       1.044  10.398  18.563  0.00  0.00    +0.000 A 
ATOM      6  C   UNL     1       0.650  10.236  19.904  0.00  0.00    +0.000 A 
ATOM      7  C   UNL     1       1.037   9.049  20.547  0.00  0.00    +0.000 A 
ATOM      8 CL   UNL     1       0.564   8.649  22.165  0.00  0.00    +0.000 Cl
ATOM      9  C   UNL     1       1.799   8.079  19.871  0.00  0.00    +0.000 A 
BRANCH   6  10
ATOM     10  C   UNL     1      -0.145  11.289  20.546  0.00  0.00    +0.000 A 
ATOM     11  C   UNL     1      -1.407  11.824  20.362  0.00  0.00    +0.000 A 
ATOM     12  C   UNL     1      -1.561  12.864  21.312  0.00  0.00    +0.000 A 
ATOM     13  C   UNL     1      -0.397  12.889  22.037  0.00  0.00    +0.000 A 
ATOM     14  O   UNL     1       0.462  11.938  21.591  0.00  0.00    +0.000 OA
ENDBRANCH   6  10
ENDBRANCH   2   3
BRANCH   1  15
ATOM     15  C   UNL     1       3.534   4.809  17.847  0.00  0.00    +0.000 C 
ATOM     16  C   UNL     1       4.809   4.922  17.417  0.00  0.00    +0.000 C 
BRANCH  15  17
ATOM     17  C   UNL     1       2.773   3.525  17.806  0.00  0.00    +0.000 C 
ATOM     18  O   UNL     1       1.753   3.380  17.146  0.00  0.00    +0.000 OA
BRANCH  17  19
ATOM     19  O   UNL     1       3.212   2.666  18.755  0.00  0.00    +0.000 OA
BRANCH  19  21
ATOM     20  C   UNL     1       1.497   2.704  20.466  0.00  0.00    +0.000 C 
ATOM     21  C   UNL     1       2.933   3.014  20.111  0.00  0.00    +0.000 C 
ENDBRANCH  19  21
ENDBRANCH  17  19
ENDBRANCH  15  17
BRANCH  16  22
ATOM     22  O   UNL     1       5.560   6.074  17.578  0.00  0.00    +0.000 OA
ATOM     23  H   UNL     1       6.198   6.129  16.833  0.00  0.00    +0.000 HD
ENDBRANCH  16  22
BRANCH  16  24
ATOM     24  O   UNL     1       5.408   3.877  16.738  0.00  0.00    +0.000 OA
BRANCH  24  25
ATOM     25  C   UNL     1       6.488   4.268  15.890  0.00  0.00    +0.000 C 
ATOM     26  C   UNL     1       6.059   3.998  14.455  0.00  0.00    +0.000 C 
ENDBRANCH  24  25
ENDBRANCH  16  24
ENDBRANCH   1  15
TORSDOF 9
ENDMDL
MODEL 7
REMARK VINA RESULT:      -6.6      1.912      2.370
REMARK  Name = 
REMARK  11 active torsions:
REMARK  status: ('A' for Active; 'I' for Inactive)
REMARK    1  A    between atoms: C_1  and  C_2
REMARK    2  A    between atoms: C_2  and  O_3
REMARK    3  A    between atoms: O_3  and  C_4
REMARK    4  A    between atoms: C_4  and  C_6
REMARK    5  A    between atoms: C_6  and  C_7
REMARK    6  A    between atoms: N_8  and  C_9
REMARK    7  A    between atoms: C_12  and  C_13
REMARK    8  A    between atoms: C_21  and  O_22
REMARK    9  A    between atoms: C_21  and  O_23
REMARK   10  A    between atoms: O_23  and  C_24
REMARK   11  A    between atoms: C_24  and  C_25
REMARK                            x       y       z     vdW  Elec       q    Type
REMARK                         _______ _______ _______ _____ _____    ______ ____
ROOT
ATOM      1  C   UNL     1       2.436   6.237  18.785  0.00  0.00    +0.000 C 
ATOM      2  N   UNL     1       2.374   7.501  18.490  0.00  0.00    +0.000 NA
ENDROOT
BRANCH   2   3
ATOM      3  C   UNL     1       1.688   8.397  19.331  0.00  0.00    +0.000 A 
ATOM      4  C   UNL     1       1.546   8.245  20.712  0.00  0.00    +0.000 A 
ATOM      5  C   UNL     1       0.907   9.232  21.482  0.00  0.00    +0.000 A 
ATOM      6  C   UNL     1       0.405  10.414  20.903  0.00  0.00    +0.000 A 
ATOM      7  C   UNL     1       0.570  10.567  19.517  0.00  0.00    +0.000 A 
ATOM      8 CL   UNL     1       0.091  11.994  18.658  0.00  0.00    +0.000 Cl
ATOM      9  C   UNL     1       1.196   9.569  18.751  0.00  0.00    +0.000 A 
BRANCH   6  10
ATOM     10  C   UNL     1      -0.237  11.413  21.764  0.00  0.00    +0.000 A 
ATOM     11  C   UNL     1      -1.253  11.401  22.702  0.00  0.00    +0.000 A 
ATOM     12  C   UNL     1      -1.417  12.733  23.156  0.00  0.00    +0.000 A 
ATOM     13  C   UNL     1      -0.480  13.478  22.488  0.00  0.00    +0.000 A 
ATOM     14  O   UNL     1       0.245  12.692  21.651  0.00  0.00    +0.000 OA
ENDBRANCH   6  10
ENDBRANCH   2   3
BRANCH   1  15
ATOM     15  C   UNL     1       3.149   5.230  17.934  0.00  0.00    +0.000 C 
ATOM     16  C   UNL     1       4.249   5.583  17.235  0.00  0.00    +0.000 C 
BRANCH  15  17
ATOM     17  C   UNL     1       2.609   3.839  17.950  0.00  0.00    +0.000 C 
ATOM     18  O   UNL     1       1.676   3.482  17.242  0.00  0.00    +0.000 OA
BRANCH  17  19
ATOM     19  O   UNL     1       3.107   3.132  18.989  0.00  0.00    +0.000 OA
BRANCH  19  21
ATOM     20  C   UNL     1       1.549   3.190  20.844  0.00  0.00    +0.000 C 
ATOM     21  C   UNL     1       2.173   2.361  19.746  0.00  0.00    +0.000 C 
ENDBRANCH  19  21
ENDBRANCH  17  19
ENDBRANCH  15  17
BRANCH  16  22
ATOM     22  O   UNL     1       4.830   6.838  17.325  0.00  0.00    +0.000 OA
ATOM     23  H   UNL     1       5.700   6.804  16.870  0.00  0.00    +0.000 HD
ENDBRANCH  16  22
BRANCH  16  24
ATOM     24  O   UNL     1       4.820   4.695  16.342  0.00  0.00    +0.000 OA
BRANCH  24  25
ATOM     25  C   UNL     1       5.632   5.307  15.339  0.00  0.00    +0.000 C 
ATOM     26  C   UNL     1       5.975   4.234  14.317  0.00  0.00    +0.000 C 
ENDBRANCH  24  25
ENDBRANCH  16  24
ENDBRANCH   1  15
TORSDOF 9
ENDMDL
MODEL 8
REMARK VINA RESULT:      -6.5      1.502      1.983
REMARK  Name = 
REMARK  11 active torsions:
REMARK  status: ('A' for Active; 'I' for Inactive)
REMARK    1  A    between atoms: C_1  and  C_2
REMARK    2  A    between atoms: C_2  and  O_3
REMARK    3  A    between atoms: O_3  and  C_4
REMARK    4  A    between atoms: C_4  and  C_6
REMARK    5  A    between atoms: C_6  and  C_7
REMARK    6  A    between atoms: N_8  and  C_9
REMARK    7  A    between atoms: C_12  and  C_13
REMARK    8  A    between atoms: C_21  and  O_22
REMARK    9  A    between atoms: C_21  and  O_23
REMARK   10  A    between atoms: O_23  and  C_24
REMARK   11  A    between atoms: C_24  and  C_25
REMARK                            x       y       z     vdW  Elec       q    Type
REMARK                         _______ _______ _______ _____ _____    ______ ____
ROOT
ATOM      1  C   UNL     1       3.861   6.217  18.210  0.00  0.00    +0.000 C 
ATOM      2  N   UNL     1       3.083   6.078  19.241  0.00  0.00    +0.000 NA
ENDROOT
BRANCH   2   3
ATOM      3  C   UNL     1       2.226   7.123  19.635  0.00  0.00    +0.000 A 
ATOM      4  C   UNL     1       1.520   7.165  20.838  0.00  0.00    +0.000 A 
ATOM      5  C   UNL     1       0.745   8.288  21.179  0.00  0.00    +0.000 A 
ATOM      6  C   UNL     1       0.666   9.415  20.339  0.00  0.00    +0.000 A 
ATOM      7  C   UNL     1       1.395   9.372  19.139  0.00  0.00    +0.000 A 
ATOM      8 CL   UNL     1       1.479  10.703  18.033  0.00  0.00    +0.000 Cl
ATOM      9  C   UNL     1       2.155   8.240  18.798  0.00  0.00    +0.000 A 
BRANCH   6  10
ATOM     10  C   UNL     1      -0.146  10.562  20.759  0.00  0.00    +0.000 A 
ATOM     11  C   UNL     1      -0.180  11.398  21.860  0.00  0.00    +0.000 A 
ATOM     12  C   UNL     1      -1.250  12.305  21.664  0.00  0.00    +0.000 A 
ATOM     13  C   UNL     1      -1.796  11.987  20.446  0.00  0.00    +0.000 A 
ATOM     14  O   UNL     1      -1.133  10.944  19.886  0.00  0.00    +0.000 OA
ENDBRANCH   6  10
ENDBRANCH   2   3
BRANCH   1  15
ATOM     15  C   UNL     1       4.796   5.145  17.738  0.00  0.00    +0.000 C 
ATOM     16  C   UNL     1       5.754   5.426  16.829  0.00  0.00    +0.000 C 
BRANCH  15  17
ATOM     17  C   UNL     1       4.636   3.797  18.360  0.00  0.00    +0.000 C 
ATOM     18  O   UNL     1       5.312   3.421  19.308  0.00  0.00    +0.000 OA
BRANCH  17  19
ATOM     19  O   UNL     1       3.852   2.998  17.601  0.00  0.00    +0.000 OA
BRANCH  19  21
ATOM     20  C   UNL     1       1.655   2.412  18.437  0.00  0.00    +0.000 C 
ATOM     21  C   UNL     1       3.100   1.999  18.290  0.00  0.00    +0.000 C 
ENDBRANCH  19  21
ENDBRANCH  17  19
ENDBRANCH  15  17
BRANCH  16  22
ATOM     22  O   UNL     1       5.991   6.705  16.353  0.00  0.00    +0.000 OA
ATOM     23  H   UNL     1       6.945   6.903  16.472  0.00  0.00    +0.000 HD
ENDBRANCH  16  22
BRANCH  16  24
ATOM     24  O   UNL     1       6.520   4.409  16.290  0.00  0.00    +0.000 OA
BRANCH  24  25
ATOM     25  C   UNL     1       6.997   4.666  14.969  0.00  0.00    +0.000 C 
ATOM     26  C   UNL     1       6.062   3.954  14.003  0.00  0.00    +0.000 C 
ENDBRANCH  24  25
ENDBRANCH  16  24
ENDBRANCH   1  15
TORSDOF 9
ENDMDL
MODEL 9
REMARK VINA RESULT:      -6.5      1.114      2.783
REMARK  Name = 
REMARK  11 active torsions:
REMARK  status: ('A' for Active; 'I' for Inactive)
REMARK    1  A    between atoms: C_1  and  C_2
REMARK    2  A    between atoms: C_2  and  O_3
REMARK    3  A    between atoms: O_3  and  C_4
REMARK    4  A    between atoms: C_4  and  C_6
REMARK    5  A    between atoms: C_6  and  C_7
REMARK    6  A    between atoms: N_8  and  C_9
REMARK    7  A    between atoms: C_12  and  C_13
REMARK    8  A    between atoms: C_21  and  O_22
REMARK    9  A    between atoms: C_21  and  O_23
REMARK   10  A    between atoms: O_23  and  C_24
REMARK   11  A    between atoms: C_24  and  C_25
REMARK                            x       y       z     vdW  Elec       q    Type
REMARK                         _______ _______ _______ _____ _____    ______ ____
ROOT
ATOM      1  C   UNL     1       2.695   6.050  18.149  0.00  0.00    +0.000 C 
ATOM      2  N   UNL     1       2.903   6.926  19.086  0.00  0.00    +0.000 NA
ENDROOT
BRANCH   2   3
ATOM      3  C   UNL     1       2.036   8.026  19.238  0.00  0.00    +0.000 A 
ATOM      4  C   UNL     1       1.683   8.909  18.217  0.00  0.00    +0.000 A 
ATOM      5  C   UNL     1       0.750   9.936  18.446  0.00  0.00    +0.000 A 
ATOM      6  C   UNL     1       0.123  10.102  19.696  0.00  0.00    +0.000 A 
ATOM      7  C   UNL     1       0.470   9.197  20.711  0.00  0.00    +0.000 A 
ATOM      8 CL   UNL     1      -0.267   9.203  22.279  0.00  0.00    +0.000 Cl
ATOM      9  C   UNL     1       1.416   8.182  20.480  0.00  0.00    +0.000 A 
BRANCH   6  10
ATOM     10  C   UNL     1      -0.854  11.183  19.866  0.00  0.00    +0.000 A 
ATOM     11  C   UNL     1      -0.941  12.321  20.647  0.00  0.00    +0.000 A 
ATOM     12  C   UNL     1      -2.185  12.933  20.355  0.00  0.00    +0.000 A 
ATOM     13  C   UNL     1      -2.776  12.150  19.397  0.00  0.00    +0.000 A 
ATOM     14  O   UNL     1      -1.979  11.095  19.087  0.00  0.00    +0.000 OA
ENDBRANCH   6  10
ENDBRANCH   2   3
BRANCH   1  15
ATOM     15  C   UNL     1       3.577   4.858  17.932  0.00  0.00    +0.000 C 
ATOM     16  C   UNL     1       3.041   3.657  17.625  0.00  0.00    +0.000 C 
BRANCH  15  17
ATOM     17  C   UNL     1       5.049   5.090  18.024  0.00  0.00    +0.000 C 
ATOM     18  O   UNL     1       5.663   5.036  19.081  0.00  0.00    +0.000 OA
BRANCH  17  19
ATOM     19  O   UNL     1       5.539   5.593  16.868  0.00  0.00    +0.000 OA
BRANCH  19  21
ATOM     20  C   UNL     1       6.017   3.937  15.165  0.00  0.00    +0.000 C 
ATOM     21  C   UNL     1       6.577   4.846  16.234  0.00  0.00    +0.000 C 
ENDBRANCH  19  21
ENDBRANCH  17  19
ENDBRANCH  15  17
BRANCH  16  22
ATOM     22  O   UNL     1       1.686   3.470  17.406  0.00  0.00    +0.000 OA
ATOM     23  H   UNL     1       1.347   2.861  18.098  0.00  0.00    +0.000 HD
ENDBRANCH  16  22
BRANCH  16  24
ATOM     24  O   UNL     1       3.843   2.532  17.567  0.00  0.00    +0.000 OA
BRANCH  24  25
ATOM     25  C   UNL     1       3.529   1.533  18.537  0.00  0.00    +0.000 C 
ATOM     26  C   UNL     1       4.317   1.861  19.796  0.00  0.00    +0.000 C 
ENDBRANCH  24  25
ENDBRANCH  16  24
ENDBRANCH   1  15
TORSDOF 9
ENDMDL
