MODEL 1
REMARK VINA RESULT:      -7.6      0.000      0.000
REMARK  Name = 
REMARK  6 active torsions:
REMARK  status: ('A' for Active; 'I' for Inactive)
REMARK    1  A    between atoms: C_2  and  C_4
REMARK    2  A    between atoms: N_7  and  C_8
REMARK    3  A    between atoms: C_8  and  C_9
REMARK    4  A    between atoms: C_13  and  C_14
REMARK    5  A    between atoms: C_14  and  C_16
REMARK    6  A    between atoms: C_25  and  N_26
REMARK                            x       y       z     vdW  Elec       q    Type
REMARK                         _______ _______ _______ _____ _____    ______ ____
ROOT
ATOM      1  C   UNL     1       2.212   6.534  19.875  0.00  0.00    +0.000 A 
ATOM      2  C   UNL     1       1.453   7.011  20.948  0.00  0.00    +0.000 A 
ATOM      3  C   UNL     1       0.936   8.314  20.939  0.00  0.00    +0.000 A 
ATOM      4 CL   UNL     1       0.107   8.805  22.377  0.00  0.00    +0.000 Cl
ATOM      5  C   UNL     1       1.125   9.150  19.826  0.00  0.00    +0.000 A 
ATOM      6  C   UNL     1       1.958   8.705  18.788  0.00  0.00    +0.000 A 
ATOM      7 CL   UNL     1       2.330   9.653  17.390  0.00  0.00    +0.000 Cl
ATOM      8  C   UNL     1       2.503   7.412  18.822  0.00  0.00    +0.000 A 
ENDROOT
BRANCH   5   9
ATOM      9  C   UNL     1       0.475  10.484  19.744  0.00  0.00    +0.000 C 
ATOM     10  O   UNL     1       0.980  11.426  20.349  0.00  0.00    +0.000 OA
BRANCH   9  11
ATOM     11  C   UNL     1      -0.799  10.695  18.992  0.00  0.00    +0.000 A 
ATOM     12  C   UNL     1      -1.158   9.928  17.873  0.00  0.00    +0.000 A 
ATOM     13  C   UNL     1      -2.436  10.055  17.319  0.00  0.00    +0.000 A 
ATOM     14  C   UNL     1      -3.341  10.974  17.848  0.00  0.00    +0.000 A 
ATOM     15  C   UNL     1      -2.964  11.792  18.911  0.00  0.00    +0.000 A 
ATOM     16  C   UNL     1      -1.696  11.655  19.479  0.00  0.00    +0.000 A 
ENDBRANCH   9  11
ENDBRANCH   5   9
BRANCH   1  17
ATOM     17  C   UNL     1       2.652   5.092  19.818  0.00  0.00    +0.000 C 
BRANCH  17  21
ATOM     18  C   UNL     1       5.622   4.552  17.853  0.00  0.00    +0.000 A 
ATOM     19  N   UNL     1       6.099   5.032  19.053  0.00  0.00    +0.000 NA
ATOM     20  N   UNL     1       5.065   5.285  19.842  0.00  0.00    +0.000 NA
ATOM     21  N   UNL     1       3.942   4.974  19.159  0.00  0.00    +0.000 N 
ATOM     22  C   UNL     1       4.236   4.520  17.894  0.00  0.00    +0.000 A 
BRANCH  18  24
ATOM     23  N   UNL     1       7.827   4.332  16.987  0.00  0.00    +0.000 N 
ATOM     24  C   UNL     1       6.488   4.160  16.755  0.00  0.00    +0.000 C 
ATOM     25  O   UNL     1       6.085   3.703  15.688  0.00  0.00    +0.000 OA
ATOM     26  H   UNL     1       8.486   4.043  16.283  0.00  0.00    +0.000 HD
ATOM     27  H   UNL     1       8.150   4.685  17.887  0.00  0.00    +0.000 HD
ENDBRANCH  18  24
BRANCH  22  28
ATOM     28  N   UNL     1       3.315   4.124  16.983  0.00  0.00    +0.000 N 
ATOM     29  H   UNL     1       2.358   3.877  17.212  0.00  0.00    +0.000 HD
ATOM     30  H   UNL     1       3.415   4.462  16.021  0.00  0.00    +0.000 HD
ENDBRANCH  22  28
ENDBRANCH  17  21
ENDBRANCH   1  17
TORSDOF 6
ENDMDL
MODEL 2
REMARK VINA RESULT:      -7.5      0.872      2.466
REMARK  Name = 
REMARK  6 active torsions:
REMARK  status: ('A' for Active; 'I' for Inactive)
REMARK    1  A    between atoms: C_2  and  C_4
REMARK    2  A    between atoms: N_7  and  C_8
REMARK    3  A    between atoms: C_8  and  C_9
REMARK    4  A    between atoms: C_13  and  C_14
REMARK    5  A    between atoms: C_14  and  C_16
REMARK    6  A    between atoms: C_25  and  N_26
REMARK                            x       y       z     vdW  Elec       q    Type
REMARK                         _______ _______ _______ _____ _____    ______ ____
ROOT
ATOM      1  C   UNL     1       2.512   6.344  19.746  0.00  0.00    +0.000 A 
ATOM      2  C   UNL     1       2.756   7.252  18.711  0.00  0.00    +0.000 A 
ATOM      3  C   UNL     1       2.114   8.498  18.682  0.00  0.00    +0.000 A 
ATOM      4 CL   UNL     1       2.431   9.475  17.289  0.00  0.00    +0.000 Cl
ATOM      5  C   UNL     1       1.253   8.883  19.723  0.00  0.00    +0.000 A 
ATOM      6  C   UNL     1       0.940   7.942  20.715  0.00  0.00    +0.000 A 
ATOM      7 CL   UNL     1      -0.154   8.256  22.018  0.00  0.00    +0.000 Cl
ATOM      8  C   UNL     1       1.557   6.682  20.717  0.00  0.00    +0.000 A 
ENDROOT
BRANCH   5   9
ATOM      9  C   UNL     1       0.668  10.248  19.775  0.00  0.00    +0.000 C 
ATOM     10  O   UNL     1       1.268  11.125  20.391  0.00  0.00    +0.000 OA
BRANCH   9  11
ATOM     11  C   UNL     1      -0.651  10.565  19.147  0.00  0.00    +0.000 A 
ATOM     12  C   UNL     1      -1.542  11.507  19.681  0.00  0.00    +0.000 A 
ATOM     13  C   UNL     1      -2.677  11.886  18.957  0.00  0.00    +0.000 A 
ATOM     14  C   UNL     1      -2.951  11.296  17.724  0.00  0.00    +0.000 A 
ATOM     15  C   UNL     1      -2.109  10.305  17.223  0.00  0.00    +0.000 A 
ATOM     16  C   UNL     1      -0.964   9.939  17.933  0.00  0.00    +0.000 A 
ENDBRANCH   9  11
ENDBRANCH   5   9
BRANCH   1  17
ATOM     17  C   UNL     1       3.301   5.063  19.855  0.00  0.00    +0.000 C 
BRANCH  17  21
ATOM     18  C   UNL     1       5.766   4.786  17.244  0.00  0.00    +0.000 A 
ATOM     19  N   UNL     1       4.566   4.616  16.589  0.00  0.00    +0.000 NA
ATOM     20  N   UNL     1       3.590   4.679  17.483  0.00  0.00    +0.000 NA
ATOM     21  N   UNL     1       4.154   4.885  18.693  0.00  0.00    +0.000 N 
ATOM     22  C   UNL     1       5.525   4.947  18.601  0.00  0.00    +0.000 A 
BRANCH  18  24
ATOM     23  N   UNL     1       7.063   5.448  15.363  0.00  0.00    +0.000 N 
ATOM     24  C   UNL     1       7.048   4.786  16.563  0.00  0.00    +0.000 C 
ATOM     25  O   UNL     1       8.062   4.247  17.000  0.00  0.00    +0.000 OA
ATOM     26  H   UNL     1       7.931   5.520  14.856  0.00  0.00    +0.000 HD
ATOM     27  H   UNL     1       6.223   5.915  15.024  0.00  0.00    +0.000 HD
ENDBRANCH  18  24
BRANCH  22  28
ATOM     28  N   UNL     1       6.361   5.154  19.647  0.00  0.00    +0.000 N 
ATOM     29  H   UNL     1       6.223   4.759  20.571  0.00  0.00    +0.000 HD
ATOM     30  H   UNL     1       7.346   5.348  19.444  0.00  0.00    +0.000 HD
ENDBRANCH  22  28
ENDBRANCH  17  21
ENDBRANCH   1  17
TORSDOF 6
ENDMDL
MODEL 3
REMARK VINA RESULT:      -7.4      0.840      1.409
REMARK  Name = 
REMARK  6 active torsions:
REMARK  status: ('A' for Active; 'I' for Inactive)
REMARK    1  A    between atoms: C_2  and  C_4
REMARK    2  A    between atoms: N_7  and  C_8
REMARK    3  A    between atoms: C_8  and  C_9
REMARK    4  A    between atoms: C_13  and  C_14
REMARK    5  A    between atoms: C_14  and  C_16
REMARK    6  A    between atoms: C_25  and  N_26
REMARK                            x       y       z     vdW  Elec       q    Type
REMARK                         _______ _______ _______ _____ _____    ______ ____
ROOT
ATOM      1  C   UNL     1       2.487   6.289  19.588  0.00  0.00    +0.000 A 
ATOM      2  C   UNL     1       1.730   6.707  20.687  0.00  0.00    +0.000 A 
ATOM      3  C   UNL     1       1.198   8.003  20.741  0.00  0.00    +0.000 A 
ATOM      4 CL   UNL     1       0.373   8.417  22.205  0.00  0.00    +0.000 Cl
ATOM      5  C   UNL     1       1.370   8.893  19.667  0.00  0.00    +0.000 A 
ATOM      6  C   UNL     1       2.201   8.505  18.605  0.00  0.00    +0.000 A 
ATOM      7 CL   UNL     1       2.553   9.522  17.250  0.00  0.00    +0.000 Cl
ATOM      8  C   UNL     1       2.761   7.219  18.575  0.00  0.00    +0.000 A 
ENDROOT
BRANCH   5   9
ATOM      9  C   UNL     1       0.705  10.221  19.651  0.00  0.00    +0.000 C 
ATOM     10  O   UNL     1       1.174  11.125  20.338  0.00  0.00    +0.000 OA
BRANCH   9  11
ATOM     11  C   UNL     1      -0.544  10.468  18.868  0.00  0.00    +0.000 A 
ATOM     12  C   UNL     1      -0.893   9.716  17.736  0.00  0.00    +0.000 A 
ATOM     13  C   UNL     1      -2.153   9.877  17.150  0.00  0.00    +0.000 A 
ATOM     14  C   UNL     1      -3.048  10.817  17.660  0.00  0.00    +0.000 A 
ATOM     15  C   UNL     1      -2.678  11.619  18.738  0.00  0.00    +0.000 A 
ATOM     16  C   UNL     1      -1.429  11.447  19.338  0.00  0.00    +0.000 A 
ENDBRANCH   9  11
ENDBRANCH   5   9
BRANCH   1  17
ATOM     17  C   UNL     1       2.943   4.857  19.462  0.00  0.00    +0.000 C 
BRANCH  17  21
ATOM     18  C   UNL     1       5.721   4.708  17.174  0.00  0.00    +0.000 A 
ATOM     19  N   UNL     1       4.618   4.493  16.374  0.00  0.00    +0.000 NA
ATOM     20  N   UNL     1       3.538   4.507  17.142  0.00  0.00    +0.000 NA
ATOM     21  N   UNL     1       3.940   4.726  18.413  0.00  0.00    +0.000 N 
ATOM     22  C   UNL     1       5.308   4.846  18.490  0.00  0.00    +0.000 A 
BRANCH  18  24
ATOM     23  N   UNL     1       7.215   5.472  15.487  0.00  0.00    +0.000 N 
ATOM     24  C   UNL     1       7.076   4.769  16.655  0.00  0.00    +0.000 C 
ATOM     25  O   UNL     1       8.045   4.245  17.197  0.00  0.00    +0.000 OA
ATOM     26  H   UNL     1       8.135   5.587  15.094  0.00  0.00    +0.000 HD
ATOM     27  H   UNL     1       6.408   5.927  15.062  0.00  0.00    +0.000 HD
ENDBRANCH  18  24
BRANCH  22  28
ATOM     28  N   UNL     1       5.999   5.080  19.633  0.00  0.00    +0.000 N 
ATOM     29  H   UNL     1       5.582   5.091  20.557  0.00  0.00    +0.000 HD
ATOM     30  H   UNL     1       6.993   4.832  19.652  0.00  0.00    +0.000 HD
ENDBRANCH  22  28
ENDBRANCH  17  21
ENDBRANCH   1  17
TORSDOF 6
ENDMDL
MODEL 4
REMARK VINA RESULT:      -7.4      0.394      1.842
REMARK  Name = 
REMARK  6 active torsions:
REMARK  status: ('A' for Active; 'I' for Inactive)
REMARK    1  A    between atoms: C_2  and  C_4
REMARK    2  A    between atoms: N_7  and  C_8
REMARK    3  A    between atoms: C_8  and  C_9
REMARK    4  A    between atoms: C_13  and  C_14
REMARK    5  A    between atoms: C_14  and  C_16
REMARK    6  A    between atoms: C_25  and  N_26
REMARK                            x       y       z     vdW  Elec       q    Type
REMARK                         _______ _______ _______ _____ _____    ______ ____
ROOT
ATOM      1  C   UNL     1       2.242   6.390  19.936  0.00  0.00    +0.000 A 
ATOM      2  C   UNL     1       2.504   7.247  18.863  0.00  0.00    +0.000 A 
ATOM      3  C   UNL     1       1.947   8.532  18.817  0.00  0.00    +0.000 A 
ATOM      4 CL   UNL     1       2.271   9.442  17.380  0.00  0.00    +0.000 Cl
ATOM      5  C   UNL     1       1.156   9.007  19.877  0.00  0.00    +0.000 A 
ATOM      6  C   UNL     1       0.821   8.119  20.911  0.00  0.00    +0.000 A 
ATOM      7 CL   UNL     1      -0.195   8.547  22.244  0.00  0.00    +0.000 Cl
ATOM      8  C   UNL     1       1.353   6.821  20.931  0.00  0.00    +0.000 A 
ENDROOT
BRANCH   5   9
ATOM      9  C   UNL     1       0.666  10.409  19.906  0.00  0.00    +0.000 C 
ATOM     10  O   UNL     1       1.323  11.253  20.510  0.00  0.00    +0.000 OA
BRANCH   9  11
ATOM     11  C   UNL     1      -0.626  10.806  19.268  0.00  0.00    +0.000 A 
ATOM     12  C   UNL     1      -1.139  10.168  18.129  0.00  0.00    +0.000 A 
ATOM     13  C   UNL     1      -2.431  10.465  17.682  0.00  0.00    +0.000 A 
ATOM     14  C   UNL     1      -3.195  11.429  18.340  0.00  0.00    +0.000 A 
ATOM     15  C   UNL     1      -2.661  12.120  19.426  0.00  0.00    +0.000 A 
ATOM     16  C   UNL     1      -1.380  11.811  19.887  0.00  0.00    +0.000 A 
ENDBRANCH   9  11
ENDBRANCH   5   9
BRANCH   1  17
ATOM     17  C   UNL     1       2.948   5.062  20.058  0.00  0.00    +0.000 C 
BRANCH  17  21
ATOM     18  C   UNL     1       5.603   4.670  17.657  0.00  0.00    +0.000 A 
ATOM     19  N   UNL     1       6.212   5.287  18.729  0.00  0.00    +0.000 NA
ATOM     20  N   UNL     1       5.296   5.496  19.664  0.00  0.00    +0.000 NA
ATOM     21  N   UNL     1       4.119   5.022  19.199  0.00  0.00    +0.000 N 
ATOM     22  C   UNL     1       4.255   4.503  17.932  0.00  0.00    +0.000 A 
BRANCH  18  24
ATOM     23  N   UNL     1       7.570   4.828  16.327  0.00  0.00    +0.000 N 
ATOM     24  C   UNL     1       6.320   4.282  16.455  0.00  0.00    +0.000 C 
ATOM     25  O   UNL     1       5.871   3.523  15.599  0.00  0.00    +0.000 OA
ATOM     26  H   UNL     1       8.138   4.569  15.536  0.00  0.00    +0.000 HD
ATOM     27  H   UNL     1       7.943   5.433  17.058  0.00  0.00    +0.000 HD
ENDBRANCH  18  24
BRANCH  22  28
ATOM     28  N   UNL     1       3.249   3.947  17.215  0.00  0.00    +0.000 N 
ATOM     29  H   UNL     1       2.333   4.367  17.100  0.00  0.00    +0.000 HD
ATOM     30  H   UNL     1       3.499   3.329  16.437  0.00  0.00    +0.000 HD
ENDBRANCH  22  28
ENDBRANCH  17  21
ENDBRANCH   1  17
TORSDOF 6
ENDMDL
MODEL 5
REMARK VINA RESULT:      -7.4      0.852      2.278
REMARK  Name = 
REMARK  6 active torsions:
REMARK  status: ('A' for Active; 'I' for Inactive)
REMARK    1  A    between atoms: C_2  and  C_4
REMARK    2  A    between atoms: N_7  and  C_8
REMARK    3  A    between atoms: C_8  and  C_9
REMARK    4  A    between atoms: C_13  and  C_14
REMARK    5  A    between atoms: C_14  and  C_16
REMARK    6  A    between atoms: C_25  and  N_26
REMARK                            x       y       z     vdW  Elec       q    Type
REMARK                         _______ _______ _______ _____ _____    ______ ____
ROOT
ATOM      1  C   UNL     1       2.492   6.242  19.809  0.00  0.00    +0.000 A 
ATOM      2  C   UNL     1       2.767   7.120  18.757  0.00  0.00    +0.000 A 
ATOM      3  C   UNL     1       2.143   8.373  18.685  0.00  0.00    +0.000 A 
ATOM      4 CL   UNL     1       2.497   9.311  17.274  0.00  0.00    +0.000 Cl
ATOM      5  C   UNL     1       1.268   8.796  19.700  0.00  0.00    +0.000 A 
ATOM      6  C   UNL     1       0.925   7.883  20.710  0.00  0.00    +0.000 A 
ATOM      7 CL   UNL     1      -0.187   8.245  21.984  0.00  0.00    +0.000 Cl
ATOM      8  C   UNL     1       1.525   6.616  20.754  0.00  0.00    +0.000 A 
ENDROOT
BRANCH   5   9
ATOM      9  C   UNL     1       0.701  10.169  19.708  0.00  0.00    +0.000 C 
ATOM     10  O   UNL     1       1.242  11.028  20.399  0.00  0.00    +0.000 OA
BRANCH   9  11
ATOM     11  C   UNL     1      -0.535  10.515  18.943  0.00  0.00    +0.000 A 
ATOM     12  C   UNL     1      -0.941   9.816  17.797  0.00  0.00    +0.000 A 
ATOM     13  C   UNL     1      -2.193  10.072  17.228  0.00  0.00    +0.000 A 
ATOM     14  C   UNL     1      -3.022  11.055  17.769  0.00  0.00    +0.000 A 
ATOM     15  C   UNL     1      -2.591  11.804  18.862  0.00  0.00    +0.000 A 
ATOM     16  C   UNL     1      -1.351  11.537  19.446  0.00  0.00    +0.000 A 
ENDBRANCH   9  11
ENDBRANCH   5   9
BRANCH   1  17
ATOM     17  C   UNL     1       3.261   4.953  19.964  0.00  0.00    +0.000 C 
BRANCH  17  21
ATOM     18  C   UNL     1       5.528   4.470  17.207  0.00  0.00    +0.000 A 
ATOM     19  N   UNL     1       4.296   4.130  16.690  0.00  0.00    +0.000 NA
ATOM     20  N   UNL     1       3.392   4.256  17.650  0.00  0.00    +0.000 NA
ATOM     21  N   UNL     1       4.032   4.668  18.766  0.00  0.00    +0.000 N 
ATOM     22  C   UNL     1       5.383   4.805  18.545  0.00  0.00    +0.000 A 
BRANCH  18  24
ATOM     23  N   UNL     1       6.560   4.452  15.064  0.00  0.00    +0.000 N 
ATOM     24  C   UNL     1       6.748   4.456  16.421  0.00  0.00    +0.000 C 
ATOM     25  O   UNL     1       7.878   4.452  16.902  0.00  0.00    +0.000 OA
ATOM     26  H   UNL     1       7.365   4.483  14.459  0.00  0.00    +0.000 HD
ATOM     27  H   UNL     1       5.618   4.485  14.676  0.00  0.00    +0.000 HD
ENDBRANCH  18  24
BRANCH  22  28
ATOM     28  N   UNL     1       6.280   5.213  19.475  0.00  0.00    +0.000 N 
ATOM     29  H   UNL     1       6.569   6.176  19.601  0.00  0.00    +0.000 HD
ATOM     30  H   UNL     1       6.366   4.660  20.334  0.00  0.00    +0.000 HD
ENDBRANCH  22  28
ENDBRANCH  17  21
ENDBRANCH   1  17
TORSDOF 6
ENDMDL
MODEL 6
REMARK VINA RESULT:      -7.3      4.632      6.075
REMARK  Name = 
REMARK  6 active torsions:
REMARK  status: ('A' for Active; 'I' for Inactive)
REMARK    1  A    between atoms: C_2  and  C_4
REMARK    2  A    between atoms: N_7  and  C_8
REMARK    3  A    between atoms: C_8  and  C_9
REMARK    4  A    between atoms: C_13  and  C_14
REMARK    5  A    between atoms: C_14  and  C_16
REMARK    6  A    between atoms: C_25  and  N_26
REMARK                            x       y       z     vdW  Elec       q    Type
REMARK                         _______ _______ _______ _____ _____    ______ ____
ROOT
ATOM      1  C   UNL     1       6.531   5.536  17.006  0.00  0.00    +0.000 A 
ATOM      2  C   UNL     1       6.253   4.627  18.031  0.00  0.00    +0.000 A 
ATOM      3  C   UNL     1       5.091   4.749  18.805  0.00  0.00    +0.000 A 
ATOM      4 CL   UNL     1       4.930   3.618  20.105  0.00  0.00    +0.000 Cl
ATOM      5  C   UNL     1       4.152   5.757  18.530  0.00  0.00    +0.000 A 
ATOM      6  C   UNL     1       4.470   6.721  17.561  0.00  0.00    +0.000 A 
ATOM      7 CL   UNL     1       3.439   8.053  17.166  0.00  0.00    +0.000 Cl
ATOM      8  C   UNL     1       5.654   6.614  16.816  0.00  0.00    +0.000 A 
ENDROOT
BRANCH   5   9
ATOM      9  C   UNL     1       2.855   5.822  19.253  0.00  0.00    +0.000 C 
ATOM     10  O   UNL     1       2.531   6.876  19.792  0.00  0.00    +0.000 OA
BRANCH   9  11
ATOM     11  C   UNL     1       1.967   4.627  19.385  0.00  0.00    +0.000 A 
ATOM     12  C   UNL     1       1.546   3.866  18.284  0.00  0.00    +0.000 A 
ATOM     13  C   UNL     1       0.862   2.663  18.485  0.00  0.00    +0.000 A 
ATOM     14  C   UNL     1       0.555   2.239  19.778  0.00  0.00    +0.000 A 
ATOM     15  C   UNL     1       0.904   3.028  20.872  0.00  0.00    +0.000 A 
ATOM     16  C   UNL     1       1.605   4.220  20.676  0.00  0.00    +0.000 A 
ENDBRANCH   9  11
ENDBRANCH   5   9
BRANCH   1  17
ATOM     17  C   UNL     1       7.707   5.329  16.084  0.00  0.00    +0.000 C 
BRANCH  17  21
ATOM     18  C   UNL     1       6.420   3.917  13.031  0.00  0.00    +0.000 A 
ATOM     19  N   UNL     1       7.248   4.934  12.605  0.00  0.00    +0.000 NA
ATOM     20  N   UNL     1       7.755   5.533  13.673  0.00  0.00    +0.000 NA
ATOM     21  N   UNL     1       7.259   4.913  14.766  0.00  0.00    +0.000 N 
ATOM     22  C   UNL     1       6.402   3.895  14.417  0.00  0.00    +0.000 A 
BRANCH  18  24
ATOM     23  N   UNL     1       6.402   1.928  11.725  0.00  0.00    +0.000 N 
ATOM     24  C   UNL     1       5.707   3.042  12.118  0.00  0.00    +0.000 C 
ATOM     25  O   UNL     1       4.567   3.252  11.711  0.00  0.00    +0.000 OA
ATOM     26  H   UNL     1       5.951   1.258  11.123  0.00  0.00    +0.000 HD
ATOM     27  H   UNL     1       7.336   1.751  12.092  0.00  0.00    +0.000 HD
ENDBRANCH  18  24
BRANCH  22  28
ATOM     28  N   UNL     1       5.761   3.090  15.298  0.00  0.00    +0.000 N 
ATOM     29  H   UNL     1       5.976   2.109  15.432  0.00  0.00    +0.000 HD
ATOM     30  H   UNL     1       5.352   3.522  16.133  0.00  0.00    +0.000 HD
ENDBRANCH  22  28
ENDBRANCH  17  21
ENDBRANCH   1  17
TORSDOF 6
ENDMDL
MODEL 7
REMARK VINA RESULT:      -7.2      3.939      8.271
REMARK  Name = 
REMARK  6 active torsions:
REMARK  status: ('A' for Active; 'I' for Inactive)
REMARK    1  A    between atoms: C_2  and  C_4
REMARK    2  A    between atoms: N_7  and  C_8
REMARK    3  A    between atoms: C_8  and  C_9
REMARK    4  A    between atoms: C_13  and  C_14
REMARK    5  A    between atoms: C_14  and  C_16
REMARK    6  A    between atoms: C_25  and  N_26
REMARK                            x       y       z     vdW  Elec       q    Type
REMARK                         _______ _______ _______ _____ _____    ______ ____
ROOT
ATOM      1  C   UNL     1       1.580   7.854  20.472  0.00  0.00    +0.000 A 
ATOM      2  C   UNL     1       2.184   8.148  19.246  0.00  0.00    +0.000 A 
ATOM      3  C   UNL     1       2.722   7.130  18.447  0.00  0.00    +0.000 A 
ATOM      4 CL   UNL     1       3.532   7.650  17.009  0.00  0.00    +0.000 Cl
ATOM      5  C   UNL     1       2.616   5.784  18.837  0.00  0.00    +0.000 A 
ATOM      6  C   UNL     1       2.089   5.495  20.104  0.00  0.00    +0.000 A 
ATOM      7 CL   UNL     1       1.959   3.891  20.740  0.00  0.00    +0.000 Cl
ATOM      8  C   UNL     1       1.586   6.524  20.915  0.00  0.00    +0.000 A 
ENDROOT
BRANCH   5   9
ATOM      9  C   UNL     1       3.063   4.684  17.943  0.00  0.00    +0.000 C 
ATOM     10  O   UNL     1       2.233   3.871  17.545  0.00  0.00    +0.000 OA
BRANCH   9  11
ATOM     11  C   UNL     1       4.498   4.513  17.561  0.00  0.00    +0.000 A 
ATOM     12  C   UNL     1       4.904   4.167  16.264  0.00  0.00    +0.000 A 
ATOM     13  C   UNL     1       6.261   4.192  15.925  0.00  0.00    +0.000 A 
ATOM     14  C   UNL     1       7.217   4.518  16.887  0.00  0.00    +0.000 A 
ATOM     15  C   UNL     1       6.825   4.789  18.196  0.00  0.00    +0.000 A 
ATOM     16  C   UNL     1       5.470   4.785  18.533  0.00  0.00    +0.000 A 
ENDBRANCH   9  11
ENDBRANCH   5   9
BRANCH   1  17
ATOM     17  C   UNL     1       0.879   8.927  21.268  0.00  0.00    +0.000 C 
BRANCH  17  21
ATOM     18  C   UNL     1      -0.527  11.597  19.302  0.00  0.00    +0.000 A 
ATOM     19  N   UNL     1      -1.325  10.512  19.009  0.00  0.00    +0.000 NA
ATOM     20  N   UNL     1      -0.864   9.464  19.677  0.00  0.00    +0.000 NA
ATOM     21  N   UNL     1       0.213   9.869  20.385  0.00  0.00    +0.000 N 
ATOM     22  C   UNL     1       0.476  11.203  20.173  0.00  0.00    +0.000 A 
BRANCH  18  24
ATOM     23  N   UNL     1      -1.046  12.945  17.411  0.00  0.00    +0.000 N 
ATOM     24  C   UNL     1      -0.756  12.921  18.749  0.00  0.00    +0.000 C 
ATOM     25  O   UNL     1      -0.704  13.959  19.404  0.00  0.00    +0.000 OA
ATOM     26  H   UNL     1      -1.255  13.827  16.972  0.00  0.00    +0.000 HD
ATOM     27  H   UNL     1      -1.115  12.074  16.885  0.00  0.00    +0.000 HD
ENDBRANCH  18  24
BRANCH  22  28
ATOM     28  N   UNL     1       1.488  11.891  20.756  0.00  0.00    +0.000 N 
ATOM     29  H   UNL     1       1.364  12.751  21.278  0.00  0.00    +0.000 HD
ATOM     30  H   UNL     1       2.317  11.366  21.052  0.00  0.00    +0.000 HD
ENDBRANCH  22  28
ENDBRANCH  17  21
ENDBRANCH   1  17
TORSDOF 6
ENDMDL
MODEL 8
REMARK VINA RESULT:      -7.1      0.756      1.684
REMARK  Name = 
REMARK  6 active torsions:
REMARK  status: ('A' for Active; 'I' for Inactive)
REMARK    1  A    between atoms: C_2  and  C_4
REMARK    2  A    between atoms: N_7  and  C_8
REMARK    3  A    between atoms: C_8  and  C_9
REMARK    4  A    between atoms: C_13  and  C_14
REMARK    5  A    between atoms: C_14  and  C_16
REMARK    6  A    between atoms: C_25  and  N_26
REMARK                            x       y       z     vdW  Elec       q    Type
REMARK                         _______ _______ _______ _____ _____    ______ ____
ROOT
ATOM      1  C   UNL     1       2.082   6.598  20.113  0.00  0.00    +0.000 A 
ATOM      2  C   UNL     1       1.317   7.170  21.133  0.00  0.00    +0.000 A 
ATOM      3  C   UNL     1       0.828   8.478  21.017  0.00  0.00    +0.000 A 
ATOM      4 CL   UNL     1      -0.014   9.093  22.399  0.00  0.00    +0.000 Cl
ATOM      5  C   UNL     1       1.051   9.224  19.847  0.00  0.00    +0.000 A 
ATOM      6  C   UNL     1       1.891   8.685  18.861  0.00  0.00    +0.000 A 
ATOM      7 CL   UNL     1       2.305   9.517  17.402  0.00  0.00    +0.000 Cl
ATOM      8  C   UNL     1       2.408   7.388  19.001  0.00  0.00    +0.000 A 
ENDROOT
BRANCH   5   9
ATOM      9  C   UNL     1       0.431  10.561  19.654  0.00  0.00    +0.000 C 
ATOM     10  O   UNL     1       1.038  11.556  20.041  0.00  0.00    +0.000 OA
BRANCH   9  11
ATOM     11  C   UNL     1      -0.928  10.719  19.052  0.00  0.00    +0.000 A 
ATOM     12  C   UNL     1      -1.876  11.629  19.543  0.00  0.00    +0.000 A 
ATOM     13  C   UNL     1      -3.061  11.855  18.834  0.00  0.00    +0.000 A 
ATOM     14  C   UNL     1      -3.324  11.145  17.663  0.00  0.00    +0.000 A 
ATOM     15  C   UNL     1      -2.420  10.185  17.212  0.00  0.00    +0.000 A 
ATOM     16  C   UNL     1      -1.227   9.971  17.906  0.00  0.00    +0.000 A 
ENDBRANCH   9  11
ENDBRANCH   5   9
BRANCH   1  17
ATOM     17  C   UNL     1       2.493   5.148  20.172  0.00  0.00    +0.000 C 
BRANCH  17  21
ATOM     18  C   UNL     1       4.647   4.465  17.368  0.00  0.00    +0.000 A 
ATOM     19  N   UNL     1       3.407   4.034  16.948  0.00  0.00    +0.000 NA
ATOM     20  N   UNL     1       2.543   4.226  17.935  0.00  0.00    +0.000 NA
ATOM     21  N   UNL     1       3.218   4.769  18.972  0.00  0.00    +0.000 N 
ATOM     22  C   UNL     1       4.551   4.928  18.671  0.00  0.00    +0.000 A 
BRANCH  18  24
ATOM     23  N   UNL     1       5.935   3.291  15.747  0.00  0.00    +0.000 N 
ATOM     24  C   UNL     1       5.830   4.413  16.527  0.00  0.00    +0.000 C 
ATOM     25  O   UNL     1       6.688   5.291  16.490  0.00  0.00    +0.000 OA
ATOM     26  H   UNL     1       6.711   3.210  15.111  0.00  0.00    +0.000 HD
ATOM     27  H   UNL     1       5.202   2.584  15.765  0.00  0.00    +0.000 HD
ENDBRANCH  18  24
BRANCH  22  28
ATOM     28  N   UNL     1       5.474   5.457  19.511  0.00  0.00    +0.000 N 
ATOM     29  H   UNL     1       6.411   5.089  19.630  0.00  0.00    +0.000 HD
ATOM     30  H   UNL     1       5.413   6.458  19.721  0.00  0.00    +0.000 HD
ENDBRANCH  22  28
ENDBRANCH  17  21
ENDBRANCH   1  17
TORSDOF 6
ENDMDL
MODEL 9
REMARK VINA RESULT:      -7.1      4.057      8.032
REMARK  Name = 
REMARK  6 active torsions:
REMARK  status: ('A' for Active; 'I' for Inactive)
REMARK    1  A    between atoms: C_2  and  C_4
REMARK    2  A    between atoms: N_7  and  C_8
REMARK    3  A    between atoms: C_8  and  C_9
REMARK    4  A    between atoms: C_13  and  C_14
REMARK    5  A    between atoms: C_14  and  C_16
REMARK    6  A    between atoms: C_25  and  N_26
REMARK                            x       y       z     vdW  Elec       q    Type
REMARK                         _______ _______ _______ _____ _____    ______ ____
ROOT
ATOM      1  C   UNL     1       1.181   7.793  20.692  0.00  0.00    +0.000 A 
ATOM      2  C   UNL     1       1.840   8.214  19.533  0.00  0.00    +0.000 A 
ATOM      3  C   UNL     1       2.568   7.307  18.751  0.00  0.00    +0.000 A 
ATOM      4 CL   UNL     1       3.419   7.987  17.405  0.00  0.00    +0.000 Cl
ATOM      5  C   UNL     1       2.607   5.943  19.087  0.00  0.00    +0.000 A 
ATOM      6  C   UNL     1       2.020   5.535  20.294  0.00  0.00    +0.000 A 
ATOM      7 CL   UNL     1       2.048   3.902  20.864  0.00  0.00    +0.000 Cl
ATOM      8  C   UNL     1       1.324   6.457  21.091  0.00  0.00    +0.000 A 
ENDROOT
BRANCH   5   9
ATOM      9  C   UNL     1       3.264   4.948  18.199  0.00  0.00    +0.000 C 
ATOM     10  O   UNL     1       2.561   4.151  17.583  0.00  0.00    +0.000 OA
BRANCH   9  11
ATOM     11  C   UNL     1       4.751   4.859  18.081  0.00  0.00    +0.000 A 
ATOM     12  C   UNL     1       5.397   4.449  16.905  0.00  0.00    +0.000 A 
ATOM     13  C   UNL     1       6.788   4.553  16.799  0.00  0.00    +0.000 A 
ATOM     14  C   UNL     1       7.540   5.021  17.876  0.00  0.00    +0.000 A 
ATOM     15  C   UNL     1       6.910   5.359  19.072  0.00  0.00    +0.000 A 
ATOM     16  C   UNL     1       5.520   5.276  19.175  0.00  0.00    +0.000 A 
ENDBRANCH   9  11
ENDBRANCH   5   9
BRANCH   1  17
ATOM     17  C   UNL     1       0.285   8.734  21.459  0.00  0.00    +0.000 C 
BRANCH  17  21
ATOM     18  C   UNL     1       0.459  11.979  19.906  0.00  0.00    +0.000 A 
ATOM     19  N   UNL     1       1.348  12.064  20.956  0.00  0.00    +0.000 NA
ATOM     20  N   UNL     1       1.334  10.910  21.608  0.00  0.00    +0.000 NA
ATOM     21  N   UNL     1       0.450  10.098  20.988  0.00  0.00    +0.000 N 
ATOM     22  C   UNL     1      -0.140  10.729  19.917  0.00  0.00    +0.000 A 
BRANCH  18  24
ATOM     23  N   UNL     1       1.235  13.997  18.913  0.00  0.00    +0.000 N 
ATOM     24  C   UNL     1       0.231  13.067  18.972  0.00  0.00    +0.000 C 
ATOM     25  O   UNL     1      -0.772  13.174  18.271  0.00  0.00    +0.000 OA
ATOM     26  H   UNL     1       1.158  14.757  18.256  0.00  0.00    +0.000 HD
ATOM     27  H   UNL     1       2.075  13.882  19.479  0.00  0.00    +0.000 HD
ENDBRANCH  18  24
BRANCH  22  28
ATOM     28  N   UNL     1      -1.060  10.162  19.099  0.00  0.00    +0.000 N 
ATOM     29  H   UNL     1      -2.033  10.025  19.347  0.00  0.00    +0.000 HD
ATOM     30  H   UNL     1      -0.918  10.243  18.087  0.00  0.00    +0.000 HD
ENDBRANCH  22  28
ENDBRANCH  17  21
ENDBRANCH   1  17
TORSDOF 6
ENDMDL
