MODEL 1
REMARK VINA RESULT:      -7.7      0.000      0.000
REMARK  Name = 
REMARK  3 active torsions:
REMARK  status: ('A' for Active; 'I' for Inactive)
REMARK    1  A    between atoms: N_1  and  C_2
REMARK    2  A    between atoms: N_6  and  C_7
REMARK    3  A    between atoms: C_7  and  C_8
REMARK                            x       y       z     vdW  Elec       q    Type
REMARK                         _______ _______ _______ _____ _____    ______ ____
ROOT
ATOM      1  C   UNL     1       1.931   3.406  21.049  0.00  0.00    +0.000 C 
ATOM      2  C   UNL     1       0.891   3.640  19.967  0.00  0.00    +0.000 C 
ATOM      3  C   UNL     1       1.702   3.689  18.701  0.00  0.00    +0.000 C 
ATOM      4  O   UNL     1       1.233   3.947  17.602  0.00  0.00    +0.000 OA
ATOM      5  N   UNL     1       2.988   3.330  18.974  0.00  0.00    +0.000 N 
ATOM      6  C   UNL     1       3.146   2.931  20.270  0.00  0.00    +0.000 C 
ATOM      7  O   UNL     1       4.094   2.322  20.746  0.00  0.00    +0.000 OA
ENDROOT
BRANCH   1   8
ATOM      8  N   UNL     1       1.495   2.429  22.050  0.00  0.00    +0.000 NA
ATOM      9  H   UNL     1       1.701   1.484  21.725  0.00  0.00    +0.000 HD
ATOM     10  H   UNL     1       0.476   2.483  22.136  0.00  0.00    +0.000 HD
ENDBRANCH   1   8
BRANCH   5  11
ATOM     11  C   UNL     1       3.997   3.148  17.953  0.00  0.00    +0.000 C 
BRANCH  11  12
ATOM     12  C   UNL     1       4.795   4.410  17.693  0.00  0.00    +0.000 A 
ATOM     13  C   UNL     1       4.500   5.235  16.582  0.00  0.00    +0.000 A 
ATOM     14  C   UNL     1       5.272   6.368  16.301  0.00  0.00    +0.000 A 
ATOM     15  C   UNL     1       6.326   6.655  17.145  0.00  0.00    +0.000 A 
ATOM     16  C   UNL     1       6.601   5.878  18.242  0.00  0.00    +0.000 A 
ATOM     17  C   UNL     1       5.851   4.761  18.551  0.00  0.00    +0.000 A 
ATOM     18  O   UNL     1       7.679   6.327  18.940  0.00  0.00    +0.000 OA
ATOM     19  C   UNL     1       8.094   7.433  18.113  0.00  0.00    +0.000 C 
ATOM     20  O   UNL     1       7.199   7.688  17.008  0.00  0.00    +0.000 OA
ENDBRANCH  11  12
ENDBRANCH   5  11
TORSDOF 3
ENDMDL
MODEL 2
REMARK VINA RESULT:      -7.3      1.148      1.263
REMARK  Name = 
REMARK  3 active torsions:
REMARK  status: ('A' for Active; 'I' for Inactive)
REMARK    1  A    between atoms: N_1  and  C_2
REMARK    2  A    between atoms: N_6  and  C_7
REMARK    3  A    between atoms: C_7  and  C_8
REMARK                            x       y       z     vdW  Elec       q    Type
REMARK                         _______ _______ _______ _____ _____    ______ ____
ROOT
ATOM      1  C   UNL     1       2.679   3.531  20.818  0.00  0.00    +0.000 C 
ATOM      2  C   UNL     1       1.362   3.710  20.083  0.00  0.00    +0.000 C 
ATOM      3  C   UNL     1       1.754   3.640  18.632  0.00  0.00    +0.000 C 
ATOM      4  O   UNL     1       0.977   3.826  17.708  0.00  0.00    +0.000 OA
ATOM      5  N   UNL     1       3.062   3.267  18.535  0.00  0.00    +0.000 N 
ATOM      6  C   UNL     1       3.601   2.964  19.752  0.00  0.00    +0.000 C 
ATOM      7  O   UNL     1       4.646   2.367  19.969  0.00  0.00    +0.000 OA
ENDROOT
BRANCH   1   8
ATOM      8  N   UNL     1       2.562   2.645  21.980  0.00  0.00    +0.000 NA
ATOM      9  H   UNL     1       3.248   1.893  21.913  0.00  0.00    +0.000 HD
ATOM     10  H   UNL     1       1.643   2.195  21.954  0.00  0.00    +0.000 HD
ENDBRANCH   1   8
BRANCH   5  11
ATOM     11  C   UNL     1       3.716   2.980  17.276  0.00  0.00    +0.000 C 
BRANCH  11  12
ATOM     12  C   UNL     1       4.806   3.979  16.946  0.00  0.00    +0.000 A 
ATOM     13  C   UNL     1       5.817   3.661  16.010  0.00  0.00    +0.000 A 
ATOM     14  C   UNL     1       6.862   4.555  15.746  0.00  0.00    +0.000 A 
ATOM     15  C   UNL     1       6.869   5.756  16.427  0.00  0.00    +0.000 A 
ATOM     16  C   UNL     1       5.876   6.086  17.315  0.00  0.00    +0.000 A 
ATOM     17  C   UNL     1       4.827   5.230  17.587  0.00  0.00    +0.000 A 
ATOM     18  O   UNL     1       6.068   7.308  17.880  0.00  0.00    +0.000 OA
ATOM     19  C   UNL     1       7.336   7.675  17.301  0.00  0.00    +0.000 C 
ATOM     20  O   UNL     1       7.817   6.725  16.326  0.00  0.00    +0.000 OA
ENDBRANCH  11  12
ENDBRANCH   5  11
TORSDOF 3
ENDMDL
MODEL 3
REMARK VINA RESULT:      -7.2      2.587      5.727
REMARK  Name = 
REMARK  3 active torsions:
REMARK  status: ('A' for Active; 'I' for Inactive)
REMARK    1  A    between atoms: N_1  and  C_2
REMARK    2  A    between atoms: N_6  and  C_7
REMARK    3  A    between atoms: C_7  and  C_8
REMARK                            x       y       z     vdW  Elec       q    Type
REMARK                         _______ _______ _______ _____ _____    ______ ____
ROOT
ATOM      1  C   UNL     1       8.090   5.559  19.072  0.00  0.00    +0.000 C 
ATOM      2  C   UNL     1       8.062   7.001  18.594  0.00  0.00    +0.000 C 
ATOM      3  C   UNL     1       7.078   6.978  17.458  0.00  0.00    +0.000 C 
ATOM      4  O   UNL     1       6.837   7.943  16.747  0.00  0.00    +0.000 OA
ATOM      5  N   UNL     1       6.467   5.761  17.411  0.00  0.00    +0.000 N 
ATOM      6  C   UNL     1       6.835   4.962  18.456  0.00  0.00    +0.000 C 
ATOM      7  O   UNL     1       6.286   3.936  18.832  0.00  0.00    +0.000 OA
ENDROOT
BRANCH   1   8
ATOM      8  N   UNL     1       8.099   5.447  20.533  0.00  0.00    +0.000 NA
ATOM      9  H   UNL     1       7.142   5.410  20.884  0.00  0.00    +0.000 HD
ATOM     10  H   UNL     1       8.512   6.300  20.921  0.00  0.00    +0.000 HD
ENDBRANCH   1   8
BRANCH   5  11
ATOM     11  C   UNL     1       5.373   5.452  16.517  0.00  0.00    +0.000 C 
BRANCH  11  12
ATOM     12  C   UNL     1       4.108   5.067  17.257  0.00  0.00    +0.000 A 
ATOM     13  C   UNL     1       3.489   5.974  18.148  0.00  0.00    +0.000 A 
ATOM     14  C   UNL     1       2.356   5.604  18.882  0.00  0.00    +0.000 A 
ATOM     15  C   UNL     1       1.862   4.328  18.704  0.00  0.00    +0.000 A 
ATOM     16  C   UNL     1       2.437   3.451  17.818  0.00  0.00    +0.000 A 
ATOM     17  C   UNL     1       3.548   3.791  17.073  0.00  0.00    +0.000 A 
ATOM     18  O   UNL     1       1.804   2.247  17.793  0.00  0.00    +0.000 OA
ATOM     19  C   UNL     1       0.810   2.444  18.818  0.00  0.00    +0.000 C 
ATOM     20  O   UNL     1       0.797   3.785  19.353  0.00  0.00    +0.000 OA
ENDBRANCH  11  12
ENDBRANCH   5  11
TORSDOF 3
ENDMDL
MODEL 4
REMARK VINA RESULT:      -7.2      1.592      1.807
REMARK  Name = 
REMARK  3 active torsions:
REMARK  status: ('A' for Active; 'I' for Inactive)
REMARK    1  A    between atoms: N_1  and  C_2
REMARK    2  A    between atoms: N_6  and  C_7
REMARK    3  A    between atoms: C_7  and  C_8
REMARK                            x       y       z     vdW  Elec       q    Type
REMARK                         _______ _______ _______ _____ _____    ______ ____
ROOT
ATOM      1  C   UNL     1       1.191   2.964  20.620  0.00  0.00    +0.000 C 
ATOM      2  C   UNL     1       1.668   2.123  19.448  0.00  0.00    +0.000 C 
ATOM      3  C   UNL     1       1.943   3.139  18.374  0.00  0.00    +0.000 C 
ATOM      4  O   UNL     1       2.270   2.849  17.232  0.00  0.00    +0.000 OA
ATOM      5  N   UNL     1       1.845   4.392  18.899  0.00  0.00    +0.000 N 
ATOM      6  C   UNL     1       1.637   4.368  20.249  0.00  0.00    +0.000 C 
ATOM      7  O   UNL     1       1.757   5.299  21.032  0.00  0.00    +0.000 OA
ENDROOT
BRANCH   1   8
ATOM      8  N   UNL     1       1.754   2.522  21.899  0.00  0.00    +0.000 NA
ATOM      9  H   UNL     1       1.774   1.503  21.935  0.00  0.00    +0.000 HD
ATOM     10  H   UNL     1       1.126   2.821  22.651  0.00  0.00    +0.000 HD
ENDBRANCH   1   8
BRANCH   5  11
ATOM     11  C   UNL     1       2.178   5.593  18.163  0.00  0.00    +0.000 C 
BRANCH  11  12
ATOM     12  C   UNL     1       3.673   5.829  18.083  0.00  0.00    +0.000 A 
ATOM     13  C   UNL     1       4.249   6.421  16.935  0.00  0.00    +0.000 A 
ATOM     14  C   UNL     1       5.636   6.585  16.829  0.00  0.00    +0.000 A 
ATOM     15  C   UNL     1       6.419   6.154  17.880  0.00  0.00    +0.000 A 
ATOM     16  C   UNL     1       5.866   5.606  19.011  0.00  0.00    +0.000 A 
ATOM     17  C   UNL     1       4.502   5.441  19.150  0.00  0.00    +0.000 A 
ATOM     18  O   UNL     1       6.805   5.244  19.926  0.00  0.00    +0.000 OA
ATOM     19  C   UNL     1       8.015   5.559  19.209  0.00  0.00    +0.000 C 
ATOM     20  O   UNL     1       7.776   6.200  17.937  0.00  0.00    +0.000 OA
ENDBRANCH  11  12
ENDBRANCH   5  11
TORSDOF 3
ENDMDL
MODEL 5
REMARK VINA RESULT:      -7.2      2.569      5.928
REMARK  Name = 
REMARK  3 active torsions:
REMARK  status: ('A' for Active; 'I' for Inactive)
REMARK    1  A    between atoms: N_1  and  C_2
REMARK    2  A    between atoms: N_6  and  C_7
REMARK    3  A    between atoms: C_7  and  C_8
REMARK                            x       y       z     vdW  Elec       q    Type
REMARK                         _______ _______ _______ _____ _____    ______ ____
ROOT
ATOM      1  C   UNL     1       7.084   4.308  17.213  0.00  0.00    +0.000 C 
ATOM      2  C   UNL     1       7.043   5.131  15.937  0.00  0.00    +0.000 C 
ATOM      3  C   UNL     1       5.810   5.975  16.100  0.00  0.00    +0.000 C 
ATOM      4  O   UNL     1       5.378   6.723  15.235  0.00  0.00    +0.000 OA
ATOM      5  N   UNL     1       5.321   5.823  17.364  0.00  0.00    +0.000 N 
ATOM      6  C   UNL     1       6.136   5.050  18.140  0.00  0.00    +0.000 C 
ATOM      7  O   UNL     1       6.111   4.940  19.357  0.00  0.00    +0.000 OA
ENDROOT
BRANCH   1   8
ATOM      8  N   UNL     1       8.435   4.197  17.772  0.00  0.00    +0.000 NA
ATOM      9  H   UNL     1       8.382   3.952  18.761  0.00  0.00    +0.000 HD
ATOM     10  H   UNL     1       8.880   5.119  17.731  0.00  0.00    +0.000 HD
ENDBRANCH   1   8
BRANCH   5  11
ATOM     11  C   UNL     1       4.217   6.597  17.888  0.00  0.00    +0.000 C 
BRANCH  11  12
ATOM     12  C   UNL     1       3.156   5.730  18.536  0.00  0.00    +0.000 A 
ATOM     13  C   UNL     1       2.664   6.034  19.827  0.00  0.00    +0.000 A 
ATOM     14  C   UNL     1       1.730   5.203  20.456  0.00  0.00    +0.000 A 
ATOM     15  C   UNL     1       1.304   4.081  19.775  0.00  0.00    +0.000 A 
ATOM     16  C   UNL     1       1.753   3.793  18.511  0.00  0.00    +0.000 A 
ATOM     17  C   UNL     1       2.665   4.600  17.860  0.00  0.00    +0.000 A 
ATOM     18  O   UNL     1       1.217   2.645  18.017  0.00  0.00    +0.000 OA
ATOM     19  C   UNL     1       0.436   2.205  19.146  0.00  0.00    +0.000 C 
ATOM     20  O   UNL     1       0.433   3.146  20.241  0.00  0.00    +0.000 OA
ENDBRANCH  11  12
ENDBRANCH   5  11
TORSDOF 3
ENDMDL
MODEL 6
REMARK VINA RESULT:      -7.2      3.529      4.330
REMARK  Name = 
REMARK  3 active torsions:
REMARK  status: ('A' for Active; 'I' for Inactive)
REMARK    1  A    between atoms: N_1  and  C_2
REMARK    2  A    between atoms: N_6  and  C_7
REMARK    3  A    between atoms: C_7  and  C_8
REMARK                            x       y       z     vdW  Elec       q    Type
REMARK                         _______ _______ _______ _____ _____    ______ ____
ROOT
ATOM      1  C   UNL     1       4.157   2.465  19.894  0.00  0.00    +0.000 C 
ATOM      2  C   UNL     1       3.016   2.032  18.990  0.00  0.00    +0.000 C 
ATOM      3  C   UNL     1       2.765   3.241  18.133  0.00  0.00    +0.000 C 
ATOM      4  O   UNL     1       1.855   3.323  17.322  0.00  0.00    +0.000 OA
ATOM      5  N   UNL     1       3.743   4.164  18.355  0.00  0.00    +0.000 N 
ATOM      6  C   UNL     1       4.712   3.693  19.194  0.00  0.00    +0.000 C 
ATOM      7  O   UNL     1       5.823   4.170  19.381  0.00  0.00    +0.000 OA
ENDROOT
BRANCH   1   8
ATOM      8  N   UNL     1       5.169   1.419  20.069  0.00  0.00    +0.000 NA
ATOM      9  H   UNL     1       5.014   0.930  20.950  0.00  0.00    +0.000 HD
ATOM     10  H   UNL     1       6.087   1.866  20.149  0.00  0.00    +0.000 HD
ENDBRANCH   1   8
BRANCH   5  11
ATOM     11  C   UNL     1       3.870   5.389  17.594  0.00  0.00    +0.000 C 
BRANCH  11  12
ATOM     12  C   UNL     1       3.142   6.551  18.238  0.00  0.00    +0.000 A 
ATOM     13  C   UNL     1       2.627   6.443  19.550  0.00  0.00    +0.000 A 
ATOM     14  C   UNL     1       1.900   7.490  20.128  0.00  0.00    +0.000 A 
ATOM     15  C   UNL     1       1.706   8.631  19.376  0.00  0.00    +0.000 A 
ATOM     16  C   UNL     1       2.228   8.758  18.113  0.00  0.00    +0.000 A 
ATOM     17  C   UNL     1       2.959   7.747  17.521  0.00  0.00    +0.000 A 
ATOM     18  O   UNL     1       1.923   9.953  17.541  0.00  0.00    +0.000 OA
ATOM     19  C   UNL     1       1.086  10.534  18.561  0.00  0.00    +0.000 C 
ATOM     20  O   UNL     1       1.000   9.729  19.757  0.00  0.00    +0.000 OA
ENDBRANCH  11  12
ENDBRANCH   5  11
TORSDOF 3
ENDMDL
MODEL 7
REMARK VINA RESULT:      -7.1      3.456      4.296
REMARK  Name = 
REMARK  3 active torsions:
REMARK  status: ('A' for Active; 'I' for Inactive)
REMARK    1  A    between atoms: N_1  and  C_2
REMARK    2  A    between atoms: N_6  and  C_7
REMARK    3  A    between atoms: C_7  and  C_8
REMARK                            x       y       z     vdW  Elec       q    Type
REMARK                         _______ _______ _______ _____ _____    ______ ____
ROOT
ATOM      1  C   UNL     1       4.126   2.581  19.818  0.00  0.00    +0.000 C 
ATOM      2  C   UNL     1       3.044   2.143  18.847  0.00  0.00    +0.000 C 
ATOM      3  C   UNL     1       2.811   3.364  18.002  0.00  0.00    +0.000 C 
ATOM      4  O   UNL     1       1.941   3.444  17.147  0.00  0.00    +0.000 OA
ATOM      5  N   UNL     1       3.755   4.303  18.293  0.00  0.00    +0.000 N 
ATOM      6  C   UNL     1       4.690   3.835  19.171  0.00  0.00    +0.000 C 
ATOM      7  O   UNL     1       5.779   4.331  19.426  0.00  0.00    +0.000 OA
ENDROOT
BRANCH   1   8
ATOM      8  N   UNL     1       5.151   1.553  20.024  0.00  0.00    +0.000 NA
ATOM      9  H   UNL     1       5.988   1.974  20.426  0.00  0.00    +0.000 HD
ATOM     10  H   UNL     1       5.429   1.184  19.110  0.00  0.00    +0.000 HD
ENDBRANCH   1   8
BRANCH   5  11
ATOM     11  C   UNL     1       3.894   5.545  17.564  0.00  0.00    +0.000 C 
BRANCH  11  12
ATOM     12  C   UNL     1       3.063   6.664  18.157  0.00  0.00    +0.000 A 
ATOM     13  C   UNL     1       2.770   7.824  17.404  0.00  0.00    +0.000 A 
ATOM     14  C   UNL     1       2.054   8.888  17.966  0.00  0.00    +0.000 A 
ATOM     15  C   UNL     1       1.642   8.765  19.278  0.00  0.00    +0.000 A 
ATOM     16  C   UNL     1       1.896   7.630  20.008  0.00  0.00    +0.000 A 
ATOM     17  C   UNL     1       2.588   6.561  19.477  0.00  0.00    +0.000 A 
ATOM     18  O   UNL     1       1.410   7.708  21.276  0.00  0.00    +0.000 OA
ATOM     19  C   UNL     1       0.889   9.053  21.282  0.00  0.00    +0.000 C 
ATOM     20  O   UNL     1       0.972   9.704  19.996  0.00  0.00    +0.000 OA
ENDBRANCH  11  12
ENDBRANCH   5  11
TORSDOF 3
ENDMDL
MODEL 8
REMARK VINA RESULT:      -7.1      0.780      1.920
REMARK  Name = 
REMARK  3 active torsions:
REMARK  status: ('A' for Active; 'I' for Inactive)
REMARK    1  A    between atoms: N_1  and  C_2
REMARK    2  A    between atoms: N_6  and  C_7
REMARK    3  A    between atoms: C_7  and  C_8
REMARK                            x       y       z     vdW  Elec       q    Type
REMARK                         _______ _______ _______ _____ _____    ______ ____
ROOT
ATOM      1  C   UNL     1       1.465   3.096  19.953  0.00  0.00    +0.000 C 
ATOM      2  C   UNL     1       2.626   2.745  20.867  0.00  0.00    +0.000 C 
ATOM      3  C   UNL     1       3.779   2.559  19.919  0.00  0.00    +0.000 C 
ATOM      4  O   UNL     1       4.889   2.182  20.264  0.00  0.00    +0.000 OA
ATOM      5  N   UNL     1       3.403   2.947  18.668  0.00  0.00    +0.000 N 
ATOM      6  C   UNL     1       2.148   3.485  18.653  0.00  0.00    +0.000 C 
ATOM      7  O   UNL     1       1.637   4.143  17.758  0.00  0.00    +0.000 OA
ENDROOT
BRANCH   1   8
ATOM      8  N   UNL     1       0.631   4.177  20.488  0.00  0.00    +0.000 NA
ATOM      9  H   UNL     1       0.951   4.432  21.422  0.00  0.00    +0.000 HD
ATOM     10  H   UNL     1      -0.324   3.825  20.600  0.00  0.00    +0.000 HD
ENDBRANCH   1   8
BRANCH   5  11
ATOM     11  C   UNL     1       4.316   3.018  17.548  0.00  0.00    +0.000 C 
BRANCH  11  12
ATOM     12  C   UNL     1       5.010   4.361  17.448  0.00  0.00    +0.000 A 
ATOM     13  C   UNL     1       4.607   5.311  16.481  0.00  0.00    +0.000 A 
ATOM     14  C   UNL     1       5.283   6.530  16.342  0.00  0.00    +0.000 A 
ATOM     15  C   UNL     1       6.351   6.773  17.182  0.00  0.00    +0.000 A 
ATOM     16  C   UNL     1       6.730   5.870  18.144  0.00  0.00    +0.000 A 
ATOM     17  C   UNL     1       6.076   4.666  18.312  0.00  0.00    +0.000 A 
ATOM     18  O   UNL     1       7.803   6.296  18.864  0.00  0.00    +0.000 OA
ATOM     19  C   UNL     1       8.101   7.537  18.193  0.00  0.00    +0.000 C 
ATOM     20  O   UNL     1       7.142   7.879  17.169  0.00  0.00    +0.000 OA
ENDBRANCH  11  12
ENDBRANCH   5  11
TORSDOF 3
ENDMDL
MODEL 9
REMARK VINA RESULT:      -7.1      2.610      6.189
REMARK  Name = 
REMARK  3 active torsions:
REMARK  status: ('A' for Active; 'I' for Inactive)
REMARK    1  A    between atoms: N_1  and  C_2
REMARK    2  A    between atoms: N_6  and  C_7
REMARK    3  A    between atoms: C_7  and  C_8
REMARK                            x       y       z     vdW  Elec       q    Type
REMARK                         _______ _______ _______ _____ _____    ______ ____
ROOT
ATOM      1  C   UNL     1       7.175   5.680  16.360  0.00  0.00    +0.000 C 
ATOM      2  C   UNL     1       7.255   5.033  17.731  0.00  0.00    +0.000 C 
ATOM      3  C   UNL     1       6.096   5.638  18.475  0.00  0.00    +0.000 C 
ATOM      4  O   UNL     1       5.865   5.432  19.658  0.00  0.00    +0.000 OA
ATOM      5  N   UNL     1       5.333   6.365  17.611  0.00  0.00    +0.000 N 
ATOM      6  C   UNL     1       5.767   6.249  16.321  0.00  0.00    +0.000 C 
ATOM      7  O   UNL     1       5.161   6.563  15.306  0.00  0.00    +0.000 OA
ENDROOT
BRANCH   1   8
ATOM      8  N   UNL     1       7.421   4.730  15.271  0.00  0.00    +0.000 NA
ATOM      9  H   UNL     1       8.110   4.037  15.564  0.00  0.00    +0.000 HD
ATOM     10  H   UNL     1       7.842   5.236  14.487  0.00  0.00    +0.000 HD
ENDBRANCH   1   8
BRANCH   5  11
ATOM     11  C   UNL     1       4.071   6.969  17.978  0.00  0.00    +0.000 C 
BRANCH  11  12
ATOM     12  C   UNL     1       3.090   5.965  18.549  0.00  0.00    +0.000 A 
ATOM     13  C   UNL     1       2.565   6.130  19.852  0.00  0.00    +0.000 A 
ATOM     14  C   UNL     1       1.707   5.175  20.409  0.00  0.00    +0.000 A 
ATOM     15  C   UNL     1       1.388   4.070  19.645  0.00  0.00    +0.000 A 
ATOM     16  C   UNL     1       1.869   3.917  18.368  0.00  0.00    +0.000 A 
ATOM     17  C   UNL     1       2.707   4.848  17.788  0.00  0.00    +0.000 A 
ATOM     18  O   UNL     1       1.441   2.764  17.787  0.00  0.00    +0.000 OA
ATOM     19  C   UNL     1       0.698   2.175  18.872  0.00  0.00    +0.000 C 
ATOM     20  O   UNL     1       0.603   3.030  20.032  0.00  0.00    +0.000 OA
ENDBRANCH  11  12
ENDBRANCH   5  11
TORSDOF 3
ENDMDL
