MODEL 1
REMARK VINA RESULT:      -7.7      0.000      0.000
REMARK  Name = 
REMARK  4 active torsions:
REMARK  status: ('A' for Active; 'I' for Inactive)
REMARK    1  A    between atoms: C_2  and  O_3
REMARK    2  A    between atoms: C_2  and  C_4
REMARK    3  A    between atoms: C_4  and  C_5
REMARK    4  A    between atoms: C_5  and  C_6
REMARK                            x       y       z     vdW  Elec       q    Type
REMARK                         _______ _______ _______ _____ _____    ______ ____
ROOT
ATOM      1  C   UNL     1       3.075   4.194  18.381  0.00  0.00    +0.000 C 
ATOM      2  C   UNL     1       2.220   2.956  17.936  0.00  0.00    +0.000 C 
ATOM      3  C   UNL     1       0.894   2.817  18.708  0.00  0.00    +0.000 C 
ATOM      4  C   UNL     1       0.920   3.097  20.206  0.00  0.00    +0.000 C 
ATOM      5  C   UNL     1       2.081   3.922  20.743  0.00  0.00    +0.000 C 
ATOM      6  C   UNL     1       3.363   3.920  19.892  0.00  0.00    +0.000 C 
ATOM      7  C   UNL     1       4.164   2.622  20.135  0.00  0.00    +0.000 C 
ATOM      8  C   UNL     1       3.971   1.462  19.164  0.00  0.00    +0.000 C 
ATOM      9  C   UNL     1       3.017   1.639  17.993  0.00  0.00    +0.000 C 
ENDROOT
BRANCH   1  10
ATOM     10  C   UNL     1       4.364   4.378  17.526  0.00  0.00    +0.000 A 
ATOM     11  C   UNL     1       4.333   4.278  16.120  0.00  0.00    +0.000 A 
ATOM     12  C   UNL     1       5.493   4.417  15.351  0.00  0.00    +0.000 A 
ATOM     13  C   UNL     1       6.704   4.663  15.978  0.00  0.00    +0.000 A 
ATOM     14  F   UNL     1       7.817   4.807  15.246  0.00  0.00    +0.000 F 
ATOM     15  C   UNL     1       6.780   4.741  17.358  0.00  0.00    +0.000 A 
ATOM     16  C   UNL     1       5.625   4.584  18.126  0.00  0.00    +0.000 A 
ENDBRANCH   1  10
BRANCH   1  17
ATOM     17  C   UNL     1       2.220   5.481  18.151  0.00  0.00    +0.000 C 
BRANCH  17  19
ATOM     18  O   UNL     1       3.558   7.467  17.822  0.00  0.00    +0.000 OA
ATOM     19  C   UNL     1       2.879   6.777  18.567  0.00  0.00    +0.000 C 
BRANCH  19  20
ATOM     20  O   UNL     1       2.664   7.110  19.858  0.00  0.00    +0.000 OA
ATOM     21  H   UNL     1       3.115   6.526  20.498  0.00  0.00    +0.000 HD
ENDBRANCH  19  20
ENDBRANCH  17  19
ENDBRANCH   1  17
TORSDOF 4
ENDMDL
MODEL 2
REMARK VINA RESULT:      -7.6      0.033      1.076
REMARK  Name = 
REMARK  4 active torsions:
REMARK  status: ('A' for Active; 'I' for Inactive)
REMARK    1  A    between atoms: C_2  and  O_3
REMARK    2  A    between atoms: C_2  and  C_4
REMARK    3  A    between atoms: C_4  and  C_5
REMARK    4  A    between atoms: C_5  and  C_6
REMARK                            x       y       z     vdW  Elec       q    Type
REMARK                         _______ _______ _______ _____ _____    ______ ____
ROOT
ATOM      1  C   UNL     1       3.084   4.183  18.374  0.00  0.00    +0.000 C 
ATOM      2  C   UNL     1       2.217   2.950  17.941  0.00  0.00    +0.000 C 
ATOM      3  C   UNL     1       0.891   2.830  18.715  0.00  0.00    +0.000 C 
ATOM      4  C   UNL     1       0.921   3.123  20.211  0.00  0.00    +0.000 C 
ATOM      5  C   UNL     1       2.090   3.941  20.739  0.00  0.00    +0.000 C 
ATOM      6  C   UNL     1       3.372   3.920  19.887  0.00  0.00    +0.000 C 
ATOM      7  C   UNL     1       4.160   2.617  20.140  0.00  0.00    +0.000 C 
ATOM      8  C   UNL     1       3.955   1.450  19.180  0.00  0.00    +0.000 C 
ATOM      9  C   UNL     1       3.002   1.626  18.008  0.00  0.00    +0.000 C 
ENDROOT
BRANCH   1  10
ATOM     10  C   UNL     1       4.374   4.348  17.516  0.00  0.00    +0.000 A 
ATOM     11  C   UNL     1       5.628   4.588  18.113  0.00  0.00    +0.000 A 
ATOM     12  C   UNL     1       6.784   4.762  17.345  0.00  0.00    +0.000 A 
ATOM     13  C   UNL     1       6.702   4.694  15.963  0.00  0.00    +0.000 A 
ATOM     14  F   UNL     1       7.807   4.850  15.222  0.00  0.00    +0.000 F 
ATOM     15  C   UNL     1       5.485   4.487  15.338  0.00  0.00    +0.000 A 
ATOM     16  C   UNL     1       4.328   4.331  16.105  0.00  0.00    +0.000 A 
ENDBRANCH   1  10
BRANCH   1  17
ATOM     17  C   UNL     1       2.241   5.477  18.133  0.00  0.00    +0.000 C 
BRANCH  17  19
ATOM     18  O   UNL     1       3.601   7.448  17.808  0.00  0.00    +0.000 OA
ATOM     19  C   UNL     1       2.907   6.769  18.550  0.00  0.00    +0.000 C 
BRANCH  19  20
ATOM     20  O   UNL     1       2.681   7.111  19.837  0.00  0.00    +0.000 OA
ATOM     21  H   UNL     1       3.473   7.439  20.305  0.00  0.00    +0.000 HD
ENDBRANCH  19  20
ENDBRANCH  17  19
ENDBRANCH   1  17
TORSDOF 4
ENDMDL
MODEL 3
REMARK VINA RESULT:      -7.6      2.218      3.600
REMARK  Name = 
REMARK  4 active torsions:
REMARK  status: ('A' for Active; 'I' for Inactive)
REMARK    1  A    between atoms: C_2  and  O_3
REMARK    2  A    between atoms: C_2  and  C_4
REMARK    3  A    between atoms: C_4  and  C_5
REMARK    4  A    between atoms: C_5  and  C_6
REMARK                            x       y       z     vdW  Elec       q    Type
REMARK                         _______ _______ _______ _____ _____    ______ ____
ROOT
ATOM      1  C   UNL     1       3.530   3.880  19.105  0.00  0.00    +0.000 C 
ATOM      2  C   UNL     1       3.234   5.168  19.950  0.00  0.00    +0.000 C 
ATOM      3  C   UNL     1       2.157   4.958  21.031  0.00  0.00    +0.000 C 
ATOM      4  C   UNL     1       0.941   4.119  20.658  0.00  0.00    +0.000 C 
ATOM      5  C   UNL     1       1.076   3.184  19.465  0.00  0.00    +0.000 C 
ATOM      6  C   UNL     1       2.157   3.554  18.434  0.00  0.00    +0.000 C 
ATOM      7  C   UNL     1       1.650   4.678  17.506  0.00  0.00    +0.000 C 
ATOM      8  C   UNL     1       2.019   6.118  17.846  0.00  0.00    +0.000 C 
ATOM      9  C   UNL     1       2.883   6.382  19.069  0.00  0.00    +0.000 C 
ENDROOT
BRANCH   1  10
ATOM     10  C   UNL     1       4.689   4.080  18.083  0.00  0.00    +0.000 A 
ATOM     11  C   UNL     1       5.942   4.587  18.483  0.00  0.00    +0.000 A 
ATOM     12  C   UNL     1       6.977   4.792  17.564  0.00  0.00    +0.000 A 
ATOM     13  C   UNL     1       6.773   4.488  16.228  0.00  0.00    +0.000 A 
ATOM     14  F   UNL     1       7.763   4.673  15.344  0.00  0.00    +0.000 F 
ATOM     15  C   UNL     1       5.548   4.013  15.791  0.00  0.00    +0.000 A 
ATOM     16  C   UNL     1       4.511   3.826  16.706  0.00  0.00    +0.000 A 
ENDBRANCH   1  10
BRANCH   1  17
ATOM     17  C   UNL     1       4.010   2.759  20.082  0.00  0.00    +0.000 C 
BRANCH  17  19
ATOM     18  O   UNL     1       3.738   0.961  18.491  0.00  0.00    +0.000 OA
ATOM     19  C   UNL     1       4.353   1.438  19.431  0.00  0.00    +0.000 C 
BRANCH  19  20
ATOM     20  O   UNL     1       5.408   0.809  19.994  0.00  0.00    +0.000 OA
ATOM     21  H   UNL     1       6.183   1.385  20.137  0.00  0.00    +0.000 HD
ENDBRANCH  19  20
ENDBRANCH  17  19
ENDBRANCH   1  17
TORSDOF 4
ENDMDL
MODEL 4
REMARK VINA RESULT:      -7.6      2.213      3.435
REMARK  Name = 
REMARK  4 active torsions:
REMARK  status: ('A' for Active; 'I' for Inactive)
REMARK    1  A    between atoms: C_2  and  O_3
REMARK    2  A    between atoms: C_2  and  C_4
REMARK    3  A    between atoms: C_4  and  C_5
REMARK    4  A    between atoms: C_5  and  C_6
REMARK                            x       y       z     vdW  Elec       q    Type
REMARK                         _______ _______ _______ _____ _____    ______ ____
ROOT
ATOM      1  C   UNL     1       3.547   3.909  19.094  0.00  0.00    +0.000 C 
ATOM      2  C   UNL     1       3.235   5.188  19.946  0.00  0.00    +0.000 C 
ATOM      3  C   UNL     1       2.170   4.955  21.034  0.00  0.00    +0.000 C 
ATOM      4  C   UNL     1       0.965   4.097  20.666  0.00  0.00    +0.000 C 
ATOM      5  C   UNL     1       1.107   3.170  19.468  0.00  0.00    +0.000 C 
ATOM      6  C   UNL     1       2.175   3.562  18.432  0.00  0.00    +0.000 C 
ATOM      7  C   UNL     1       1.641   4.682  17.512  0.00  0.00    +0.000 C 
ATOM      8  C   UNL     1       1.988   6.127  17.856  0.00  0.00    +0.000 C 
ATOM      9  C   UNL     1       2.857   6.400  19.073  0.00  0.00    +0.000 C 
ENDROOT
BRANCH   1  10
ATOM     10  C   UNL     1       4.695   4.133  18.064  0.00  0.00    +0.000 A 
ATOM     11  C   UNL     1       4.531   3.817  16.701  0.00  0.00    +0.000 A 
ATOM     12  C   UNL     1       5.567   3.992  15.778  0.00  0.00    +0.000 A 
ATOM     13  C   UNL     1       6.786   4.493  16.207  0.00  0.00    +0.000 A 
ATOM     14  F   UNL     1       7.780   4.672  15.327  0.00  0.00    +0.000 F 
ATOM     15  C   UNL     1       6.995   4.790  17.543  0.00  0.00    +0.000 A 
ATOM     16  C   UNL     1       5.966   4.598  18.466  0.00  0.00    +0.000 A 
ENDBRANCH   1  10
BRANCH   1  17
ATOM     17  C   UNL     1       4.052   2.792  20.063  0.00  0.00    +0.000 C 
BRANCH  17  19
ATOM     18  O   UNL     1       3.725   1.003  18.472  0.00  0.00    +0.000 OA
ATOM     19  C   UNL     1       4.355   1.461  19.412  0.00  0.00    +0.000 C 
BRANCH  19  20
ATOM     20  O   UNL     1       5.390   0.800  19.975  0.00  0.00    +0.000 OA
ATOM     21  H   UNL     1       6.194   0.778  19.422  0.00  0.00    +0.000 HD
ENDBRANCH  19  20
ENDBRANCH  17  19
ENDBRANCH   1  17
TORSDOF 4
ENDMDL
MODEL 5
REMARK VINA RESULT:      -7.4      1.015      1.053
REMARK  Name = 
REMARK  4 active torsions:
REMARK  status: ('A' for Active; 'I' for Inactive)
REMARK    1  A    between atoms: C_2  and  O_3
REMARK    2  A    between atoms: C_2  and  C_4
REMARK    3  A    between atoms: C_4  and  C_5
REMARK    4  A    between atoms: C_5  and  C_6
REMARK                            x       y       z     vdW  Elec       q    Type
REMARK                         _______ _______ _______ _____ _____    ______ ____
ROOT
ATOM      1  C   UNL     1       2.877   4.553  18.770  0.00  0.00    +0.000 C 
ATOM      2  C   UNL     1       2.312   3.338  17.956  0.00  0.00    +0.000 C 
ATOM      3  C   UNL     1       0.931   2.860  18.447  0.00  0.00    +0.000 C 
ATOM      4  C   UNL     1       0.699   2.811  19.952  0.00  0.00    +0.000 C 
ATOM      5  C   UNL     1       1.619   3.648  20.829  0.00  0.00    +0.000 C 
ATOM      6  C   UNL     1       2.991   4.001  20.227  0.00  0.00    +0.000 C 
ATOM      7  C   UNL     1       3.953   2.800  20.351  0.00  0.00    +0.000 C 
ATOM      8  C   UNL     1       4.095   1.861  19.158  0.00  0.00    +0.000 C 
ATOM      9  C   UNL     1       3.300   2.158  17.896  0.00  0.00    +0.000 C 
ENDROOT
BRANCH   1  10
ATOM     10  C   UNL     1       4.225   5.087  18.201  0.00  0.00    +0.000 A 
ATOM     11  C   UNL     1       4.405   5.305  16.820  0.00  0.00    +0.000 A 
ATOM     12  C   UNL     1       5.623   5.760  16.303  0.00  0.00    +0.000 A 
ATOM     13  C   UNL     1       6.680   6.009  17.163  0.00  0.00    +0.000 A 
ATOM     14  F   UNL     1       7.845   6.455  16.675  0.00  0.00    +0.000 F 
ATOM     15  C   UNL     1       6.551   5.783  18.523  0.00  0.00    +0.000 A 
ATOM     16  C   UNL     1       5.342   5.311  19.036  0.00  0.00    +0.000 A 
ENDBRANCH   1  10
BRANCH   1  17
ATOM     17  C   UNL     1       1.862   5.734  18.647  0.00  0.00    +0.000 C 
BRANCH  17  19
ATOM     18  O   UNL     1       2.725   7.983  18.458  0.00  0.00    +0.000 OA
ATOM     19  C   UNL     1       2.352   7.065  19.172  0.00  0.00    +0.000 C 
BRANCH  19  20
ATOM     20  O   UNL     1       2.357   7.153  20.519  0.00  0.00    +0.000 OA
ATOM     21  H   UNL     1       1.789   6.493  20.962  0.00  0.00    +0.000 HD
ENDBRANCH  19  20
ENDBRANCH  17  19
ENDBRANCH   1  17
TORSDOF 4
ENDMDL
MODEL 6
REMARK VINA RESULT:      -7.4      2.650      4.460
REMARK  Name = 
REMARK  4 active torsions:
REMARK  status: ('A' for Active; 'I' for Inactive)
REMARK    1  A    between atoms: C_2  and  O_3
REMARK    2  A    between atoms: C_2  and  C_4
REMARK    3  A    between atoms: C_4  and  C_5
REMARK    4  A    between atoms: C_5  and  C_6
REMARK                            x       y       z     vdW  Elec       q    Type
REMARK                         _______ _______ _______ _____ _____    ______ ____
ROOT
ATOM      1  C   UNL     1       3.161   4.462  18.597  0.00  0.00    +0.000 C 
ATOM      2  C   UNL     1       3.445   3.668  19.919  0.00  0.00    +0.000 C 
ATOM      3  C   UNL     1       4.056   2.274  19.678  0.00  0.00    +0.000 C 
ATOM      4  C   UNL     1       3.499   1.452  18.521  0.00  0.00    +0.000 C 
ATOM      5  C   UNL     1       2.748   2.201  17.430  0.00  0.00    +0.000 C 
ATOM      6  C   UNL     1       2.141   3.557  17.834  0.00  0.00    +0.000 C 
ATOM      7  C   UNL     1       0.821   3.342  18.605  0.00  0.00    +0.000 C 
ATOM      8  C   UNL     1       0.866   3.337  20.129  0.00  0.00    +0.000 C 
ATOM      9  C   UNL     1       2.201   3.562  20.822  0.00  0.00    +0.000 C 
ENDROOT
BRANCH   1  10
ATOM     10  C   UNL     1       2.636   5.905  18.858  0.00  0.00    +0.000 A 
ATOM     11  C   UNL     1       2.531   6.849  17.817  0.00  0.00    +0.000 A 
ATOM     12  C   UNL     1       2.085   8.153  18.053  0.00  0.00    +0.000 A 
ATOM     13  C   UNL     1       1.732   8.532  19.338  0.00  0.00    +0.000 A 
ATOM     14  F   UNL     1       1.294   9.778  19.568  0.00  0.00    +0.000 F 
ATOM     15  C   UNL     1       1.847   7.643  20.392  0.00  0.00    +0.000 A 
ATOM     16  C   UNL     1       2.309   6.347  20.159  0.00  0.00    +0.000 A 
ENDBRANCH   1  10
BRANCH   1  17
ATOM     17  C   UNL     1       4.513   4.630  17.831  0.00  0.00    +0.000 C 
BRANCH  17  19
ATOM     18  O   UNL     1       5.779   5.656  19.616  0.00  0.00    +0.000 OA
ATOM     19  C   UNL     1       5.728   4.843  18.706  0.00  0.00    +0.000 C 
BRANCH  19  20
ATOM     20  O   UNL     1       6.779   4.057  18.383  0.00  0.00    +0.000 OA
ATOM     21  H   UNL     1       6.736   3.161  18.768  0.00  0.00    +0.000 HD
ENDBRANCH  19  20
ENDBRANCH  17  19
ENDBRANCH   1  17
TORSDOF 4
ENDMDL
MODEL 7
REMARK VINA RESULT:      -7.3      2.656      4.560
REMARK  Name = 
REMARK  4 active torsions:
REMARK  status: ('A' for Active; 'I' for Inactive)
REMARK    1  A    between atoms: C_2  and  O_3
REMARK    2  A    between atoms: C_2  and  C_4
REMARK    3  A    between atoms: C_4  and  C_5
REMARK    4  A    between atoms: C_5  and  C_6
REMARK                            x       y       z     vdW  Elec       q    Type
REMARK                         _______ _______ _______ _____ _____    ______ ____
ROOT
ATOM      1  C   UNL     1       3.194   4.481  18.585  0.00  0.00    +0.000 C 
ATOM      2  C   UNL     1       3.467   3.679  19.905  0.00  0.00    +0.000 C 
ATOM      3  C   UNL     1       4.059   2.278  19.659  0.00  0.00    +0.000 C 
ATOM      4  C   UNL     1       3.490   1.468  18.500  0.00  0.00    +0.000 C 
ATOM      5  C   UNL     1       2.751   2.231  17.411  0.00  0.00    +0.000 C 
ATOM      6  C   UNL     1       2.162   3.593  17.819  0.00  0.00    +0.000 C 
ATOM      7  C   UNL     1       0.839   3.395  18.589  0.00  0.00    +0.000 C 
ATOM      8  C   UNL     1       0.884   3.384  20.113  0.00  0.00    +0.000 C 
ATOM      9  C   UNL     1       2.222   3.588  20.806  0.00  0.00    +0.000 C 
ENDROOT
BRANCH   1  10
ATOM     10  C   UNL     1       2.690   5.931  18.851  0.00  0.00    +0.000 A 
ATOM     11  C   UNL     1       2.319   6.354  20.143  0.00  0.00    +0.000 A 
ATOM     12  C   UNL     1       1.840   7.647  20.382  0.00  0.00    +0.000 A 
ATOM     13  C   UNL     1       1.731   8.539  19.328  0.00  0.00    +0.000 A 
ATOM     14  F   UNL     1       1.283   9.783  19.552  0.00  0.00    +0.000 F 
ATOM     15  C   UNL     1       2.060   8.154  18.040  0.00  0.00    +0.000 A 
ATOM     16  C   UNL     1       2.520   6.858  17.800  0.00  0.00    +0.000 A 
ENDBRANCH   1  10
BRANCH   1  17
ATOM     17  C   UNL     1       4.549   4.633  17.820  0.00  0.00    +0.000 C 
BRANCH  17  19
ATOM     18  O   UNL     1       5.817   5.649  19.609  0.00  0.00    +0.000 OA
ATOM     19  C   UNL     1       5.765   4.840  18.695  0.00  0.00    +0.000 C 
BRANCH  19  20
ATOM     20  O   UNL     1       6.814   4.054  18.369  0.00  0.00    +0.000 OA
ATOM     21  H   UNL     1       7.024   4.050  17.415  0.00  0.00    +0.000 HD
ENDBRANCH  19  20
ENDBRANCH  17  19
ENDBRANCH   1  17
TORSDOF 4
ENDMDL
MODEL 8
REMARK VINA RESULT:      -7.2      0.829      1.032
REMARK  Name = 
REMARK  4 active torsions:
REMARK  status: ('A' for Active; 'I' for Inactive)
REMARK    1  A    between atoms: C_2  and  O_3
REMARK    2  A    between atoms: C_2  and  C_4
REMARK    3  A    between atoms: C_4  and  C_5
REMARK    4  A    between atoms: C_5  and  C_6
REMARK                            x       y       z     vdW  Elec       q    Type
REMARK                         _______ _______ _______ _____ _____    ______ ____
ROOT
ATOM      1  C   UNL     1       3.574   4.399  18.862  0.00  0.00    +0.000 C 
ATOM      2  C   UNL     1       2.235   3.853  18.254  0.00  0.00    +0.000 C 
ATOM      3  C   UNL     1       1.062   3.855  19.254  0.00  0.00    +0.000 C 
ATOM      4  C   UNL     1       1.360   3.428  20.687  0.00  0.00    +0.000 C 
ATOM      5  C   UNL     1       2.809   3.485  21.146  0.00  0.00    +0.000 C 
ATOM      6  C   UNL     1       3.874   3.415  20.038  0.00  0.00    +0.000 C 
ATOM      7  C   UNL     1       4.070   1.955  19.576  0.00  0.00    +0.000 C 
ATOM      8  C   UNL     1       3.305   1.476  18.347  0.00  0.00    +0.000 C 
ATOM      9  C   UNL     1       2.400   2.459  17.621  0.00  0.00    +0.000 C 
ENDROOT
BRANCH   1  10
ATOM     10  C   UNL     1       4.723   4.483  17.813  0.00  0.00    +0.000 A 
ATOM     11  C   UNL     1       4.471   4.346  16.433  0.00  0.00    +0.000 A 
ATOM     12  C   UNL     1       5.504   4.396  15.491  0.00  0.00    +0.000 A 
ATOM     13  C   UNL     1       6.808   4.588  15.917  0.00  0.00    +0.000 A 
ATOM     14  F   UNL     1       7.800   4.647  15.019  0.00  0.00    +0.000 F 
ATOM     15  C   UNL     1       7.100   4.701  17.266  0.00  0.00    +0.000 A 
ATOM     16  C   UNL     1       6.071   4.633  18.206  0.00  0.00    +0.000 A 
ENDBRANCH   1  10
BRANCH   1  17
ATOM     17  C   UNL     1       3.326   5.864  19.345  0.00  0.00    +0.000 C 
BRANCH  17  19
ATOM     18  O   UNL     1       1.834   7.072  17.877  0.00  0.00    +0.000 OA
ATOM     19  C   UNL     1       2.974   6.853  18.256  0.00  0.00    +0.000 C 
BRANCH  19  20
ATOM     20  O   UNL     1       4.045   7.476  17.717  0.00  0.00    +0.000 OA
ATOM     21  H   UNL     1       4.874   7.339  18.213  0.00  0.00    +0.000 HD
ENDBRANCH  19  20
ENDBRANCH  17  19
ENDBRANCH   1  17
TORSDOF 4
ENDMDL
MODEL 9
REMARK VINA RESULT:      -7.2      0.831      1.490
REMARK  Name = 
REMARK  4 active torsions:
REMARK  status: ('A' for Active; 'I' for Inactive)
REMARK    1  A    between atoms: C_2  and  O_3
REMARK    2  A    between atoms: C_2  and  C_4
REMARK    3  A    between atoms: C_4  and  C_5
REMARK    4  A    between atoms: C_5  and  C_6
REMARK                            x       y       z     vdW  Elec       q    Type
REMARK                         _______ _______ _______ _____ _____    ______ ____
ROOT
ATOM      1  C   UNL     1       3.598   4.374  18.853  0.00  0.00    +0.000 C 
ATOM      2  C   UNL     1       2.248   3.844  18.255  0.00  0.00    +0.000 C 
ATOM      3  C   UNL     1       1.081   3.865  19.260  0.00  0.00    +0.000 C 
ATOM      4  C   UNL     1       1.381   3.440  20.693  0.00  0.00    +0.000 C 
ATOM      5  C   UNL     1       2.833   3.479  21.145  0.00  0.00    +0.000 C 
ATOM      6  C   UNL     1       3.891   3.390  20.031  0.00  0.00    +0.000 C 
ATOM      7  C   UNL     1       4.065   1.926  19.574  0.00  0.00    +0.000 C 
ATOM      8  C   UNL     1       3.287   1.453  18.351  0.00  0.00    +0.000 C 
ATOM      9  C   UNL     1       2.392   2.445  17.626  0.00  0.00    +0.000 C 
ENDROOT
BRANCH   1  10
ATOM     10  C   UNL     1       4.743   4.439  17.799  0.00  0.00    +0.000 A 
ATOM     11  C   UNL     1       6.084   4.639  18.182  0.00  0.00    +0.000 A 
ATOM     12  C   UNL     1       7.112   4.724  17.237  0.00  0.00    +0.000 A 
ATOM     13  C   UNL     1       6.811   4.605  15.889  0.00  0.00    +0.000 A 
ATOM     14  F   UNL     1       7.792   4.676  14.979  0.00  0.00    +0.000 F 
ATOM     15  C   UNL     1       5.503   4.435  15.471  0.00  0.00    +0.000 A 
ATOM     16  C   UNL     1       4.476   4.368  16.414  0.00  0.00    +0.000 A 
ENDBRANCH   1  10
BRANCH   1  17
ATOM     17  C   UNL     1       3.372   5.844  19.332  0.00  0.00    +0.000 C 
BRANCH  17  19
ATOM     18  O   UNL     1       1.865   7.028  17.860  0.00  0.00    +0.000 OA
ATOM     19  C   UNL     1       3.007   6.829  18.244  0.00  0.00    +0.000 C 
BRANCH  19  20
ATOM     20  O   UNL     1       4.068   7.474  17.712  0.00  0.00    +0.000 OA
ATOM     21  H   UNL     1       4.037   8.444  17.820  0.00  0.00    +0.000 HD
ENDBRANCH  19  20
ENDBRANCH  17  19
ENDBRANCH   1  17
TORSDOF 4
ENDMDL
