MODEL 1
REMARK VINA RESULT:      -7.6      0.000      0.000
REMARK  Name = 
REMARK  4 active torsions:
REMARK  status: ('A' for Active; 'I' for Inactive)
REMARK    1  A    between atoms: C_1  and  C_2
REMARK    2  A    between atoms: C_6  and  C_7
REMARK    3  A    between atoms: C_10  and  C_11
REMARK    4  A    between atoms: C_14  and  C_15
REMARK                            x       y       z     vdW  Elec       q    Type
REMARK                         _______ _______ _______ _____ _____    ______ ____
ROOT
ATOM      1  C   UNL     1       3.554   6.452  18.054  0.00  0.00    +0.000 A 
ATOM      2  C   UNL     1       3.615   7.648  17.307  0.00  0.00    +0.000 A 
ATOM      3  C   UNL     1       2.799   8.747  17.538  0.00  0.00    +0.000 A 
ATOM      4  C   UNL     1       1.859   8.678  18.546  0.00  0.00    +0.000 A 
ATOM      5  C   UNL     1       1.727   7.492  19.276  0.00  0.00    +0.000 A 
ATOM      6  C   UNL     1       2.528   6.341  19.034  0.00  0.00    +0.000 A 
ENDROOT
BRANCH   1  12
ATOM      7  C   UNL     1       7.599   8.311  17.296  0.00  0.00    +0.000 C 
ATOM      8  C   UNL     1       7.504   6.793  17.053  0.00  0.00    +0.000 C 
ATOM      9  C   UNL     1       6.820   6.454  15.722  0.00  0.00    +0.000 C 
ATOM     10  C   UNL     1       6.156   5.085  15.636  0.00  0.00    +0.000 C 
ATOM     11  C   UNL     1       4.733   5.135  16.179  0.00  0.00    +0.000 C 
ATOM     12  C   UNL     1       4.581   5.363  17.692  0.00  0.00    +0.000 C 
ATOM     13  N   UNL     1       5.809   5.452  18.506  0.00  0.00    +0.000 N 
ATOM     14  C   UNL     1       5.909   4.825  19.731  0.00  0.00    +0.000 A 
ATOM     15  N   UNL     1       7.079   5.004  20.289  0.00  0.00    +0.000 NA
ATOM     16  C   UNL     1       7.778   5.761  19.399  0.00  0.00    +0.000 A 
ATOM     17  C   UNL     1       7.031   6.051  18.267  0.00  0.00    +0.000 A 
ENDBRANCH   1  12
BRANCH   6  18
ATOM     18  C   UNL     1       2.159   5.096  19.770  0.00  0.00    +0.000 A 
ATOM     19  C   UNL     1       2.601   4.910  21.102  0.00  0.00    +0.000 A 
ATOM     20  C   UNL     1       2.282   3.762  21.835  0.00  0.00    +0.000 A 
ATOM     21  C   UNL     1       1.459   2.804  21.268  0.00  0.00    +0.000 A 
ATOM     22  F   UNL     1       1.116   1.721  21.975  0.00  0.00    +0.000 F 
ATOM     23  C   UNL     1       1.005   2.946  19.967  0.00  0.00    +0.000 A 
ATOM     24  C   UNL     1       1.404   4.054  19.211  0.00  0.00    +0.000 A 
ENDBRANCH   6  18
BRANCH   4  25
ATOM     25  C   UNL     1       1.018   9.795  18.821  0.00  0.00    +0.000 C 
ATOM     26  N   UNL     1       0.325  10.706  19.038  0.00  0.00    +0.000 NA
ENDBRANCH   4  25
TORSDOF 3
ENDMDL
MODEL 2
REMARK VINA RESULT:      -6.9      2.868      5.624
REMARK  Name = 
REMARK  4 active torsions:
REMARK  status: ('A' for Active; 'I' for Inactive)
REMARK    1  A    between atoms: C_1  and  C_2
REMARK    2  A    between atoms: C_6  and  C_7
REMARK    3  A    between atoms: C_10  and  C_11
REMARK    4  A    between atoms: C_14  and  C_15
REMARK                            x       y       z     vdW  Elec       q    Type
REMARK                         _______ _______ _______ _____ _____    ______ ____
ROOT
ATOM      1  C   UNL     1       3.281   5.508  18.374  0.00  0.00    +0.000 A 
ATOM      2  C   UNL     1       4.336   4.732  17.850  0.00  0.00    +0.000 A 
ATOM      3  C   UNL     1       5.554   5.258  17.438  0.00  0.00    +0.000 A 
ATOM      4  C   UNL     1       5.755   6.620  17.529  0.00  0.00    +0.000 A 
ATOM      5  C   UNL     1       4.716   7.434  17.992  0.00  0.00    +0.000 A 
ATOM      6  C   UNL     1       3.447   6.921  18.386  0.00  0.00    +0.000 A 
ENDROOT
BRANCH   1  12
ATOM      7  C   UNL     1       4.257   1.140  18.977  0.00  0.00    +0.000 C 
ATOM      8  C   UNL     1       2.779   1.527  19.167  0.00  0.00    +0.000 C 
ATOM      9  C   UNL     1       2.048   1.727  17.834  0.00  0.00    +0.000 C 
ATOM     10  C   UNL     1       0.829   2.642  17.864  0.00  0.00    +0.000 C 
ATOM     11  C   UNL     1       1.237   4.099  17.683  0.00  0.00    +0.000 C 
ATOM     12  C   UNL     1       2.027   4.741  18.835  0.00  0.00    +0.000 C 
ATOM     13  N   UNL     1       2.275   3.929  20.042  0.00  0.00    +0.000 N 
ATOM     14  C   UNL     1       2.142   4.461  21.308  0.00  0.00    +0.000 A 
ATOM     15  N   UNL     1       2.383   3.580  22.247  0.00  0.00    +0.000 NA
ATOM     16  C   UNL     1       2.670   2.428  21.580  0.00  0.00    +0.000 A 
ATOM     17  C   UNL     1       2.600   2.595  20.205  0.00  0.00    +0.000 A 
ENDBRANCH   1  12
BRANCH   6  18
ATOM     18  C   UNL     1       2.382   7.920  18.691  0.00  0.00    +0.000 A 
ATOM     19  C   UNL     1       1.902   8.052  20.017  0.00  0.00    +0.000 A 
ATOM     20  C   UNL     1       0.905   8.973  20.355  0.00  0.00    +0.000 A 
ATOM     21  C   UNL     1       0.413   9.827  19.383  0.00  0.00    +0.000 A 
ATOM     22  F   UNL     1      -0.512  10.738  19.705  0.00  0.00    +0.000 F 
ATOM     23  C   UNL     1       0.855   9.731  18.073  0.00  0.00    +0.000 A 
ATOM     24  C   UNL     1       1.787   8.745  17.726  0.00  0.00    +0.000 A 
ENDBRANCH   6  18
BRANCH   4  25
ATOM     25  C   UNL     1       6.999   7.190  17.132  0.00  0.00    +0.000 C 
ATOM     26  N   UNL     1       8.018   7.659  16.816  0.00  0.00    +0.000 NA
ENDBRANCH   4  25
TORSDOF 3
ENDMDL
MODEL 3
REMARK VINA RESULT:      -6.9      2.862      4.890
REMARK  Name = 
REMARK  4 active torsions:
REMARK  status: ('A' for Active; 'I' for Inactive)
REMARK    1  A    between atoms: C_1  and  C_2
REMARK    2  A    between atoms: C_6  and  C_7
REMARK    3  A    between atoms: C_10  and  C_11
REMARK    4  A    between atoms: C_14  and  C_15
REMARK                            x       y       z     vdW  Elec       q    Type
REMARK                         _______ _______ _______ _____ _____    ______ ____
ROOT
ATOM      1  C   UNL     1       3.819   5.568  18.408  0.00  0.00    +0.000 A 
ATOM      2  C   UNL     1       4.354   4.315  18.778  0.00  0.00    +0.000 A 
ATOM      3  C   UNL     1       3.793   3.487  19.740  0.00  0.00    +0.000 A 
ATOM      4  C   UNL     1       2.650   3.904  20.392  0.00  0.00    +0.000 A 
ATOM      5  C   UNL     1       2.116   5.162  20.097  0.00  0.00    +0.000 A 
ATOM      6  C   UNL     1       2.694   6.043  19.140  0.00  0.00    +0.000 A 
ENDROOT
BRANCH   1  12
ATOM      7  C   UNL     1       8.181   4.404  18.312  0.00  0.00    +0.000 C 
ATOM      8  C   UNL     1       7.759   5.500  17.315  0.00  0.00    +0.000 C 
ATOM      9  C   UNL     1       7.592   6.869  17.986  0.00  0.00    +0.000 C 
ATOM     10  C   UNL     1       6.653   7.848  17.290  0.00  0.00    +0.000 C 
ATOM     11  C   UNL     1       5.211   7.628  17.731  0.00  0.00    +0.000 C 
ATOM     12  C   UNL     1       4.545   6.319  17.277  0.00  0.00    +0.000 C 
ATOM     13  N   UNL     1       5.320   5.414  16.406  0.00  0.00    +0.000 N 
ATOM     14  C   UNL     1       4.742   4.790  15.318  0.00  0.00    +0.000 A 
ATOM     15  N   UNL     1       5.594   4.046  14.660  0.00  0.00    +0.000 NA
ATOM     16  C   UNL     1       6.773   4.193  15.324  0.00  0.00    +0.000 A 
ATOM     17  C   UNL     1       6.653   5.048  16.409  0.00  0.00    +0.000 A 
ENDBRANCH   1  12
BRANCH   6  18
ATOM     18  C   UNL     1       2.120   7.417  19.055  0.00  0.00    +0.000 A 
ATOM     19  C   UNL     1       1.677   8.069  20.232  0.00  0.00    +0.000 A 
ATOM     20  C   UNL     1       1.132   9.356  20.205  0.00  0.00    +0.000 A 
ATOM     21  C   UNL     1       1.077  10.045  19.006  0.00  0.00    +0.000 A 
ATOM     22  F   UNL     1       0.594  11.292  18.977  0.00  0.00    +0.000 F 
ATOM     23  C   UNL     1       1.499   9.445  17.831  0.00  0.00    +0.000 A 
ATOM     24  C   UNL     1       1.959   8.123  17.852  0.00  0.00    +0.000 A 
ENDBRANCH   6  18
BRANCH   4  25
ATOM     25  C   UNL     1       2.039   3.070  21.373  0.00  0.00    +0.000 C 
ATOM     26  N   UNL     1       1.532   2.395  22.176  0.00  0.00    +0.000 NA
ENDBRANCH   4  25
TORSDOF 3
ENDMDL
MODEL 4
REMARK VINA RESULT:      -6.9      3.343      6.766
REMARK  Name = 
REMARK  4 active torsions:
REMARK  status: ('A' for Active; 'I' for Inactive)
REMARK    1  A    between atoms: C_1  and  C_2
REMARK    2  A    between atoms: C_6  and  C_7
REMARK    3  A    between atoms: C_10  and  C_11
REMARK    4  A    between atoms: C_14  and  C_15
REMARK                            x       y       z     vdW  Elec       q    Type
REMARK                         _______ _______ _______ _____ _____    ______ ____
ROOT
ATOM      1  C   UNL     1       5.096   4.788  17.532  0.00  0.00    +0.000 A 
ATOM      2  C   UNL     1       4.304   3.960  16.709  0.00  0.00    +0.000 A 
ATOM      3  C   UNL     1       4.626   3.635  15.398  0.00  0.00    +0.000 A 
ATOM      4  C   UNL     1       5.780   4.153  14.849  0.00  0.00    +0.000 A 
ATOM      5  C   UNL     1       6.568   5.023  15.610  0.00  0.00    +0.000 A 
ATOM      6  C   UNL     1       6.240   5.399  16.944  0.00  0.00    +0.000 A 
ENDROOT
BRANCH   1  12
ATOM      7  C   UNL     1       1.312   2.430  18.243  0.00  0.00    +0.000 C 
ATOM      8  C   UNL     1       1.779   3.313  19.415  0.00  0.00    +0.000 C 
ATOM      9  C   UNL     1       1.447   4.795  19.201  0.00  0.00    +0.000 C 
ATOM     10  C   UNL     1       2.327   5.796  19.941  0.00  0.00    +0.000 C 
ATOM     11  C   UNL     1       3.579   6.119  19.135  0.00  0.00    +0.000 C 
ATOM     12  C   UNL     1       4.609   4.988  18.979  0.00  0.00    +0.000 C 
ATOM     13  N   UNL     1       4.341   3.709  19.666  0.00  0.00    +0.000 N 
ATOM     14  C   UNL     1       5.339   3.027  20.332  0.00  0.00    +0.000 A 
ATOM     15  N   UNL     1       4.902   1.927  20.893  0.00  0.00    +0.000 NA
ATOM     16  C   UNL     1       3.572   1.890  20.599  0.00  0.00    +0.000 A 
ATOM     17  C   UNL     1       3.177   2.987  19.850  0.00  0.00    +0.000 A 
ENDBRANCH   1  12
BRANCH   6  18
ATOM     18  C   UNL     1       7.075   6.464  17.569  0.00  0.00    +0.000 A 
ATOM     19  C   UNL     1       7.084   7.768  17.015  0.00  0.00    +0.000 A 
ATOM     20  C   UNL     1       7.849   8.801  17.564  0.00  0.00    +0.000 A 
ATOM     21  C   UNL     1       8.574   8.568  18.720  0.00  0.00    +0.000 A 
ATOM     22  F   UNL     1       9.277   9.561  19.276  0.00  0.00    +0.000 F 
ATOM     23  C   UNL     1       8.593   7.307  19.295  0.00  0.00    +0.000 A 
ATOM     24  C   UNL     1       7.897   6.256  18.687  0.00  0.00    +0.000 A 
ENDBRANCH   6  18
BRANCH   4  25
ATOM     25  C   UNL     1       6.150   3.825  13.512  0.00  0.00    +0.000 C 
ATOM     26  N   UNL     1       6.443   3.555  12.418  0.00  0.00    +0.000 NA
ENDBRANCH   4  25
TORSDOF 3
ENDMDL
MODEL 5
REMARK VINA RESULT:      -6.6      4.335      7.956
REMARK  Name = 
REMARK  4 active torsions:
REMARK  status: ('A' for Active; 'I' for Inactive)
REMARK    1  A    between atoms: C_1  and  C_2
REMARK    2  A    between atoms: C_6  and  C_7
REMARK    3  A    between atoms: C_10  and  C_11
REMARK    4  A    between atoms: C_14  and  C_15
REMARK                            x       y       z     vdW  Elec       q    Type
REMARK                         _______ _______ _______ _____ _____    ______ ____
ROOT
ATOM      1  C   UNL     1      -0.158  11.292  19.095  0.00  0.00    +0.000 A 
ATOM      2  C   UNL     1      -1.080  12.223  18.571  0.00  0.00    +0.000 A 
ATOM      3  C   UNL     1      -1.951  11.945  17.526  0.00  0.00    +0.000 A 
ATOM      4  C   UNL     1      -1.918  10.694  16.946  0.00  0.00    +0.000 A 
ATOM      5  C   UNL     1      -0.982   9.757  17.397  0.00  0.00    +0.000 A 
ATOM      6  C   UNL     1      -0.055  10.031  18.443  0.00  0.00    +0.000 A 
ENDROOT
BRANCH   1  12
ATOM      7  C   UNL     1      -1.888  15.085  20.829  0.00  0.00    +0.000 C 
ATOM      8  C   UNL     1      -0.574  14.597  21.467  0.00  0.00    +0.000 C 
ATOM      9  C   UNL     1       0.652  14.921  20.604  0.00  0.00    +0.000 C 
ATOM     10  C   UNL     1       1.869  14.025  20.800  0.00  0.00    +0.000 C 
ATOM     11  C   UNL     1       1.775  12.780  19.926  0.00  0.00    +0.000 C 
ATOM     12  C   UNL     1       0.684  11.760  20.296  0.00  0.00    +0.000 C 
ATOM     13  N   UNL     1      -0.138  12.029  21.491  0.00  0.00    +0.000 N 
ATOM     14  C   UNL     1      -0.454  11.029  22.388  0.00  0.00    +0.000 A 
ATOM     15  N   UNL     1      -1.173  11.468  23.391  0.00  0.00    +0.000 NA
ATOM     16  C   UNL     1      -1.323  12.801  23.156  0.00  0.00    +0.000 A 
ATOM     17  C   UNL     1      -0.683  13.197  21.992  0.00  0.00    +0.000 A 
ENDBRANCH   1  12
BRANCH   6  18
ATOM     18  C   UNL     1       0.994   9.002  18.700  0.00  0.00    +0.000 A 
ATOM     19  C   UNL     1       1.072   8.378  19.968  0.00  0.00    +0.000 A 
ATOM     20  C   UNL     1       2.037   7.408  20.258  0.00  0.00    +0.000 A 
ATOM     21  C   UNL     1       2.905   6.996  19.262  0.00  0.00    +0.000 A 
ATOM     22  F   UNL     1       3.806   6.040  19.519  0.00  0.00    +0.000 F 
ATOM     23  C   UNL     1       2.864   7.581  18.007  0.00  0.00    +0.000 A 
ATOM     24  C   UNL     1       1.955   8.615  17.753  0.00  0.00    +0.000 A 
ENDBRANCH   6  18
BRANCH   4  25
ATOM     25  C   UNL     1      -2.810  10.371  15.883  0.00  0.00    +0.000 C 
ATOM     26  N   UNL     1      -3.537  10.114  15.009  0.00  0.00    +0.000 NA
ENDBRANCH   4  25
TORSDOF 3
ENDMDL
MODEL 6
REMARK VINA RESULT:      -6.6      0.795      1.263
REMARK  Name = 
REMARK  4 active torsions:
REMARK  status: ('A' for Active; 'I' for Inactive)
REMARK    1  A    between atoms: C_1  and  C_2
REMARK    2  A    between atoms: C_6  and  C_7
REMARK    3  A    between atoms: C_10  and  C_11
REMARK    4  A    between atoms: C_14  and  C_15
REMARK                            x       y       z     vdW  Elec       q    Type
REMARK                         _______ _______ _______ _____ _____    ______ ____
ROOT
ATOM      1  C   UNL     1       3.716   6.521  17.743  0.00  0.00    +0.000 A 
ATOM      2  C   UNL     1       3.906   7.833  17.262  0.00  0.00    +0.000 A 
ATOM      3  C   UNL     1       3.034   8.885  17.513  0.00  0.00    +0.000 A 
ATOM      4  C   UNL     1       1.904   8.645  18.267  0.00  0.00    +0.000 A 
ATOM      5  C   UNL     1       1.646   7.346  18.719  0.00  0.00    +0.000 A 
ATOM      6  C   UNL     1       2.508   6.246  18.444  0.00  0.00    +0.000 A 
ENDROOT
BRANCH   1  12
ATOM      7  C   UNL     1       7.740   8.566  17.621  0.00  0.00    +0.000 C 
ATOM      8  C   UNL     1       7.737   7.073  17.241  0.00  0.00    +0.000 C 
ATOM      9  C   UNL     1       7.223   6.832  15.817  0.00  0.00    +0.000 C 
ATOM     10  C   UNL     1       6.630   5.455  15.539  0.00  0.00    +0.000 C 
ATOM     11  C   UNL     1       5.154   5.412  15.915  0.00  0.00    +0.000 C 
ATOM     12  C   UNL     1       4.821   5.501  17.413  0.00  0.00    +0.000 C 
ATOM     13  N   UNL     1       5.944   5.557  18.369  0.00  0.00    +0.000 N 
ATOM     14  C   UNL     1       5.931   4.827  19.541  0.00  0.00    +0.000 A 
ATOM     15  N   UNL     1       7.022   4.993  20.244  0.00  0.00    +0.000 NA
ATOM     16  C   UNL     1       7.786   5.848  19.508  0.00  0.00    +0.000 A 
ATOM     17  C   UNL     1       7.160   6.212  18.326  0.00  0.00    +0.000 A 
ENDBRANCH   1  12
BRANCH   6  18
ATOM     18  C   UNL     1       2.020   4.893  18.840  0.00  0.00    +0.000 A 
ATOM     19  C   UNL     1       1.925   3.868  17.868  0.00  0.00    +0.000 A 
ATOM     20  C   UNL     1       1.474   2.583  18.189  0.00  0.00    +0.000 A 
ATOM     21  C   UNL     1       1.171   2.280  19.504  0.00  0.00    +0.000 A 
ATOM     22  F   UNL     1       0.778   1.043  19.828  0.00  0.00    +0.000 F 
ATOM     23  C   UNL     1       1.250   3.254  20.487  0.00  0.00    +0.000 A 
ATOM     24  C   UNL     1       1.615   4.560  20.141  0.00  0.00    +0.000 A 
ENDBRANCH   6  18
BRANCH   4  25
ATOM     25  C   UNL     1       0.997   9.705  18.558  0.00  0.00    +0.000 C 
ATOM     26  N   UNL     1       0.250  10.566  18.800  0.00  0.00    +0.000 NA
ENDBRANCH   4  25
TORSDOF 3
ENDMDL
MODEL 7
REMARK VINA RESULT:      -6.2      6.259      9.373
REMARK  Name = 
REMARK  4 active torsions:
REMARK  status: ('A' for Active; 'I' for Inactive)
REMARK    1  A    between atoms: C_1  and  C_2
REMARK    2  A    between atoms: C_6  and  C_7
REMARK    3  A    between atoms: C_10  and  C_11
REMARK    4  A    between atoms: C_14  and  C_15
REMARK                            x       y       z     vdW  Elec       q    Type
REMARK                         _______ _______ _______ _____ _____    ______ ____
ROOT
ATOM      1  C   UNL     1      -1.870  12.049  20.164  0.00  0.00    +0.000 A 
ATOM      2  C   UNL     1      -2.067  11.355  18.952  0.00  0.00    +0.000 A 
ATOM      3  C   UNL     1      -3.265  11.349  18.249  0.00  0.00    +0.000 A 
ATOM      4  C   UNL     1      -4.339  12.049  18.760  0.00  0.00    +0.000 A 
ATOM      5  C   UNL     1      -4.205  12.706  19.987  0.00  0.00    +0.000 A 
ATOM      6  C   UNL     1      -2.998  12.697  20.742  0.00  0.00    +0.000 A 
ENDROOT
BRANCH   1  12
ATOM      7  C   UNL     1       0.743   9.276  17.741  0.00  0.00    +0.000 C 
ATOM      8  C   UNL     1       1.390   9.868  19.007  0.00  0.00    +0.000 C 
ATOM      9  C   UNL     1       0.920   9.167  20.288  0.00  0.00    +0.000 C 
ATOM     10  C   UNL     1       1.001   9.985  21.571  0.00  0.00    +0.000 C 
ATOM     11  C   UNL     1      -0.252  10.831  21.758  0.00  0.00    +0.000 C 
ATOM     12  C   UNL     1      -0.454  11.990  20.767  0.00  0.00    +0.000 C 
ATOM     13  N   UNL     1       0.598  12.232  19.761  0.00  0.00    +0.000 N 
ATOM     14  C   UNL     1       1.024  13.509  19.456  0.00  0.00    +0.000 A 
ATOM     15  N   UNL     1       1.975  13.516  18.558  0.00  0.00    +0.000 NA
ATOM     16  C   UNL     1       2.195  12.203  18.271  0.00  0.00    +0.000 A 
ATOM     17  C   UNL     1       1.370  11.368  19.008  0.00  0.00    +0.000 A 
ENDBRANCH   1  12
BRANCH   6  18
ATOM     18  C   UNL     1      -3.053  13.292  22.109  0.00  0.00    +0.000 A 
ATOM     19  C   UNL     1      -3.708  12.595  23.154  0.00  0.00    +0.000 A 
ATOM     20  C   UNL     1      -3.786  13.110  24.452  0.00  0.00    +0.000 A 
ATOM     21  C   UNL     1      -3.155  14.306  24.746  0.00  0.00    +0.000 A 
ATOM     22  F   UNL     1      -3.190  14.787  25.994  0.00  0.00    +0.000 F 
ATOM     23  C   UNL     1      -2.504  15.020  23.753  0.00  0.00    +0.000 A 
ATOM     24  C   UNL     1      -2.508  14.542  22.438  0.00  0.00    +0.000 A 
ENDBRANCH   6  18
BRANCH   4  25
ATOM     25  C   UNL     1      -5.578  12.078  18.055  0.00  0.00    +0.000 C 
ATOM     26  N   UNL     1      -6.588  12.093  17.476  0.00  0.00    +0.000 NA
ENDBRANCH   4  25
TORSDOF 3
ENDMDL
MODEL 8
REMARK VINA RESULT:      -6.1      8.393     12.381
REMARK  Name = 
REMARK  4 active torsions:
REMARK  status: ('A' for Active; 'I' for Inactive)
REMARK    1  A    between atoms: C_1  and  C_2
REMARK    2  A    between atoms: C_6  and  C_7
REMARK    3  A    between atoms: C_10  and  C_11
REMARK    4  A    between atoms: C_14  and  C_15
REMARK                            x       y       z     vdW  Elec       q    Type
REMARK                         _______ _______ _______ _____ _____    ______ ____
ROOT
ATOM      1  C   UNL     1      -4.343  12.354  19.962  0.00  0.00    +0.000 A 
ATOM      2  C   UNL     1      -4.202  12.838  21.280  0.00  0.00    +0.000 A 
ATOM      3  C   UNL     1      -2.982  13.167  21.858  0.00  0.00    +0.000 A 
ATOM      4  C   UNL     1      -1.830  13.006  21.116  0.00  0.00    +0.000 A 
ATOM      5  C   UNL     1      -1.918  12.478  19.824  0.00  0.00    +0.000 A 
ATOM      6  C   UNL     1      -3.153  12.101  19.224  0.00  0.00    +0.000 A 
ENDROOT
BRANCH   1  12
ATOM      7  C   UNL     1      -7.309  14.223  22.808  0.00  0.00    +0.000 C 
ATOM      8  C   UNL     1      -7.916  13.410  21.649  0.00  0.00    +0.000 C 
ATOM      9  C   UNL     1      -7.834  11.897  21.888  0.00  0.00    +0.000 C 
ATOM     10  C   UNL     1      -7.840  11.017  20.644  0.00  0.00    +0.000 C 
ATOM     11  C   UNL     1      -6.432  10.850  20.087  0.00  0.00    +0.000 C 
ATOM     12  C   UNL     1      -5.781  12.101  19.473  0.00  0.00    +0.000 C 
ATOM     13  N   UNL     1      -6.582  13.339  19.412  0.00  0.00    +0.000 N 
ATOM     14  C   UNL     1      -6.581  14.144  18.291  0.00  0.00    +0.000 A 
ATOM     15  N   UNL     1      -7.368  15.182  18.422  0.00  0.00    +0.000 NA
ATOM     16  C   UNL     1      -7.916  15.051  19.661  0.00  0.00    +0.000 A 
ATOM     17  C   UNL     1      -7.467  13.910  20.308  0.00  0.00    +0.000 A 
ENDBRANCH   1  12
BRANCH   6  18
ATOM     18  C   UNL     1      -3.077  11.394  17.913  0.00  0.00    +0.000 A 
ATOM     19  C   UNL     1      -4.013  11.697  16.894  0.00  0.00    +0.000 A 
ATOM     20  C   UNL     1      -3.984  11.063  15.648  0.00  0.00    +0.000 A 
ATOM     21  C   UNL     1      -2.975  10.156  15.373  0.00  0.00    +0.000 A 
ATOM     22  F   UNL     1      -2.916   9.574  14.170  0.00  0.00    +0.000 F 
ATOM     23  C   UNL     1      -2.039   9.830  16.340  0.00  0.00    +0.000 A 
ATOM     24  C   UNL     1      -2.130  10.402  17.615  0.00  0.00    +0.000 A 
ENDBRANCH   6  18
BRANCH   4  25
ATOM     25  C   UNL     1      -0.564  13.351  21.673  0.00  0.00    +0.000 C 
ATOM     26  N   UNL     1       0.471  13.624  22.133  0.00  0.00    +0.000 NA
ENDBRANCH   4  25
TORSDOF 3
ENDMDL
MODEL 9
REMARK VINA RESULT:      -6.1      7.919     11.408
REMARK  Name = 
REMARK  4 active torsions:
REMARK  status: ('A' for Active; 'I' for Inactive)
REMARK    1  A    between atoms: C_1  and  C_2
REMARK    2  A    between atoms: C_6  and  C_7
REMARK    3  A    between atoms: C_10  and  C_11
REMARK    4  A    between atoms: C_14  and  C_15
REMARK                            x       y       z     vdW  Elec       q    Type
REMARK                         _______ _______ _______ _____ _____    ______ ____
ROOT
ATOM      1  C   UNL     1      -4.209  13.504  20.558  0.00  0.00    +0.000 A 
ATOM      2  C   UNL     1      -5.011  14.659  20.444  0.00  0.00    +0.000 A 
ATOM      3  C   UNL     1      -4.569  15.941  20.742  0.00  0.00    +0.000 A 
ATOM      4  C   UNL     1      -3.274  16.111  21.189  0.00  0.00    +0.000 A 
ATOM      5  C   UNL     1      -2.461  14.988  21.369  0.00  0.00    +0.000 A 
ATOM      6  C   UNL     1      -2.904  13.661  21.103  0.00  0.00    +0.000 A 
ENDROOT
BRANCH   1  12
ATOM      7  C   UNL     1      -6.727  14.125  16.861  0.00  0.00    +0.000 C 
ATOM      8  C   UNL     1      -6.765  12.709  17.466  0.00  0.00    +0.000 C 
ATOM      9  C   UNL     1      -7.661  12.626  18.709  0.00  0.00    +0.000 C 
ATOM     10  C   UNL     1      -7.337  11.513  19.699  0.00  0.00    +0.000 C 
ATOM     11  C   UNL     1      -6.267  11.959  20.688  0.00  0.00    +0.000 C 
ATOM     12  C   UNL     1      -4.853  12.174  20.123  0.00  0.00    +0.000 C 
ATOM     13  N   UNL     1      -4.625  11.877  18.696  0.00  0.00    +0.000 N 
ATOM     14  C   UNL     1      -3.494  11.209  18.271  0.00  0.00    +0.000 A 
ATOM     15  N   UNL     1      -3.484  11.022  16.975  0.00  0.00    +0.000 NA
ATOM     16  C   UNL     1      -4.650  11.570  16.533  0.00  0.00    +0.000 A 
ATOM     17  C   UNL     1      -5.399  12.100  17.573  0.00  0.00    +0.000 A 
ENDBRANCH   1  12
BRANCH   6  18
ATOM     18  C   UNL     1      -1.990  12.552  21.504  0.00  0.00    +0.000 A 
ATOM     19  C   UNL     1      -2.133  11.948  22.777  0.00  0.00    +0.000 A 
ATOM     20  C   UNL     1      -1.302  10.905  23.199  0.00  0.00    +0.000 A 
ATOM     21  C   UNL     1      -0.350  10.402  22.330  0.00  0.00    +0.000 A 
ATOM     22  F   UNL     1       0.423   9.378  22.710  0.00  0.00    +0.000 F 
ATOM     23  C   UNL     1      -0.176  10.964  21.076  0.00  0.00    +0.000 A 
ATOM     24  C   UNL     1      -0.951  12.066  20.695  0.00  0.00    +0.000 A 
ENDBRANCH   6  18
BRANCH   4  25
ATOM     25  C   UNL     1      -2.783  17.416  21.488  0.00  0.00    +0.000 C 
ATOM     26  N   UNL     1      -2.374  18.478  21.735  0.00  0.00    +0.000 NA
ENDBRANCH   4  25
TORSDOF 3
ENDMDL
