MODEL 1
REMARK VINA RESULT:      -7.4      0.000      0.000
REMARK  Name = 
REMARK  14 active torsions:
REMARK  status: ('A' for Active; 'I' for Inactive)
REMARK    1  A    between atoms: C_1  and  O_2
REMARK    2  A    between atoms: O_2  and  C_3
REMARK    3  A    between atoms: C_3  and  C_5
REMARK    4  A    between atoms: C_7  and  C_8
REMARK    5  A    between atoms: C_8  and  O_9
REMARK    6  A    between atoms: C_8  and  C_10
REMARK    7  A    between atoms: C_10  and  N_11
REMARK    8  A    between atoms: N_11  and  C_12
REMARK    9  A    between atoms: C_12  and  C_13
REMARK   10  A    between atoms: C_12  and  C_14
REMARK   11  A    between atoms: C_14  and  C_15
REMARK   12  A    between atoms: C_15  and  C_16
REMARK   13  A    between atoms: C_16  and  C_17
REMARK   14  A    between atoms: C_25  and  O_26
REMARK                            x       y       z     vdW  Elec       q    Type
REMARK                         _______ _______ _______ _____ _____    ______ ____
ROOT
ATOM      1  C   UNL     1       3.887   2.003  18.222  0.00  0.00    +0.000 C 
ENDROOT
BRANCH   1   4
ATOM      2  C   UNL     1       5.531   5.107  16.697  0.00  0.00    +0.000 A 
ATOM      3  C   UNL     1       4.804   3.914  16.847  0.00  0.00    +0.000 A 
ATOM      4  C   UNL     1       4.616   3.324  18.106  0.00  0.00    +0.000 A 
ATOM      5  C   UNL     1       5.149   3.948  19.240  0.00  0.00    +0.000 A 
ATOM      6  C   UNL     1       5.873   5.134  19.112  0.00  0.00    +0.000 A 
ATOM      7  C   UNL     1       6.075   5.717  17.850  0.00  0.00    +0.000 A 
BRANCH   2   8
ATOM      8  C   UNL     1       5.709   5.664  15.326  0.00  0.00    +0.000 C 
ATOM      9  O   UNL     1       5.172   6.714  15.007  0.00  0.00    +0.000 OA
BRANCH   8  11
ATOM     10  C   UNL     1       5.965   4.064  13.529  0.00  0.00    +0.000 C 
ATOM     11  O   UNL     1       6.465   4.979  14.427  0.00  0.00    +0.000 OA
ENDBRANCH   8  11
ENDBRANCH   2   8
BRANCH   7  12
ATOM     12  O   UNL     1       6.790   6.857  17.748  0.00  0.00    +0.000 OA
ATOM     13  H   UNL     1       7.340   7.188  18.471  0.00  0.00    +0.000 HD
ENDBRANCH   7  12
ENDBRANCH   1   4
BRANCH   1  14
ATOM     14  O   UNL     1       4.225   1.346  19.420  0.00  0.00    +0.000 OA
ATOM     15  H   UNL     1       4.138   1.992  20.168  0.00  0.00    +0.000 HD
ENDBRANCH   1  14
BRANCH   1  16
ATOM     16  C   UNL     1       2.370   2.260  18.096  0.00  0.00    +0.000 C 
BRANCH  16  17
ATOM     17  N   UNL     1       1.626   1.687  19.222  0.00  0.00    +0.000 NA
ATOM     18  H   UNL     1       2.332   1.152  19.773  0.00  0.00    +0.000 HD
BRANCH  17  19
ATOM     19  C   UNL     1       1.053   2.736  20.099  0.00  0.00    +0.000 C 
ATOM     20  C   UNL     1       1.713   2.733  21.491  0.00  0.00    +0.000 C 
BRANCH  19  21
ATOM     21  C   UNL     1       1.230   4.140  19.464  0.00  0.00    +0.000 C 
BRANCH  21  22
ATOM     22  C   UNL     1       1.585   5.267  20.458  0.00  0.00    +0.000 C 
BRANCH  22  23
ATOM     23  C   UNL     1       2.676   6.209  19.917  0.00  0.00    +0.000 C 
BRANCH  23  24
ATOM     24  C   UNL     1       2.113   7.545  19.512  0.00  0.00    +0.000 A 
ATOM     25  C   UNL     1       1.404   8.327  20.441  0.00  0.00    +0.000 A 
ATOM     26  C   UNL     1       0.898   9.575  20.070  0.00  0.00    +0.000 A 
ATOM     27  C   UNL     1       1.098  10.054  18.773  0.00  0.00    +0.000 A 
ATOM     28  C   UNL     1       1.805   9.286  17.845  0.00  0.00    +0.000 A 
ATOM     29  C   UNL     1       2.314   8.035  18.211  0.00  0.00    +0.000 A 
ENDBRANCH  23  24
ENDBRANCH  22  23
ENDBRANCH  21  22
ENDBRANCH  19  21
ENDBRANCH  17  19
ENDBRANCH  16  17
ENDBRANCH   1  16
TORSDOF 12
ENDMDL
MODEL 2
REMARK VINA RESULT:      -7.2      1.283      1.895
REMARK  Name = 
REMARK  14 active torsions:
REMARK  status: ('A' for Active; 'I' for Inactive)
REMARK    1  A    between atoms: C_1  and  O_2
REMARK    2  A    between atoms: O_2  and  C_3
REMARK    3  A    between atoms: C_3  and  C_5
REMARK    4  A    between atoms: C_7  and  C_8
REMARK    5  A    between atoms: C_8  and  O_9
REMARK    6  A    between atoms: C_8  and  C_10
REMARK    7  A    between atoms: C_10  and  N_11
REMARK    8  A    between atoms: N_11  and  C_12
REMARK    9  A    between atoms: C_12  and  C_13
REMARK   10  A    between atoms: C_12  and  C_14
REMARK   11  A    between atoms: C_14  and  C_15
REMARK   12  A    between atoms: C_15  and  C_16
REMARK   13  A    between atoms: C_16  and  C_17
REMARK   14  A    between atoms: C_25  and  O_26
REMARK                            x       y       z     vdW  Elec       q    Type
REMARK                         _______ _______ _______ _____ _____    ______ ____
ROOT
ATOM      1  C   UNL     1       4.004   2.530  17.839  0.00  0.00    +0.000 C 
ENDROOT
BRANCH   1   4
ATOM      2  C   UNL     1       6.335   4.740  15.753  0.00  0.00    +0.000 A 
ATOM      3  C   UNL     1       5.398   3.763  16.130  0.00  0.00    +0.000 A 
ATOM      4  C   UNL     1       4.962   3.638  17.458  0.00  0.00    +0.000 A 
ATOM      5  C   UNL     1       5.458   4.519  18.425  0.00  0.00    +0.000 A 
ATOM      6  C   UNL     1       6.389   5.497  18.072  0.00  0.00    +0.000 A 
ATOM      7  C   UNL     1       6.837   5.612  16.746  0.00  0.00    +0.000 A 
BRANCH   2   8
ATOM      8  C   UNL     1       6.768   4.799  14.329  0.00  0.00    +0.000 C 
ATOM      9  O   UNL     1       7.791   5.388  14.015  0.00  0.00    +0.000 OA
BRANCH   8  11
ATOM     10  C   UNL     1       6.500   3.519  12.293  0.00  0.00    +0.000 C 
ATOM     11  O   UNL     1       6.000   4.201  13.378  0.00  0.00    +0.000 OA
ENDBRANCH   8  11
ENDBRANCH   2   8
BRANCH   7  12
ATOM     12  O   UNL     1       7.749   6.556  16.428  0.00  0.00    +0.000 OA
ATOM     13  H   UNL     1       8.573   6.344  15.970  0.00  0.00    +0.000 HD
ENDBRANCH   7  12
ENDBRANCH   1   4
BRANCH   1  14
ATOM     14  O   UNL     1       4.304   2.026  19.119  0.00  0.00    +0.000 OA
ATOM     15  H   UNL     1       4.833   1.194  19.013  0.00  0.00    +0.000 HD
ENDBRANCH   1  14
BRANCH   1  16
ATOM     16  C   UNL     1       2.559   3.065  17.739  0.00  0.00    +0.000 C 
BRANCH  16  17
ATOM     17  N   UNL     1       1.919   3.154  19.054  0.00  0.00    +0.000 NA
ATOM     18  H   UNL     1       2.644   2.838  19.734  0.00  0.00    +0.000 HD
BRANCH  17  19
ATOM     19  C   UNL     1       1.540   4.546  19.394  0.00  0.00    +0.000 C 
ATOM     20  C   UNL     1       2.137   4.981  20.745  0.00  0.00    +0.000 C 
BRANCH  19  21
ATOM     21  C   UNL     1       2.020   5.530  18.294  0.00  0.00    +0.000 C 
BRANCH  21  22
ATOM     22  C   UNL     1       2.866   6.716  18.803  0.00  0.00    +0.000 C 
BRANCH  22  23
ATOM     23  C   UNL     1       2.556   8.026  18.056  0.00  0.00    +0.000 C 
BRANCH  23  24
ATOM     24  C   UNL     1       1.499   8.835  18.757  0.00  0.00    +0.000 A 
ATOM     25  C   UNL     1       0.672   9.706  18.025  0.00  0.00    +0.000 A 
ATOM     26  C   UNL     1      -0.323  10.442  18.673  0.00  0.00    +0.000 A 
ATOM     27  C   UNL     1      -0.503  10.315  20.052  0.00  0.00    +0.000 A 
ATOM     28  C   UNL     1       0.312   9.449  20.786  0.00  0.00    +0.000 A 
ATOM     29  C   UNL     1       1.309   8.708  20.143  0.00  0.00    +0.000 A 
ENDBRANCH  23  24
ENDBRANCH  22  23
ENDBRANCH  21  22
ENDBRANCH  19  21
ENDBRANCH  17  19
ENDBRANCH  16  17
ENDBRANCH   1  16
TORSDOF 12
ENDMDL
MODEL 3
REMARK VINA RESULT:      -7.1      0.842      1.116
REMARK  Name = 
REMARK  14 active torsions:
REMARK  status: ('A' for Active; 'I' for Inactive)
REMARK    1  A    between atoms: C_1  and  O_2
REMARK    2  A    between atoms: O_2  and  C_3
REMARK    3  A    between atoms: C_3  and  C_5
REMARK    4  A    between atoms: C_7  and  C_8
REMARK    5  A    between atoms: C_8  and  O_9
REMARK    6  A    between atoms: C_8  and  C_10
REMARK    7  A    between atoms: C_10  and  N_11
REMARK    8  A    between atoms: N_11  and  C_12
REMARK    9  A    between atoms: C_12  and  C_13
REMARK   10  A    between atoms: C_12  and  C_14
REMARK   11  A    between atoms: C_14  and  C_15
REMARK   12  A    between atoms: C_15  and  C_16
REMARK   13  A    between atoms: C_16  and  C_17
REMARK   14  A    between atoms: C_25  and  O_26
REMARK                            x       y       z     vdW  Elec       q    Type
REMARK                         _______ _______ _______ _____ _____    ______ ____
ROOT
ATOM      1  C   UNL     1       3.540   1.796  17.946  0.00  0.00    +0.000 C 
ENDROOT
BRANCH   1   4
ATOM      2  C   UNL     1       5.602   4.820  16.820  0.00  0.00    +0.000 A 
ATOM      3  C   UNL     1       4.772   3.686  16.809  0.00  0.00    +0.000 A 
ATOM      4  C   UNL     1       4.378   3.055  17.998  0.00  0.00    +0.000 A 
ATOM      5  C   UNL     1       4.806   3.577  19.224  0.00  0.00    +0.000 A 
ATOM      6  C   UNL     1       5.630   4.703  19.257  0.00  0.00    +0.000 A 
ATOM      7  C   UNL     1       6.038   5.326  18.065  0.00  0.00    +0.000 A 
BRANCH   2   8
ATOM      8  C   UNL     1       5.998   5.424  15.516  0.00  0.00    +0.000 C 
ATOM      9  O   UNL     1       5.505   6.479  15.145  0.00  0.00    +0.000 OA
BRANCH   8  11
ATOM     10  C   UNL     1       6.849   4.726  13.362  0.00  0.00    +0.000 C 
ATOM     11  O   UNL     1       6.904   4.778  14.735  0.00  0.00    +0.000 OA
ENDBRANCH   8  11
ENDBRANCH   2   8
BRANCH   7  12
ATOM     12  O   UNL     1       6.847   6.406  18.119  0.00  0.00    +0.000 OA
ATOM     13  H   UNL     1       7.496   6.530  18.825  0.00  0.00    +0.000 HD
ENDBRANCH   7  12
ENDBRANCH   1   4
BRANCH   1  14
ATOM     14  O   UNL     1       4.299   0.671  18.322  0.00  0.00    +0.000 OA
ATOM     15  H   UNL     1       4.829   0.906  19.127  0.00  0.00    +0.000 HD
ENDBRANCH   1  14
BRANCH   1  16
ATOM     16  C   UNL     1       2.292   1.991  18.833  0.00  0.00    +0.000 C 
BRANCH  16  17
ATOM     17  N   UNL     1       1.491   3.140  18.401  0.00  0.00    +0.000 NA
ATOM     18  H   UNL     1       0.629   2.730  17.979  0.00  0.00    +0.000 HD
BRANCH  17  19
ATOM     19  C   UNL     1       1.086   3.995  19.542  0.00  0.00    +0.000 C 
ATOM     20  C   UNL     1       1.170   3.233  20.878  0.00  0.00    +0.000 C 
BRANCH  19  21
ATOM     21  C   UNL     1       1.985   5.257  19.629  0.00  0.00    +0.000 C 
BRANCH  21  22
ATOM     22  C   UNL     1       2.228   5.979  18.286  0.00  0.00    +0.000 C 
BRANCH  22  23
ATOM     23  C   UNL     1       2.848   7.376  18.471  0.00  0.00    +0.000 C 
BRANCH  23  24
ATOM     24  C   UNL     1       1.819   8.397  18.875  0.00  0.00    +0.000 A 
ATOM     25  C   UNL     1       1.473   8.558  20.229  0.00  0.00    +0.000 A 
ATOM     26  C   UNL     1       0.532   9.519  20.606  0.00  0.00    +0.000 A 
ATOM     27  C   UNL     1      -0.070  10.327  19.638  0.00  0.00    +0.000 A 
ATOM     28  C   UNL     1       0.271  10.177  18.291  0.00  0.00    +0.000 A 
ATOM     29  C   UNL     1       1.213   9.217  17.908  0.00  0.00    +0.000 A 
ENDBRANCH  23  24
ENDBRANCH  22  23
ENDBRANCH  21  22
ENDBRANCH  19  21
ENDBRANCH  17  19
ENDBRANCH  16  17
ENDBRANCH   1  16
TORSDOF 12
ENDMDL
MODEL 4
REMARK VINA RESULT:      -7.1      1.191      1.702
REMARK  Name = 
REMARK  14 active torsions:
REMARK  status: ('A' for Active; 'I' for Inactive)
REMARK    1  A    between atoms: C_1  and  O_2
REMARK    2  A    between atoms: O_2  and  C_3
REMARK    3  A    between atoms: C_3  and  C_5
REMARK    4  A    between atoms: C_7  and  C_8
REMARK    5  A    between atoms: C_8  and  O_9
REMARK    6  A    between atoms: C_8  and  C_10
REMARK    7  A    between atoms: C_10  and  N_11
REMARK    8  A    between atoms: N_11  and  C_12
REMARK    9  A    between atoms: C_12  and  C_13
REMARK   10  A    between atoms: C_12  and  C_14
REMARK   11  A    between atoms: C_14  and  C_15
REMARK   12  A    between atoms: C_15  and  C_16
REMARK   13  A    between atoms: C_16  and  C_17
REMARK   14  A    between atoms: C_25  and  O_26
REMARK                            x       y       z     vdW  Elec       q    Type
REMARK                         _______ _______ _______ _____ _____    ______ ____
ROOT
ATOM      1  C   UNL     1       3.440   2.814  17.459  0.00  0.00    +0.000 C 
ENDROOT
BRANCH   1   4
ATOM      2  C   UNL     1       6.168   4.773  15.619  0.00  0.00    +0.000 A 
ATOM      3  C   UNL     1       5.159   3.843  15.919  0.00  0.00    +0.000 A 
ATOM      4  C   UNL     1       4.473   3.874  17.143  0.00  0.00    +0.000 A 
ATOM      5  C   UNL     1       4.790   4.865  18.078  0.00  0.00    +0.000 A 
ATOM      6  C   UNL     1       5.789   5.799  17.800  0.00  0.00    +0.000 A 
ATOM      7  C   UNL     1       6.486   5.758  16.581  0.00  0.00    +0.000 A 
BRANCH   2   8
ATOM      8  C   UNL     1       6.869   4.665  14.308  0.00  0.00    +0.000 C 
ATOM      9  O   UNL     1       6.445   3.919  13.437  0.00  0.00    +0.000 OA
BRANCH   8  11
ATOM     10  C   UNL     1       8.377   5.905  12.879  0.00  0.00    +0.000 C 
ATOM     11  O   UNL     1       7.997   5.394  14.099  0.00  0.00    +0.000 OA
ENDBRANCH   8  11
ENDBRANCH   2   8
BRANCH   7  12
ATOM     12  O   UNL     1       7.459   6.663  16.338  0.00  0.00    +0.000 OA
ATOM     13  H   UNL     1       7.757   7.292  17.008  0.00  0.00    +0.000 HD
ENDBRANCH   7  12
ENDBRANCH   1   4
BRANCH   1  14
ATOM     14  O   UNL     1       4.007   1.768  18.212  0.00  0.00    +0.000 OA
ATOM     15  H   UNL     1       4.255   1.034  17.592  0.00  0.00    +0.000 HD
ENDBRANCH   1  14
BRANCH   1  16
ATOM     16  C   UNL     1       2.248   3.481  18.178  0.00  0.00    +0.000 C 
BRANCH  16  17
ATOM     17  N   UNL     1       1.499   2.522  18.995  0.00  0.00    +0.000 NA
ATOM     18  H   UNL     1       2.099   1.669  19.035  0.00  0.00    +0.000 HD
BRANCH  17  19
ATOM     19  C   UNL     1       1.298   3.011  20.380  0.00  0.00    +0.000 C 
ATOM     20  C   UNL     1       2.567   2.831  21.235  0.00  0.00    +0.000 C 
BRANCH  19  21
ATOM     21  C   UNL     1       0.902   4.512  20.381  0.00  0.00    +0.000 C 
BRANCH  21  22
ATOM     22  C   UNL     1       2.054   5.490  20.696  0.00  0.00    +0.000 C 
BRANCH  22  23
ATOM     23  C   UNL     1       1.548   6.893  21.079  0.00  0.00    +0.000 C 
BRANCH  23  24
ATOM     24  C   UNL     1       1.684   7.869  19.941  0.00  0.00    +0.000 A 
ATOM     25  C   UNL     1       2.436   7.528  18.802  0.00  0.00    +0.000 A 
ATOM     26  C   UNL     1       2.547   8.426  17.738  0.00  0.00    +0.000 A 
ATOM     27  C   UNL     1       1.910   9.668  17.799  0.00  0.00    +0.000 A 
ATOM     28  C   UNL     1       1.158  10.012  18.926  0.00  0.00    +0.000 A 
ATOM     29  C   UNL     1       1.042   9.117  19.994  0.00  0.00    +0.000 A 
ENDBRANCH  23  24
ENDBRANCH  22  23
ENDBRANCH  21  22
ENDBRANCH  19  21
ENDBRANCH  17  19
ENDBRANCH  16  17
ENDBRANCH   1  16
TORSDOF 12
ENDMDL
MODEL 5
REMARK VINA RESULT:      -7.1      1.129      1.796
REMARK  Name = 
REMARK  14 active torsions:
REMARK  status: ('A' for Active; 'I' for Inactive)
REMARK    1  A    between atoms: C_1  and  O_2
REMARK    2  A    between atoms: O_2  and  C_3
REMARK    3  A    between atoms: C_3  and  C_5
REMARK    4  A    between atoms: C_7  and  C_8
REMARK    5  A    between atoms: C_8  and  O_9
REMARK    6  A    between atoms: C_8  and  C_10
REMARK    7  A    between atoms: C_10  and  N_11
REMARK    8  A    between atoms: N_11  and  C_12
REMARK    9  A    between atoms: C_12  and  C_13
REMARK   10  A    between atoms: C_12  and  C_14
REMARK   11  A    between atoms: C_14  and  C_15
REMARK   12  A    between atoms: C_15  and  C_16
REMARK   13  A    between atoms: C_16  and  C_17
REMARK   14  A    between atoms: C_25  and  O_26
REMARK                            x       y       z     vdW  Elec       q    Type
REMARK                         _______ _______ _______ _____ _____    ______ ____
ROOT
ATOM      1  C   UNL     1       3.248   2.337  17.520  0.00  0.00    +0.000 C 
ENDROOT
BRANCH   1   4
ATOM      2  C   UNL     1       5.679   5.294  17.600  0.00  0.00    +0.000 A 
ATOM      3  C   UNL     1       4.696   4.381  17.186  0.00  0.00    +0.000 A 
ATOM      4  C   UNL     1       4.259   3.343  18.024  0.00  0.00    +0.000 A 
ATOM      5  C   UNL     1       4.803   3.228  19.309  0.00  0.00    +0.000 A 
ATOM      6  C   UNL     1       5.780   4.126  19.740  0.00  0.00    +0.000 A 
ATOM      7  C   UNL     1       6.229   5.155  18.895  0.00  0.00    +0.000 A 
BRANCH   2   8
ATOM      8  C   UNL     1       6.110   6.357  16.648  0.00  0.00    +0.000 C 
ATOM      9  O   UNL     1       5.368   6.721  15.747  0.00  0.00    +0.000 OA
BRANCH   8  11
ATOM     10  C   UNL     1       7.593   8.140  17.337  0.00  0.00    +0.000 C 
ATOM     11  O   UNL     1       7.347   6.905  16.783  0.00  0.00    +0.000 OA
ENDBRANCH   8  11
ENDBRANCH   2   8
BRANCH   7  12
ATOM     12  O   UNL     1       7.186   6.004  19.327  0.00  0.00    +0.000 OA
ATOM     13  H   UNL     1       8.095   5.968  18.997  0.00  0.00    +0.000 HD
ENDBRANCH   7  12
ENDBRANCH   1   4
BRANCH   1  14
ATOM     14  O   UNL     1       3.631   1.026  17.862  0.00  0.00    +0.000 OA
ATOM     15  H   UNL     1       4.081   1.051  18.745  0.00  0.00    +0.000 HD
ENDBRANCH   1  14
BRANCH   1  16
ATOM     16  C   UNL     1       1.856   2.710  18.073  0.00  0.00    +0.000 C 
BRANCH  16  17
ATOM     17  N   UNL     1       1.520   1.934  19.270  0.00  0.00    +0.000 NA
ATOM     18  H   UNL     1       2.407   1.457  19.545  0.00  0.00    +0.000 HD
BRANCH  17  19
ATOM     19  C   UNL     1       1.095   2.802  20.394  0.00  0.00    +0.000 C 
ATOM     20  C   UNL     1       2.071   2.711  21.582  0.00  0.00    +0.000 C 
BRANCH  19  21
ATOM     21  C   UNL     1       0.999   4.282  19.937  0.00  0.00    +0.000 C 
BRANCH  21  22
ATOM     22  C   UNL     1       1.815   5.281  20.785  0.00  0.00    +0.000 C 
BRANCH  22  23
ATOM     23  C   UNL     1       2.797   6.110  19.937  0.00  0.00    +0.000 C 
BRANCH  23  24
ATOM     24  C   UNL     1       2.198   7.421  19.505  0.00  0.00    +0.000 A 
ATOM     25  C   UNL     1       2.338   7.861  18.177  0.00  0.00    +0.000 A 
ATOM     26  C   UNL     1       1.766   9.069  17.771  0.00  0.00    +0.000 A 
ATOM     27  C   UNL     1       1.047   9.845  18.685  0.00  0.00    +0.000 A 
ATOM     28  C   UNL     1       0.899   9.413  20.005  0.00  0.00    +0.000 A 
ATOM     29  C   UNL     1       1.470   8.204  20.416  0.00  0.00    +0.000 A 
ENDBRANCH  23  24
ENDBRANCH  22  23
ENDBRANCH  21  22
ENDBRANCH  19  21
ENDBRANCH  17  19
ENDBRANCH  16  17
ENDBRANCH   1  16
TORSDOF 12
ENDMDL
MODEL 6
REMARK VINA RESULT:      -6.9      1.446      2.645
REMARK  Name = 
REMARK  14 active torsions:
REMARK  status: ('A' for Active; 'I' for Inactive)
REMARK    1  A    between atoms: C_1  and  O_2
REMARK    2  A    between atoms: O_2  and  C_3
REMARK    3  A    between atoms: C_3  and  C_5
REMARK    4  A    between atoms: C_7  and  C_8
REMARK    5  A    between atoms: C_8  and  O_9
REMARK    6  A    between atoms: C_8  and  C_10
REMARK    7  A    between atoms: C_10  and  N_11
REMARK    8  A    between atoms: N_11  and  C_12
REMARK    9  A    between atoms: C_12  and  C_13
REMARK   10  A    between atoms: C_12  and  C_14
REMARK   11  A    between atoms: C_14  and  C_15
REMARK   12  A    between atoms: C_15  and  C_16
REMARK   13  A    between atoms: C_16  and  C_17
REMARK   14  A    between atoms: C_25  and  O_26
REMARK                            x       y       z     vdW  Elec       q    Type
REMARK                         _______ _______ _______ _____ _____    ______ ____
ROOT
ATOM      1  C   UNL     1       3.072   3.671  17.494  0.00  0.00    +0.000 C 
ENDROOT
BRANCH   1   4
ATOM      2  C   UNL     1       6.269   5.654  16.775  0.00  0.00    +0.000 A 
ATOM      3  C   UNL     1       5.104   5.170  17.394  0.00  0.00    +0.000 A 
ATOM      4  C   UNL     1       4.359   4.120  16.836  0.00  0.00    +0.000 A 
ATOM      5  C   UNL     1       4.797   3.529  15.646  0.00  0.00    +0.000 A 
ATOM      6  C   UNL     1       5.952   3.994  15.015  0.00  0.00    +0.000 A 
ATOM      7  C   UNL     1       6.689   5.056  15.565  0.00  0.00    +0.000 A 
BRANCH   2   8
ATOM      8  C   UNL     1       6.996   6.787  17.414  0.00  0.00    +0.000 C 
ATOM      9  O   UNL     1       6.759   7.940  17.087  0.00  0.00    +0.000 OA
BRANCH   8  11
ATOM     10  C   UNL     1       7.754   5.677  19.426  0.00  0.00    +0.000 C 
ATOM     11  O   UNL     1       7.941   6.520  18.354  0.00  0.00    +0.000 OA
ENDBRANCH   8  11
ENDBRANCH   2   8
BRANCH   7  12
ATOM     12  O   UNL     1       7.796   5.499  14.932  0.00  0.00    +0.000 OA
ATOM     13  H   UNL     1       8.464   4.896  14.578  0.00  0.00    +0.000 HD
ENDBRANCH   7  12
ENDBRANCH   1   4
BRANCH   1  14
ATOM     14  O   UNL     1       2.059   3.476  16.536  0.00  0.00    +0.000 OA
ATOM     15  H   UNL     1       1.262   3.103  16.993  0.00  0.00    +0.000 HD
ENDBRANCH   1  14
BRANCH   1  16
ATOM     16  C   UNL     1       3.355   2.400  18.323  0.00  0.00    +0.000 C 
BRANCH  16  17
ATOM     17  N   UNL     1       3.325   2.671  19.763  0.00  0.00    +0.000 NA
ATOM     18  H   UNL     1       3.688   3.644  19.866  0.00  0.00    +0.000 HD
BRANCH  17  19
ATOM     19  C   UNL     1       1.947   2.631  20.307  0.00  0.00    +0.000 C 
ATOM     20  C   UNL     1       1.948   2.493  21.841  0.00  0.00    +0.000 C 
BRANCH  19  21
ATOM     21  C   UNL     1       1.167   3.916  19.921  0.00  0.00    +0.000 C 
BRANCH  21  22
ATOM     22  C   UNL     1       1.493   5.160  20.776  0.00  0.00    +0.000 C 
BRANCH  22  23
ATOM     23  C   UNL     1       2.650   5.991  20.192  0.00  0.00    +0.000 C 
BRANCH  23  24
ATOM     24  C   UNL     1       2.168   7.295  19.616  0.00  0.00    +0.000 A 
ATOM     25  C   UNL     1       2.372   7.586  18.255  0.00  0.00    +0.000 A 
ATOM     26  C   UNL     1       1.909   8.788  17.715  0.00  0.00    +0.000 A 
ATOM     27  C   UNL     1       1.237   9.707  18.525  0.00  0.00    +0.000 A 
ATOM     28  C   UNL     1       1.026   9.424  19.877  0.00  0.00    +0.000 A 
ATOM     29  C   UNL     1       1.488   8.222  20.423  0.00  0.00    +0.000 A 
ENDBRANCH  23  24
ENDBRANCH  22  23
ENDBRANCH  21  22
ENDBRANCH  19  21
ENDBRANCH  17  19
ENDBRANCH  16  17
ENDBRANCH   1  16
TORSDOF 12
ENDMDL
MODEL 7
REMARK VINA RESULT:      -6.9      1.353      2.677
REMARK  Name = 
REMARK  14 active torsions:
REMARK  status: ('A' for Active; 'I' for Inactive)
REMARK    1  A    between atoms: C_1  and  O_2
REMARK    2  A    between atoms: O_2  and  C_3
REMARK    3  A    between atoms: C_3  and  C_5
REMARK    4  A    between atoms: C_7  and  C_8
REMARK    5  A    between atoms: C_8  and  O_9
REMARK    6  A    between atoms: C_8  and  C_10
REMARK    7  A    between atoms: C_10  and  N_11
REMARK    8  A    between atoms: N_11  and  C_12
REMARK    9  A    between atoms: C_12  and  C_13
REMARK   10  A    between atoms: C_12  and  C_14
REMARK   11  A    between atoms: C_14  and  C_15
REMARK   12  A    between atoms: C_15  and  C_16
REMARK   13  A    between atoms: C_16  and  C_17
REMARK   14  A    between atoms: C_25  and  O_26
REMARK                            x       y       z     vdW  Elec       q    Type
REMARK                         _______ _______ _______ _____ _____    ______ ____
ROOT
ATOM      1  C   UNL     1       4.283   2.499  19.275  0.00  0.00    +0.000 C 
ENDROOT
BRANCH   1   4
ATOM      2  C   UNL     1       6.266   5.363  17.684  0.00  0.00    +0.000 A 
ATOM      3  C   UNL     1       5.801   4.402  18.597  0.00  0.00    +0.000 A 
ATOM      4  C   UNL     1       4.807   3.476  18.245  0.00  0.00    +0.000 A 
ATOM      5  C   UNL     1       4.279   3.500  16.949  0.00  0.00    +0.000 A 
ATOM      6  C   UNL     1       4.727   4.447  16.026  0.00  0.00    +0.000 A 
ATOM      7  C   UNL     1       5.712   5.384  16.384  0.00  0.00    +0.000 A 
BRANCH   2   8
ATOM      8  C   UNL     1       7.308   6.329  18.135  0.00  0.00    +0.000 C 
ATOM      9  O   UNL     1       7.827   6.212  19.235  0.00  0.00    +0.000 OA
BRANCH   8  11
ATOM     10  C   UNL     1       8.083   8.588  17.749  0.00  0.00    +0.000 C 
ATOM     11  O   UNL     1       7.661   7.352  17.313  0.00  0.00    +0.000 OA
ENDBRANCH   8  11
ENDBRANCH   2   8
BRANCH   7  12
ATOM     12  O   UNL     1       6.121   6.300  15.480  0.00  0.00    +0.000 OA
ATOM     13  H   UNL     1       6.383   6.057  14.582  0.00  0.00    +0.000 HD
ENDBRANCH   7  12
ENDBRANCH   1   4
BRANCH   1  14
ATOM     14  O   UNL     1       5.328   2.015  20.085  0.00  0.00    +0.000 OA
ATOM     15  H   UNL     1       5.349   2.547  20.922  0.00  0.00    +0.000 HD
ENDBRANCH   1  14
BRANCH   1  16
ATOM     16  C   UNL     1       3.171   3.189  20.094  0.00  0.00    +0.000 C 
BRANCH  16  17
ATOM     17  N   UNL     1       1.953   3.384  19.302  0.00  0.00    +0.000 NA
ATOM     18  H   UNL     1       1.253   2.727  19.711  0.00  0.00    +0.000 HD
BRANCH  17  19
ATOM     19  C   UNL     1       1.424   4.763  19.429  0.00  0.00    +0.000 C 
ATOM     20  C   UNL     1       1.877   5.425  20.743  0.00  0.00    +0.000 C 
BRANCH  19  21
ATOM     21  C   UNL     1       1.891   5.642  18.238  0.00  0.00    +0.000 C 
BRANCH  21  22
ATOM     22  C   UNL     1       3.020   6.641  18.567  0.00  0.00    +0.000 C 
BRANCH  22  23
ATOM     23  C   UNL     1       2.817   8.006  17.885  0.00  0.00    +0.000 C 
BRANCH  23  24
ATOM     24  C   UNL     1       1.710   8.796  18.529  0.00  0.00    +0.000 A 
ATOM     25  C   UNL     1       1.574   8.815  19.929  0.00  0.00    +0.000 A 
ATOM     26  C   UNL     1       0.558   9.564  20.527  0.00  0.00    +0.000 A 
ATOM     27  C   UNL     1      -0.329  10.299  19.736  0.00  0.00    +0.000 A 
ATOM     28  C   UNL     1      -0.199  10.289  18.345  0.00  0.00    +0.000 A 
ATOM     29  C   UNL     1       0.818   9.542  17.741  0.00  0.00    +0.000 A 
ENDBRANCH  23  24
ENDBRANCH  22  23
ENDBRANCH  21  22
ENDBRANCH  19  21
ENDBRANCH  17  19
ENDBRANCH  16  17
ENDBRANCH   1  16
TORSDOF 12
ENDMDL
MODEL 8
REMARK VINA RESULT:      -6.7      1.545      2.103
REMARK  Name = 
REMARK  14 active torsions:
REMARK  status: ('A' for Active; 'I' for Inactive)
REMARK    1  A    between atoms: C_1  and  O_2
REMARK    2  A    between atoms: O_2  and  C_3
REMARK    3  A    between atoms: C_3  and  C_5
REMARK    4  A    between atoms: C_7  and  C_8
REMARK    5  A    between atoms: C_8  and  O_9
REMARK    6  A    between atoms: C_8  and  C_10
REMARK    7  A    between atoms: C_10  and  N_11
REMARK    8  A    between atoms: N_11  and  C_12
REMARK    9  A    between atoms: C_12  and  C_13
REMARK   10  A    between atoms: C_12  and  C_14
REMARK   11  A    between atoms: C_14  and  C_15
REMARK   12  A    between atoms: C_15  and  C_16
REMARK   13  A    between atoms: C_16  and  C_17
REMARK   14  A    between atoms: C_25  and  O_26
REMARK                            x       y       z     vdW  Elec       q    Type
REMARK                         _______ _______ _______ _____ _____    ______ ____
ROOT
ATOM      1  C   UNL     1       4.526   3.299  19.190  0.00  0.00    +0.000 C 
ENDROOT
BRANCH   1   4
ATOM      2  C   UNL     1       6.446   5.123  16.424  0.00  0.00    +0.000 A 
ATOM      3  C   UNL     1       5.590   4.237  17.099  0.00  0.00    +0.000 A 
ATOM      4  C   UNL     1       5.403   4.313  18.488  0.00  0.00    +0.000 A 
ATOM      5  C   UNL     1       6.071   5.306  19.213  0.00  0.00    +0.000 A 
ATOM      6  C   UNL     1       6.925   6.196  18.562  0.00  0.00    +0.000 A 
ATOM      7  C   UNL     1       7.125   6.110  17.174  0.00  0.00    +0.000 A 
BRANCH   2   8
ATOM      8  C   UNL     1       6.613   4.968  14.951  0.00  0.00    +0.000 C 
ATOM      9  O   UNL     1       7.622   5.375  14.394  0.00  0.00    +0.000 OA
BRANCH   8  11
ATOM     10  C   UNL     1       5.825   3.598  13.119  0.00  0.00    +0.000 C 
ATOM     11  O   UNL     1       5.620   4.382  14.231  0.00  0.00    +0.000 OA
ENDBRANCH   8  11
ENDBRANCH   2   8
BRANCH   7  12
ATOM     12  O   UNL     1       7.967   6.973  16.566  0.00  0.00    +0.000 OA
ATOM     13  H   UNL     1       8.911   7.006  16.774  0.00  0.00    +0.000 HD
ENDBRANCH   7  12
ENDBRANCH   1   4
BRANCH   1  14
ATOM     14  O   UNL     1       5.291   2.214  19.659  0.00  0.00    +0.000 OA
ATOM     15  H   UNL     1       4.724   1.667  20.262  0.00  0.00    +0.000 HD
ENDBRANCH   1  14
BRANCH   1  16
ATOM     16  C   UNL     1       3.753   4.009  20.322  0.00  0.00    +0.000 C 
BRANCH  16  17
ATOM     17  N   UNL     1       2.399   4.384  19.904  0.00  0.00    +0.000 NA
ATOM     18  H   UNL     1       2.255   5.348  20.275  0.00  0.00    +0.000 HD
BRANCH  17  19
ATOM     19  C   UNL     1       2.267   4.431  18.428  0.00  0.00    +0.000 C 
ATOM     20  C   UNL     1       1.179   3.464  17.926  0.00  0.00    +0.000 C 
BRANCH  19  21
ATOM     21  C   UNL     1       1.918   5.867  17.954  0.00  0.00    +0.000 C 
BRANCH  21  22
ATOM     22  C   UNL     1       2.942   6.953  18.349  0.00  0.00    +0.000 C 
BRANCH  22  23
ATOM     23  C   UNL     1       2.560   8.346  17.818  0.00  0.00    +0.000 C 
BRANCH  23  24
ATOM     24  C   UNL     1       1.466   8.977  18.635  0.00  0.00    +0.000 A 
ATOM     25  C   UNL     1       1.428   8.796  20.029  0.00  0.00    +0.000 A 
ATOM     26  C   UNL     1       0.423   9.398  20.791  0.00  0.00    +0.000 A 
ATOM     27  C   UNL     1      -0.549  10.185  20.170  0.00  0.00    +0.000 A 
ATOM     28  C   UNL     1      -0.517  10.374  18.786  0.00  0.00    +0.000 A 
ATOM     29  C   UNL     1       0.487   9.775  18.019  0.00  0.00    +0.000 A 
ENDBRANCH  23  24
ENDBRANCH  22  23
ENDBRANCH  21  22
ENDBRANCH  19  21
ENDBRANCH  17  19
ENDBRANCH  16  17
ENDBRANCH   1  16
TORSDOF 12
ENDMDL
MODEL 9
REMARK VINA RESULT:      -6.7      4.891      7.256
REMARK  Name = 
REMARK  14 active torsions:
REMARK  status: ('A' for Active; 'I' for Inactive)
REMARK    1  A    between atoms: C_1  and  O_2
REMARK    2  A    between atoms: O_2  and  C_3
REMARK    3  A    between atoms: C_3  and  C_5
REMARK    4  A    between atoms: C_7  and  C_8
REMARK    5  A    between atoms: C_8  and  O_9
REMARK    6  A    between atoms: C_8  and  C_10
REMARK    7  A    between atoms: C_10  and  N_11
REMARK    8  A    between atoms: N_11  and  C_12
REMARK    9  A    between atoms: C_12  and  C_13
REMARK   10  A    between atoms: C_12  and  C_14
REMARK   11  A    between atoms: C_14  and  C_15
REMARK   12  A    between atoms: C_15  and  C_16
REMARK   13  A    between atoms: C_16  and  C_17
REMARK   14  A    between atoms: C_25  and  O_26
REMARK                            x       y       z     vdW  Elec       q    Type
REMARK                         _______ _______ _______ _____ _____    ______ ____
ROOT
ATOM      1  C   UNL     1       5.538   5.308  15.715  0.00  0.00    +0.000 C 
ENDROOT
BRANCH   1   4
ATOM      2  C   UNL     1       3.065   5.307  18.638  0.00  0.00    +0.000 A 
ATOM      3  C   UNL     1       3.913   5.732  17.603  0.00  0.00    +0.000 A 
ATOM      4  C   UNL     1       4.579   4.814  16.776  0.00  0.00    +0.000 A 
ATOM      5  C   UNL     1       4.378   3.444  16.976  0.00  0.00    +0.000 A 
ATOM      6  C   UNL     1       3.538   3.000  17.999  0.00  0.00    +0.000 A 
ATOM      7  C   UNL     1       2.884   3.919  18.837  0.00  0.00    +0.000 A 
BRANCH   2   8
ATOM      8  C   UNL     1       2.409   6.338  19.491  0.00  0.00    +0.000 C 
ATOM      9  O   UNL     1       1.673   6.009  20.409  0.00  0.00    +0.000 OA
BRANCH   8  11
ATOM     10  C   UNL     1       1.681   8.508  18.706  0.00  0.00    +0.000 C 
ATOM     11  O   UNL     1       2.627   7.654  19.223  0.00  0.00    +0.000 OA
ENDBRANCH   8  11
ENDBRANCH   2   8
BRANCH   7  12
ATOM     12  O   UNL     1       2.087   3.468  19.829  0.00  0.00    +0.000 OA
ATOM     13  H   UNL     1       2.366   2.770  20.438  0.00  0.00    +0.000 HD
ENDBRANCH   7  12
ENDBRANCH   1   4
BRANCH   1  14
ATOM     14  O   UNL     1       5.218   6.621  15.321  0.00  0.00    +0.000 OA
ATOM     15  H   UNL     1       6.046   7.167  15.344  0.00  0.00    +0.000 HD
ENDBRANCH   1  14
BRANCH   1  16
ATOM     16  C   UNL     1       6.980   5.188  16.254  0.00  0.00    +0.000 C 
BRANCH  16  17
ATOM     17  N   UNL     1       7.613   6.500  16.413  0.00  0.00    +0.000 NA
ATOM     18  H   UNL     1       7.208   7.094  15.657  0.00  0.00    +0.000 HD
BRANCH  17  19
ATOM     19  C   UNL     1       7.280   7.122  17.717  0.00  0.00    +0.000 C 
ATOM     20  C   UNL     1       8.025   6.436  18.878  0.00  0.00    +0.000 C 
BRANCH  19  21
ATOM     21  C   UNL     1       7.642   8.631  17.713  0.00  0.00    +0.000 C 
BRANCH  21  22
ATOM     22  C   UNL     1       8.997   8.980  18.366  0.00  0.00    +0.000 C 
BRANCH  22  23
ATOM     23  C   UNL     1       8.906  10.202  19.298  0.00  0.00    +0.000 C 
BRANCH  23  24
ATOM     24  C   UNL     1      10.058  11.148  19.096  0.00  0.00    +0.000 A 
ATOM     25  C   UNL     1      10.694  11.736  20.204  0.00  0.00    +0.000 A 
ATOM     26  C   UNL     1      11.776  12.601  20.018  0.00  0.00    +0.000 A 
ATOM     27  C   UNL     1      12.233  12.883  18.728  0.00  0.00    +0.000 A 
ATOM     28  C   UNL     1      11.610  12.299  17.622  0.00  0.00    +0.000 A 
ATOM     29  C   UNL     1      10.527  11.433  17.803  0.00  0.00    +0.000 A 
ENDBRANCH  23  24
ENDBRANCH  22  23
ENDBRANCH  21  22
ENDBRANCH  19  21
ENDBRANCH  17  19
ENDBRANCH  16  17
ENDBRANCH   1  16
TORSDOF 12
ENDMDL
