MODEL 1
REMARK VINA RESULT:      -8.7      0.000      0.000
REMARK  Name = 
REMARK  8 active torsions:
REMARK  status: ('A' for Active; 'I' for Inactive)
REMARK    1  A    between atoms: C_1  and  O_2
REMARK    2  A    between atoms: O_2  and  C_3
REMARK    3  A    between atoms: C_6  and  N_7
REMARK    4  A    between atoms: C_13  and  C_14
REMARK    5  A    between atoms: C_19  and  O_20
REMARK    6  A    between atoms: O_20  and  C_21
REMARK    7  A    between atoms: C_28  and  O_29
REMARK    8  A    between atoms: O_29  and  C_30
REMARK                            x       y       z     vdW  Elec       q    Type
REMARK                         _______ _______ _______ _____ _____    ______ ____
ROOT
ATOM      1  N   UNL     1       2.162   6.118  20.006  0.00  0.00    +0.000 N 
ATOM      2  C   UNL     1       1.624   5.324  20.999  0.00  0.00    +0.000 A 
ATOM      3  N   UNL     1       2.103   4.101  20.991  0.00  0.00    +0.000 NA
ATOM      4  C   UNL     1       3.014   4.082  19.965  0.00  0.00    +0.000 A 
ATOM      5  C   UNL     1       3.858   3.060  19.518  0.00  0.00    +0.000 A 
ATOM      6  N   UNL     1       4.705   3.266  18.466  0.00  0.00    +0.000 NA
ATOM      7  C   UNL     1       4.712   4.457  17.828  0.00  0.00    +0.000 A 
ATOM      8  C   UNL     1       3.929   5.531  18.253  0.00  0.00    +0.000 A 
ATOM      9  C   UNL     1       3.059   5.314  19.320  0.00  0.00    +0.000 A 
ENDROOT
BRANCH   1  13
ATOM     10  C   UNL     1       1.117  10.164  19.322  0.00  0.00    +0.000 A 
ATOM     11  C   UNL     1       1.607   9.370  18.279  0.00  0.00    +0.000 A 
ATOM     12  C   UNL     1       1.929   8.031  18.488  0.00  0.00    +0.000 A 
ATOM     13  C   UNL     1       1.846   7.482  19.768  0.00  0.00    +0.000 A 
ATOM     14  C   UNL     1       1.450   8.301  20.831  0.00  0.00    +0.000 A 
ATOM     15  C   UNL     1       1.096   9.644  20.624  0.00  0.00    +0.000 A 
BRANCH  10  17
ATOM     16  C   UNL     1      -0.718  11.534  18.742  0.00  0.00    +0.000 C 
ATOM     17  O   UNL     1       0.671  11.433  19.073  0.00  0.00    +0.000 OA
ENDBRANCH  10  17
BRANCH  15  18
ATOM     18  O   UNL     1       0.751  10.259  21.796  0.00  0.00    +0.000 OA
ATOM     19  C   UNL     1      -0.032   9.551  22.744  0.00  0.00    +0.000 C 
ENDBRANCH  15  18
ENDBRANCH   1  13
BRANCH   7  20
ATOM     20  C   UNL     1       5.511   4.579  16.585  0.00  0.00    +0.000 A 
ATOM     21  C   UNL     1       4.851   4.334  15.349  0.00  0.00    +0.000 A 
ATOM     22  C   UNL     1       5.510   4.308  14.121  0.00  0.00    +0.000 A 
ATOM     23  C   UNL     1       6.870   4.572  14.085  0.00  0.00    +0.000 A 
ATOM     24  C   UNL     1       7.535   4.874  15.267  0.00  0.00    +0.000 A 
ATOM     25  C   UNL     1       6.890   4.866  16.522  0.00  0.00    +0.000 A 
BRANCH  25  26
ATOM     26  O   UNL     1       7.720   5.279  17.524  0.00  0.00    +0.000 OA
BRANCH  26  27
ATOM     27  C   UNL     1       7.469   6.462  18.264  0.00  0.00    +0.000 C 
ATOM     28  F   UNL     1       6.631   7.337  17.670  0.00  0.00    +0.000 F 
ATOM     29  F   UNL     1       6.884   6.104  19.438  0.00  0.00    +0.000 F 
ATOM     30  F   UNL     1       8.638   7.059  18.584  0.00  0.00    +0.000 F 
ENDBRANCH  26  27
ENDBRANCH  25  26
ENDBRANCH   7  20
TORSDOF 6
ENDMDL
MODEL 2
REMARK VINA RESULT:      -8.6      3.129      7.397
REMARK  Name = 
REMARK  8 active torsions:
REMARK  status: ('A' for Active; 'I' for Inactive)
REMARK    1  A    between atoms: C_1  and  O_2
REMARK    2  A    between atoms: O_2  and  C_3
REMARK    3  A    between atoms: C_6  and  N_7
REMARK    4  A    between atoms: C_13  and  C_14
REMARK    5  A    between atoms: C_19  and  O_20
REMARK    6  A    between atoms: O_20  and  C_21
REMARK    7  A    between atoms: C_28  and  O_29
REMARK    8  A    between atoms: O_29  and  C_30
REMARK                            x       y       z     vdW  Elec       q    Type
REMARK                         _______ _______ _______ _____ _____    ______ ____
ROOT
ATOM      1  N   UNL     1       4.440   4.305  18.599  0.00  0.00    +0.000 N 
ATOM      2  C   UNL     1       4.397   3.155  19.360  0.00  0.00    +0.000 A 
ATOM      3  N   UNL     1       3.527   3.223  20.342  0.00  0.00    +0.000 NA
ATOM      4  C   UNL     1       2.949   4.462  20.219  0.00  0.00    +0.000 A 
ATOM      5  C   UNL     1       1.929   5.066  20.961  0.00  0.00    +0.000 A 
ATOM      6  N   UNL     1       1.495   6.324  20.654  0.00  0.00    +0.000 NA
ATOM      7  C   UNL     1       2.072   7.009  19.642  0.00  0.00    +0.000 A 
ATOM      8  C   UNL     1       3.062   6.446  18.835  0.00  0.00    +0.000 A 
ATOM      9  C   UNL     1       3.509   5.166  19.158  0.00  0.00    +0.000 A 
ENDROOT
BRANCH   1  13
ATOM     10  C   UNL     1       6.876   5.060  15.218  0.00  0.00    +0.000 A 
ATOM     11  C   UNL     1       6.005   3.964  15.237  0.00  0.00    +0.000 A 
ATOM     12  C   UNL     1       5.180   3.722  16.334  0.00  0.00    +0.000 A 
ATOM     13  C   UNL     1       5.274   4.526  17.471  0.00  0.00    +0.000 A 
ATOM     14  C   UNL     1       6.214   5.562  17.491  0.00  0.00    +0.000 A 
ATOM     15  C   UNL     1       7.028   5.831  16.380  0.00  0.00    +0.000 A 
BRANCH  10  17
ATOM     16  C   UNL     1       7.212   4.607  12.925  0.00  0.00    +0.000 C 
ATOM     17  O   UNL     1       7.574   5.368  14.082  0.00  0.00    +0.000 OA
ENDBRANCH  10  17
BRANCH  15  18
ATOM     18  O   UNL     1       7.878   6.876  16.619  0.00  0.00    +0.000 OA
ATOM     19  C   UNL     1       7.564   7.799  17.649  0.00  0.00    +0.000 C 
ENDBRANCH  15  18
ENDBRANCH   1  13
BRANCH   7  20
ATOM     20  C   UNL     1       1.698   8.431  19.459  0.00  0.00    +0.000 A 
ATOM     21  C   UNL     1       1.729   8.958  18.138  0.00  0.00    +0.000 A 
ATOM     22  C   UNL     1       1.507  10.302  17.844  0.00  0.00    +0.000 A 
ATOM     23  C   UNL     1       1.200  11.172  18.878  0.00  0.00    +0.000 A 
ATOM     24  C   UNL     1       1.102  10.679  20.174  0.00  0.00    +0.000 A 
ATOM     25  C   UNL     1       1.362   9.331  20.492  0.00  0.00    +0.000 A 
BRANCH  25  26
ATOM     26  O   UNL     1       1.117   9.061  21.808  0.00  0.00    +0.000 OA
BRANCH  26  27
ATOM     27  C   UNL     1      -0.181   9.178  22.367  0.00  0.00    +0.000 C 
ATOM     28  F   UNL     1      -0.863  10.281  21.994  0.00  0.00    +0.000 F 
ATOM     29  F   UNL     1      -0.913   8.111  21.951  0.00  0.00    +0.000 F 
ATOM     30  F   UNL     1      -0.109   9.092  23.714  0.00  0.00    +0.000 F 
ENDBRANCH  26  27
ENDBRANCH  25  26
ENDBRANCH   7  20
TORSDOF 6
ENDMDL
MODEL 3
REMARK VINA RESULT:      -8.1      0.894      1.184
REMARK  Name = 
REMARK  8 active torsions:
REMARK  status: ('A' for Active; 'I' for Inactive)
REMARK    1  A    between atoms: C_1  and  O_2
REMARK    2  A    between atoms: O_2  and  C_3
REMARK    3  A    between atoms: C_6  and  N_7
REMARK    4  A    between atoms: C_13  and  C_14
REMARK    5  A    between atoms: C_19  and  O_20
REMARK    6  A    between atoms: O_20  and  C_21
REMARK    7  A    between atoms: C_28  and  O_29
REMARK    8  A    between atoms: O_29  and  C_30
REMARK                            x       y       z     vdW  Elec       q    Type
REMARK                         _______ _______ _______ _____ _____    ______ ____
ROOT
ATOM      1  N   UNL     1       2.133   6.547  19.912  0.00  0.00    +0.000 N 
ATOM      2  C   UNL     1       1.618   5.833  20.974  0.00  0.00    +0.000 A 
ATOM      3  N   UNL     1       2.117   4.621  21.065  0.00  0.00    +0.000 NA
ATOM      4  C   UNL     1       3.019   4.529  20.035  0.00  0.00    +0.000 A 
ATOM      5  C   UNL     1       3.876   3.486  19.668  0.00  0.00    +0.000 A 
ATOM      6  N   UNL     1       4.711   3.615  18.594  0.00  0.00    +0.000 NA
ATOM      7  C   UNL     1       4.693   4.747  17.857  0.00  0.00    +0.000 A 
ATOM      8  C   UNL     1       3.895   5.841  18.197  0.00  0.00    +0.000 A 
ATOM      9  C   UNL     1       3.038   5.702  19.287  0.00  0.00    +0.000 A 
ENDROOT
BRANCH   1  13
ATOM     10  C   UNL     1       1.015  10.493  18.856  0.00  0.00    +0.000 A 
ATOM     11  C   UNL     1       1.904   9.767  18.055  0.00  0.00    +0.000 A 
ATOM     12  C   UNL     1       2.258   8.459  18.380  0.00  0.00    +0.000 A 
ATOM     13  C   UNL     1       1.793   7.881  19.562  0.00  0.00    +0.000 A 
ATOM     14  C   UNL     1       0.982   8.639  20.413  0.00  0.00    +0.000 A 
ATOM     15  C   UNL     1       0.598   9.948  20.080  0.00  0.00    +0.000 A 
BRANCH  10  17
ATOM     16  C   UNL     1       1.572  12.735  18.368  0.00  0.00    +0.000 C 
ATOM     17  O   UNL     1       0.566  11.720  18.453  0.00  0.00    +0.000 OA
ENDBRANCH  10  17
BRANCH  15  18
ATOM     18  O   UNL     1      -0.183  10.507  21.054  0.00  0.00    +0.000 OA
ATOM     19  C   UNL     1       0.202  11.750  21.617  0.00  0.00    +0.000 C 
ENDBRANCH  15  18
ENDBRANCH   1  13
BRANCH   7  20
ATOM     20  C   UNL     1       5.478   4.775  16.601  0.00  0.00    +0.000 A 
ATOM     21  C   UNL     1       4.823   4.377  15.402  0.00  0.00    +0.000 A 
ATOM     22  C   UNL     1       5.476   4.254  14.177  0.00  0.00    +0.000 A 
ATOM     23  C   UNL     1       6.822   4.570  14.101  0.00  0.00    +0.000 A 
ATOM     24  C   UNL     1       7.480   5.020  15.240  0.00  0.00    +0.000 A 
ATOM     25  C   UNL     1       6.843   5.113  16.494  0.00  0.00    +0.000 A 
BRANCH  25  26
ATOM     26  O   UNL     1       7.660   5.662  17.441  0.00  0.00    +0.000 OA
BRANCH  26  27
ATOM     27  C   UNL     1       7.661   7.054  17.713  0.00  0.00    +0.000 C 
ATOM     28  F   UNL     1       8.337   7.414  18.823  0.00  0.00    +0.000 F 
ATOM     29  F   UNL     1       8.267   7.682  16.671  0.00  0.00    +0.000 F 
ATOM     30  F   UNL     1       6.391   7.514  17.753  0.00  0.00    +0.000 F 
ENDBRANCH  26  27
ENDBRANCH  25  26
ENDBRANCH   7  20
TORSDOF 6
ENDMDL
MODEL 4
REMARK VINA RESULT:      -7.7      3.389      7.802
REMARK  Name = 
REMARK  8 active torsions:
REMARK  status: ('A' for Active; 'I' for Inactive)
REMARK    1  A    between atoms: C_1  and  O_2
REMARK    2  A    between atoms: O_2  and  C_3
REMARK    3  A    between atoms: C_6  and  N_7
REMARK    4  A    between atoms: C_13  and  C_14
REMARK    5  A    between atoms: C_19  and  O_20
REMARK    6  A    between atoms: O_20  and  C_21
REMARK    7  A    between atoms: C_28  and  O_29
REMARK    8  A    between atoms: O_29  and  C_30
REMARK                            x       y       z     vdW  Elec       q    Type
REMARK                         _______ _______ _______ _____ _____    ______ ____
ROOT
ATOM      1  N   UNL     1       3.217   5.824  19.140  0.00  0.00    +0.000 N 
ATOM      2  C   UNL     1       2.987   4.884  20.124  0.00  0.00    +0.000 A 
ATOM      3  N   UNL     1       2.120   5.288  21.024  0.00  0.00    +0.000 NA
ATOM      4  C   UNL     1       1.738   6.540  20.613  0.00  0.00    +0.000 A 
ATOM      5  C   UNL     1       0.808   7.431  21.159  0.00  0.00    +0.000 A 
ATOM      6  N   UNL     1       0.575   8.642  20.572  0.00  0.00    +0.000 NA
ATOM      7  C   UNL     1       1.267   9.001  19.468  0.00  0.00    +0.000 A 
ATOM      8  C   UNL     1       2.174   8.141  18.849  0.00  0.00    +0.000 A 
ATOM      9  C   UNL     1       2.417   6.910  19.456  0.00  0.00    +0.000 A 
ENDROOT
BRANCH   1  13
ATOM     10  C   UNL     1       5.788   5.464  15.794  0.00  0.00    +0.000 A 
ATOM     11  C   UNL     1       4.851   4.464  16.082  0.00  0.00    +0.000 A 
ATOM     12  C   UNL     1       3.983   4.586  17.165  0.00  0.00    +0.000 A 
ATOM     13  C   UNL     1       4.094   5.673  18.033  0.00  0.00    +0.000 A 
ATOM     14  C   UNL     1       5.094   6.623  17.803  0.00  0.00    +0.000 A 
ATOM     15  C   UNL     1       5.955   6.524  16.697  0.00  0.00    +0.000 A 
BRANCH  10  17
ATOM     16  C   UNL     1       6.374   4.201  13.886  0.00  0.00    +0.000 C 
ATOM     17  O   UNL     1       6.536   5.401  14.650  0.00  0.00    +0.000 OA
ENDBRANCH  10  17
BRANCH  15  18
ATOM     18  O   UNL     1       6.860   7.549  16.670  0.00  0.00    +0.000 OA
ATOM     19  C   UNL     1       7.750   7.713  17.763  0.00  0.00    +0.000 C 
ENDBRANCH  15  18
ENDBRANCH   1  13
BRANCH   7  20
ATOM     20  C   UNL     1       1.115  10.389  18.970  0.00  0.00    +0.000 A 
ATOM     21  C   UNL     1       2.298  11.103  18.633  0.00  0.00    +0.000 A 
ATOM     22  C   UNL     1       2.301  12.446  18.258  0.00  0.00    +0.000 A 
ATOM     23  C   UNL     1       1.094  13.119  18.168  0.00  0.00    +0.000 A 
ATOM     24  C   UNL     1      -0.086  12.435  18.432  0.00  0.00    +0.000 A 
ATOM     25  C   UNL     1      -0.104  11.088  18.849  0.00  0.00    +0.000 A 
BRANCH  25  26
ATOM     26  O   UNL     1      -1.376  10.606  18.962  0.00  0.00    +0.000 OA
BRANCH  26  27
ATOM     27  C   UNL     1      -2.112  10.163  17.833  0.00  0.00    +0.000 C 
ATOM     28  F   UNL     1      -3.100   9.287  18.108  0.00  0.00    +0.000 F 
ATOM     29  F   UNL     1      -2.703  11.249  17.268  0.00  0.00    +0.000 F 
ATOM     30  F   UNL     1      -1.268   9.659  16.906  0.00  0.00    +0.000 F 
ENDBRANCH  26  27
ENDBRANCH  25  26
ENDBRANCH   7  20
TORSDOF 6
ENDMDL
MODEL 5
REMARK VINA RESULT:      -7.7      0.958      1.895
REMARK  Name = 
REMARK  8 active torsions:
REMARK  status: ('A' for Active; 'I' for Inactive)
REMARK    1  A    between atoms: C_1  and  O_2
REMARK    2  A    between atoms: O_2  and  C_3
REMARK    3  A    between atoms: C_6  and  N_7
REMARK    4  A    between atoms: C_13  and  C_14
REMARK    5  A    between atoms: C_19  and  O_20
REMARK    6  A    between atoms: O_20  and  C_21
REMARK    7  A    between atoms: C_28  and  O_29
REMARK    8  A    between atoms: O_29  and  C_30
REMARK                            x       y       z     vdW  Elec       q    Type
REMARK                         _______ _______ _______ _____ _____    ______ ____
ROOT
ATOM      1  N   UNL     1       2.278   5.334  20.469  0.00  0.00    +0.000 N 
ATOM      2  C   UNL     1       1.873   4.420  21.420  0.00  0.00    +0.000 A 
ATOM      3  N   UNL     1       2.479   3.259  21.304  0.00  0.00    +0.000 NA
ATOM      4  C   UNL     1       3.339   3.411  20.246  0.00  0.00    +0.000 A 
ATOM      5  C   UNL     1       4.266   2.520  19.694  0.00  0.00    +0.000 A 
ATOM      6  N   UNL     1       5.038   2.889  18.630  0.00  0.00    +0.000 NA
ATOM      7  C   UNL     1       4.890   4.115  18.081  0.00  0.00    +0.000 A 
ATOM      8  C   UNL     1       4.017   5.065  18.613  0.00  0.00    +0.000 A 
ATOM      9  C   UNL     1       3.224   4.682  19.692  0.00  0.00    +0.000 A 
ENDROOT
BRANCH   1  13
ATOM     10  C   UNL     1       0.983   9.349  20.107  0.00  0.00    +0.000 A 
ATOM     11  C   UNL     1       0.553   8.557  21.179  0.00  0.00    +0.000 A 
ATOM     12  C   UNL     1       0.995   7.243  21.321  0.00  0.00    +0.000 A 
ATOM     13  C   UNL     1       1.809   6.669  20.344  0.00  0.00    +0.000 A 
ATOM     14  C   UNL     1       2.160   7.428  19.222  0.00  0.00    +0.000 A 
ATOM     15  C   UNL     1       1.743   8.762  19.085  0.00  0.00    +0.000 A 
BRANCH  10  17
ATOM     16  C   UNL     1       0.347  11.273  21.319  0.00  0.00    +0.000 C 
ATOM     17  O   UNL     1       0.657  10.677  20.056  0.00  0.00    +0.000 OA
ENDBRANCH  10  17
BRANCH  15  18
ATOM     18  O   UNL     1       2.188   9.310  17.914  0.00  0.00    +0.000 OA
ATOM     19  C   UNL     1       2.311  10.720  17.815  0.00  0.00    +0.000 C 
ENDBRANCH  15  18
ENDBRANCH   1  13
BRANCH   7  20
ATOM     20  C   UNL     1       5.615   4.409  16.822  0.00  0.00    +0.000 A 
ATOM     21  C   UNL     1       4.905   4.252  15.599  0.00  0.00    +0.000 A 
ATOM     22  C   UNL     1       5.500   4.389  14.346  0.00  0.00    +0.000 A 
ATOM     23  C   UNL     1       6.840   4.734  14.274  0.00  0.00    +0.000 A 
ATOM     24  C   UNL     1       7.548   4.954  15.449  0.00  0.00    +0.000 A 
ATOM     25  C   UNL     1       6.972   4.781  16.724  0.00  0.00    +0.000 A 
BRANCH  25  26
ATOM     26  O   UNL     1       7.829   5.139  17.724  0.00  0.00    +0.000 OA
BRANCH  26  27
ATOM     27  C   UNL     1       7.593   6.271  18.545  0.00  0.00    +0.000 C 
ATOM     28  F   UNL     1       8.670   7.056  18.753  0.00  0.00    +0.000 F 
ATOM     29  F   UNL     1       6.663   7.047  17.928  0.00  0.00    +0.000 F 
ATOM     30  F   UNL     1       7.050   5.880  19.719  0.00  0.00    +0.000 F 
ENDBRANCH  26  27
ENDBRANCH  25  26
ENDBRANCH   7  20
TORSDOF 6
ENDMDL
MODEL 6
REMARK VINA RESULT:      -7.6      5.366      9.295
REMARK  Name = 
REMARK  8 active torsions:
REMARK  status: ('A' for Active; 'I' for Inactive)
REMARK    1  A    between atoms: C_1  and  O_2
REMARK    2  A    between atoms: O_2  and  C_3
REMARK    3  A    between atoms: C_6  and  N_7
REMARK    4  A    between atoms: C_13  and  C_14
REMARK    5  A    between atoms: C_19  and  O_20
REMARK    6  A    between atoms: O_20  and  C_21
REMARK    7  A    between atoms: C_28  and  O_29
REMARK    8  A    between atoms: O_29  and  C_30
REMARK                            x       y       z     vdW  Elec       q    Type
REMARK                         _______ _______ _______ _____ _____    ______ ____
ROOT
ATOM      1  N   UNL     1       1.117   9.066  20.621  0.00  0.00    +0.000 N 
ATOM      2  C   UNL     1       1.521   9.667  21.796  0.00  0.00    +0.000 A 
ATOM      3  N   UNL     1       0.797  10.718  22.108  0.00  0.00    +0.000 NA
ATOM      4  C   UNL     1      -0.143  10.810  21.113  0.00  0.00    +0.000 A 
ATOM      5  C   UNL     1      -1.201  11.709  20.944  0.00  0.00    +0.000 A 
ATOM      6  N   UNL     1      -2.033  11.611  19.865  0.00  0.00    +0.000 NA
ATOM      7  C   UNL     1      -1.821  10.656  18.933  0.00  0.00    +0.000 A 
ATOM      8  C   UNL     1      -0.811   9.701  19.066  0.00  0.00    +0.000 A 
ATOM      9  C   UNL     1       0.042   9.810  20.163  0.00  0.00    +0.000 A 
ENDROOT
BRANCH   1  13
ATOM     10  C   UNL     1       2.930   5.625  18.945  0.00  0.00    +0.000 A 
ATOM     11  C   UNL     1       2.878   6.825  18.224  0.00  0.00    +0.000 A 
ATOM     12  C   UNL     1       2.308   7.969  18.778  0.00  0.00    +0.000 A 
ATOM     13  C   UNL     1       1.700   7.912  20.033  0.00  0.00    +0.000 A 
ATOM     14  C   UNL     1       1.664   6.690  20.712  0.00  0.00    +0.000 A 
ATOM     15  C   UNL     1       2.262   5.538  20.175  0.00  0.00    +0.000 A 
BRANCH  10  17
ATOM     16  C   UNL     1       4.935   4.378  18.981  0.00  0.00    +0.000 C 
ATOM     17  O   UNL     1       3.617   4.551  18.449  0.00  0.00    +0.000 OA
ENDBRANCH  10  17
BRANCH  15  18
ATOM     18  O   UNL     1       2.101   4.457  20.997  0.00  0.00    +0.000 OA
ATOM     19  C   UNL     1       1.091   3.507  20.697  0.00  0.00    +0.000 C 
ENDBRANCH  15  18
ENDBRANCH   1  13
BRANCH   7  20
ATOM     20  C   UNL     1      -2.632  10.697  17.694  0.00  0.00    +0.000 A 
ATOM     21  C   UNL     1      -2.136  10.001  16.556  0.00  0.00    +0.000 A 
ATOM     22  C   UNL     1      -2.745  10.051  15.303  0.00  0.00    +0.000 A 
ATOM     23  C   UNL     1      -3.913  10.780  15.154  0.00  0.00    +0.000 A 
ATOM     24  C   UNL     1      -4.458  11.423  16.259  0.00  0.00    +0.000 A 
ATOM     25  C   UNL     1      -3.834  11.414  17.524  0.00  0.00    +0.000 A 
BRANCH  25  26
ATOM     26  O   UNL     1      -4.595  12.034  18.472  0.00  0.00    +0.000 OA
BRANCH  26  27
ATOM     27  C   UNL     1      -5.757  11.429  19.014  0.00  0.00    +0.000 C 
ATOM     28  F   UNL     1      -5.914  11.591  20.344  0.00  0.00    +0.000 F 
ATOM     29  F   UNL     1      -6.840  12.001  18.425  0.00  0.00    +0.000 F 
ATOM     30  F   UNL     1      -5.788  10.119  18.684  0.00  0.00    +0.000 F 
ENDBRANCH  26  27
ENDBRANCH  25  26
ENDBRANCH   7  20
TORSDOF 6
ENDMDL
MODEL 7
REMARK VINA RESULT:      -7.3      5.288      9.314
REMARK  Name = 
REMARK  8 active torsions:
REMARK  status: ('A' for Active; 'I' for Inactive)
REMARK    1  A    between atoms: C_1  and  O_2
REMARK    2  A    between atoms: O_2  and  C_3
REMARK    3  A    between atoms: C_6  and  N_7
REMARK    4  A    between atoms: C_13  and  C_14
REMARK    5  A    between atoms: C_19  and  O_20
REMARK    6  A    between atoms: O_20  and  C_21
REMARK    7  A    between atoms: C_28  and  O_29
REMARK    8  A    between atoms: O_29  and  C_30
REMARK                            x       y       z     vdW  Elec       q    Type
REMARK                         _______ _______ _______ _____ _____    ______ ____
ROOT
ATOM      1  N   UNL     1       1.070   8.949  20.765  0.00  0.00    +0.000 N 
ATOM      2  C   UNL     1       1.472   9.570  21.930  0.00  0.00    +0.000 A 
ATOM      3  N   UNL     1       0.780  10.655  22.195  0.00  0.00    +0.000 NA
ATOM      4  C   UNL     1      -0.136  10.751  21.178  0.00  0.00    +0.000 A 
ATOM      5  C   UNL     1      -1.158  11.680  20.960  0.00  0.00    +0.000 A 
ATOM      6  N   UNL     1      -1.971  11.579  19.867  0.00  0.00    +0.000 NA
ATOM      7  C   UNL     1      -1.774  10.589  18.968  0.00  0.00    +0.000 A 
ATOM      8  C   UNL     1      -0.802   9.604  19.151  0.00  0.00    +0.000 A 
ATOM      9  C   UNL     1       0.032   9.717  20.262  0.00  0.00    +0.000 A 
ENDROOT
BRANCH   1  13
ATOM     10  C   UNL     1       2.649   5.405  19.066  0.00  0.00    +0.000 A 
ATOM     11  C   UNL     1       2.007   5.373  20.311  0.00  0.00    +0.000 A 
ATOM     12  C   UNL     1       1.462   6.529  20.865  0.00  0.00    +0.000 A 
ATOM     13  C   UNL     1       1.623   7.758  20.223  0.00  0.00    +0.000 A 
ATOM     14  C   UNL     1       2.348   7.807  19.029  0.00  0.00    +0.000 A 
ATOM     15  C   UNL     1       2.877   6.643  18.447  0.00  0.00    +0.000 A 
BRANCH  10  17
ATOM     16  C   UNL     1       4.140   3.575  19.117  0.00  0.00    +0.000 C 
ATOM     17  O   UNL     1       3.053   4.243  18.468  0.00  0.00    +0.000 OA
ENDBRANCH  10  17
BRANCH  15  18
ATOM     18  O   UNL     1       3.555   6.920  17.293  0.00  0.00    +0.000 OA
ATOM     19  C   UNL     1       4.968   6.798  17.276  0.00  0.00    +0.000 C 
ENDBRANCH  15  18
ENDBRANCH   1  13
BRANCH   7  20
ATOM     20  C   UNL     1      -2.558  10.622  17.711  0.00  0.00    +0.000 A 
ATOM     21  C   UNL     1      -2.037   9.919  16.589  0.00  0.00    +0.000 A 
ATOM     22  C   UNL     1      -2.618   9.960  15.323  0.00  0.00    +0.000 A 
ATOM     23  C   UNL     1      -3.784  10.686  15.144  0.00  0.00    +0.000 A 
ATOM     24  C   UNL     1      -4.353  11.336  16.233  0.00  0.00    +0.000 A 
ATOM     25  C   UNL     1      -3.757  11.336  17.510  0.00  0.00    +0.000 A 
BRANCH  25  26
ATOM     26  O   UNL     1      -4.539  11.962  18.438  0.00  0.00    +0.000 OA
BRANCH  26  27
ATOM     27  C   UNL     1      -5.768  11.407  18.878  0.00  0.00    +0.000 C 
ATOM     28  F   UNL     1      -6.856  11.833  18.204  0.00  0.00    +0.000 F 
ATOM     29  F   UNL     1      -5.706  10.061  18.702  0.00  0.00    +0.000 F 
ATOM     30  F   UNL     1      -5.915  11.615  20.205  0.00  0.00    +0.000 F 
ENDBRANCH  26  27
ENDBRANCH  25  26
ENDBRANCH   7  20
TORSDOF 6
ENDMDL
MODEL 8
REMARK VINA RESULT:      -7.3      3.364      7.920
REMARK  Name = 
REMARK  8 active torsions:
REMARK  status: ('A' for Active; 'I' for Inactive)
REMARK    1  A    between atoms: C_1  and  O_2
REMARK    2  A    between atoms: O_2  and  C_3
REMARK    3  A    between atoms: C_6  and  N_7
REMARK    4  A    between atoms: C_13  and  C_14
REMARK    5  A    between atoms: C_19  and  O_20
REMARK    6  A    between atoms: O_20  and  C_21
REMARK    7  A    between atoms: C_28  and  O_29
REMARK    8  A    between atoms: O_29  and  C_30
REMARK                            x       y       z     vdW  Elec       q    Type
REMARK                         _______ _______ _______ _____ _____    ______ ____
ROOT
ATOM      1  N   UNL     1       3.078   6.216  19.421  0.00  0.00    +0.000 N 
ATOM      2  C   UNL     1       2.731   5.263  20.356  0.00  0.00    +0.000 A 
ATOM      3  N   UNL     1       1.745   5.646  21.135  0.00  0.00    +0.000 NA
ATOM      4  C   UNL     1       1.404   6.898  20.688  0.00  0.00    +0.000 A 
ATOM      5  C   UNL     1       0.397   7.771  21.112  0.00  0.00    +0.000 A 
ATOM      6  N   UNL     1       0.228   8.985  20.510  0.00  0.00    +0.000 NA
ATOM      7  C   UNL     1       1.057   9.365  19.513  0.00  0.00    +0.000 A 
ATOM      8  C   UNL     1       2.052   8.523  19.013  0.00  0.00    +0.000 A 
ATOM      9  C   UNL     1       2.228   7.289  19.637  0.00  0.00    +0.000 A 
ENDROOT
BRANCH   1  13
ATOM     10  C   UNL     1       6.180   5.909  16.554  0.00  0.00    +0.000 A 
ATOM     11  C   UNL     1       4.918   6.394  16.188  0.00  0.00    +0.000 A 
ATOM     12  C   UNL     1       3.900   6.523  17.130  0.00  0.00    +0.000 A 
ATOM     13  C   UNL     1       4.098   6.088  18.441  0.00  0.00    +0.000 A 
ATOM     14  C   UNL     1       5.326   5.513  18.784  0.00  0.00    +0.000 A 
ATOM     15  C   UNL     1       6.368   5.405  17.850  0.00  0.00    +0.000 A 
BRANCH  10  17
ATOM     16  C   UNL     1       7.142   4.911  14.642  0.00  0.00    +0.000 C 
ATOM     17  O   UNL     1       7.211   5.920  15.656  0.00  0.00    +0.000 OA
ENDBRANCH  10  17
BRANCH  15  18
ATOM     18  O   UNL     1       7.471   4.804  18.392  0.00  0.00    +0.000 OA
ATOM     19  C   UNL     1       8.165   5.457  19.443  0.00  0.00    +0.000 C 
ENDBRANCH  15  18
ENDBRANCH   1  13
BRANCH   7  20
ATOM     20  C   UNL     1       0.955  10.756  19.012  0.00  0.00    +0.000 A 
ATOM     21  C   UNL     1       2.166  11.463  18.772  0.00  0.00    +0.000 A 
ATOM     22  C   UNL     1       2.208  12.807  18.405  0.00  0.00    +0.000 A 
ATOM     23  C   UNL     1       1.016  13.490  18.225  0.00  0.00    +0.000 A 
ATOM     24  C   UNL     1      -0.186  12.814  18.392  0.00  0.00    +0.000 A 
ATOM     25  C   UNL     1      -0.246  11.465  18.800  0.00  0.00    +0.000 A 
BRANCH  25  26
ATOM     26  O   UNL     1      -1.526  10.992  18.810  0.00  0.00    +0.000 OA
BRANCH  26  27
ATOM     27  C   UNL     1      -2.087  10.326  17.691  0.00  0.00    +0.000 C 
ATOM     28  F   UNL     1      -3.162   9.558  17.968  0.00  0.00    +0.000 F 
ATOM     29  F   UNL     1      -2.505  11.271  16.808  0.00  0.00    +0.000 F 
ATOM     30  F   UNL     1      -1.133   9.606  17.061  0.00  0.00    +0.000 F 
ENDBRANCH  26  27
ENDBRANCH  25  26
ENDBRANCH   7  20
TORSDOF 6
ENDMDL
MODEL 9
REMARK VINA RESULT:      -7.2      3.339      7.574
REMARK  Name = 
REMARK  8 active torsions:
REMARK  status: ('A' for Active; 'I' for Inactive)
REMARK    1  A    between atoms: C_1  and  O_2
REMARK    2  A    between atoms: O_2  and  C_3
REMARK    3  A    between atoms: C_6  and  N_7
REMARK    4  A    between atoms: C_13  and  C_14
REMARK    5  A    between atoms: C_19  and  O_20
REMARK    6  A    between atoms: O_20  and  C_21
REMARK    7  A    between atoms: C_28  and  O_29
REMARK    8  A    between atoms: O_29  and  C_30
REMARK                            x       y       z     vdW  Elec       q    Type
REMARK                         _______ _______ _______ _____ _____    ______ ____
ROOT
ATOM      1  N   UNL     1       3.518   5.178  18.942  0.00  0.00    +0.000 N 
ATOM      2  C   UNL     1       3.252   4.100  19.762  0.00  0.00    +0.000 A 
ATOM      3  N   UNL     1       2.400   4.385  20.721  0.00  0.00    +0.000 NA
ATOM      4  C   UNL     1       2.067   5.701  20.521  0.00  0.00    +0.000 A 
ATOM      5  C   UNL     1       1.171   6.526  21.209  0.00  0.00    +0.000 A 
ATOM      6  N   UNL     1       0.984   7.824  20.828  0.00  0.00    +0.000 NA
ATOM      7  C   UNL     1       1.690   8.332  19.793  0.00  0.00    +0.000 A 
ATOM      8  C   UNL     1       2.565   7.549  19.037  0.00  0.00    +0.000 A 
ATOM      9  C   UNL     1       2.760   6.228  19.436  0.00  0.00    +0.000 A 
ENDROOT
BRANCH   1  13
ATOM     10  C   UNL     1       6.076   5.269  15.569  0.00  0.00    +0.000 A 
ATOM     11  C   UNL     1       5.093   4.280  15.690  0.00  0.00    +0.000 A 
ATOM     12  C   UNL     1       4.230   4.257  16.783  0.00  0.00    +0.000 A 
ATOM     13  C   UNL     1       4.389   5.176  17.821  0.00  0.00    +0.000 A 
ATOM     14  C   UNL     1       5.433   6.104  17.748  0.00  0.00    +0.000 A 
ATOM     15  C   UNL     1       6.290   6.153  16.637  0.00  0.00    +0.000 A 
BRANCH  10  17
ATOM     16  C   UNL     1       6.722   4.245  13.542  0.00  0.00    +0.000 C 
ATOM     17  O   UNL     1       6.822   5.366  14.426  0.00  0.00    +0.000 OA
ENDBRANCH  10  17
BRANCH  15  18
ATOM     18  O   UNL     1       7.242   7.125  16.778  0.00  0.00    +0.000 OA
ATOM     19  C   UNL     1       7.784   7.379  18.064  0.00  0.00    +0.000 C 
ENDBRANCH  15  18
ENDBRANCH   1  13
BRANCH   7  20
ATOM     20  C   UNL     1       1.592   9.786  19.528  0.00  0.00    +0.000 A 
ATOM     21  C   UNL     1       1.861  10.236  18.205  0.00  0.00    +0.000 A 
ATOM     22  C   UNL     1       1.910  11.583  17.850  0.00  0.00    +0.000 A 
ATOM     23  C   UNL     1       1.646  12.541  18.816  0.00  0.00    +0.000 A 
ATOM     24  C   UNL     1       1.320  12.134  20.104  0.00  0.00    +0.000 A 
ATOM     25  C   UNL     1       1.304  10.778  20.489  0.00  0.00    +0.000 A 
BRANCH  25  26
ATOM     26  O   UNL     1       0.871  10.617  21.773  0.00  0.00    +0.000 OA
BRANCH  26  27
ATOM     27  C   UNL     1      -0.496  10.754  22.125  0.00  0.00    +0.000 C 
ATOM     28  F   UNL     1      -1.346  10.830  21.081  0.00  0.00    +0.000 F 
ATOM     29  F   UNL     1      -0.856   9.654  22.837  0.00  0.00    +0.000 F 
ATOM     30  F   UNL     1      -0.652  11.813  22.950  0.00  0.00    +0.000 F 
ENDBRANCH  26  27
ENDBRANCH  25  26
ENDBRANCH   7  20
TORSDOF 6
ENDMDL
