MODEL 1
REMARK VINA RESULT:      -7.1      0.000      0.000
REMARK  Name = 
REMARK  10 active torsions:
REMARK  status: ('A' for Active; 'I' for Inactive)
REMARK    1  A    between atoms: C_1  and  N_2
REMARK    2  A    between atoms: N_2  and  CA_3
REMARK    3  A    between atoms: CA_3  and  C_4
REMARK    4  A    between atoms: CA_3  and  C_14
REMARK    5  A    between atoms: C_4  and  C_5
REMARK    6  A    between atoms: C_6  and  C_7
REMARK    7  A    between atoms: C_9  and  O_10
REMARK    8  A    between atoms: C_12  and  C_13
REMARK    9  A    between atoms: CA_25  and  C_26
REMARK   10  A    between atoms: C_26  and  OXT_28
REMARK                            x       y       z     vdW  Elec       q    Type
REMARK                         _______ _______ _______ _____ _____    ______ ____
ROOT
ATOM      1  C   UNL     1       2.512   7.698  18.026  0.00  0.00    +0.000 C 
ATOM      2  O   UNL     1       3.322   8.217  17.248  0.00  0.00    +0.000 OA
ATOM      3  N   UNL     1       2.697   6.352  18.328  0.00  0.00    +0.000 N 
ATOM      4  C   UNL     1       1.684   5.564  19.023  0.00  0.00    +0.000 C 
ATOM      5  C   UNL     1       2.257   4.360  19.704  0.00  0.00    +0.000 A 
ATOM      6  C   UNL     1       1.858   4.016  21.003  0.00  0.00    +0.000 A 
ATOM      7  C   UNL     1       2.411   2.901  21.622  0.00  0.00    +0.000 A 
ATOM      8  C   UNL     1       3.347   2.123  20.942  0.00  0.00    +0.000 A 
ATOM      9  C   UNL     1       3.736   2.456  19.642  0.00  0.00    +0.000 A 
ATOM     10  C   UNL     1       3.201   3.584  19.027  0.00  0.00    +0.000 A 
ATOM     11  C   UNL     1       3.601   4.054  17.652  0.00  0.00    +0.000 C 
ATOM     12  CA  UNL     1       3.811   5.588  17.654  0.00  0.00    +0.000 C 
ENDROOT
BRANCH  12  13
ATOM     13  C   UNL     1       5.208   5.907  18.251  0.00  0.00    +0.000 C 
ATOM     14  O   UNL     1       5.640   5.455  19.304  0.00  0.00    +0.000 OA
BRANCH  13  15
ATOM     15  OXT UNL     1       6.005   6.638  17.433  0.00  0.00    +0.000 OA
ATOM     16  HXT UNL     1       6.275   6.138  16.625  0.00  0.00    +0.000 HD
ENDBRANCH  13  15
ENDBRANCH  12  13
BRANCH   1  17
ATOM     17  CA  UNL     1       1.431   8.539  18.808  0.00  0.00    +0.000 C 
BRANCH  17  19
ATOM     18  C   UNL     1       0.775   8.528  21.194  0.00  0.00    +0.000 C 
ATOM     19  N   UNL     1       1.841   8.669  20.220  0.00  0.00    +0.000 NA
ATOM     20  H   UNL     1       2.614   8.042  20.438  0.00  0.00    +0.000 HD
ENDBRANCH  17  19
BRANCH  17  21
ATOM     21  C   UNL     1       1.011   9.829  18.073  0.00  0.00    +0.000 C 
BRANCH  21  22
ATOM     22  C   UNL     1      -0.175  10.742  18.345  0.00  0.00    +0.000 A 
ATOM     23  C   UNL     1      -1.506  10.580  17.897  0.00  0.00    +0.000 A 
ATOM     24  C   UNL     1      -2.020   9.741  16.760  0.00  0.00    +0.000 C 
ATOM     25  C   UNL     1      -2.527  11.354  18.487  0.00  0.00    +0.000 A 
ATOM     26  C   UNL     1      -2.252  12.312  19.444  0.00  0.00    +0.000 A 
ATOM     27  C   UNL     1      -0.948  12.599  19.781  0.00  0.00    +0.000 A 
ATOM     28  C   UNL     1       0.099  11.844  19.231  0.00  0.00    +0.000 A 
ATOM     29  C   UNL     1       1.505  12.262  19.607  0.00  0.00    +0.000 C 
BRANCH  26  30
ATOM     30  O   UNL     1      -3.255  12.999  20.056  0.00  0.00    +0.000 OA
ATOM     31  H   UNL     1      -3.830  12.349  20.493  0.00  0.00    +0.000 HD
ENDBRANCH  26  30
ENDBRANCH  21  22
ENDBRANCH  17  21
ENDBRANCH   1  17
TORSDOF 7
ENDMDL
MODEL 2
REMARK VINA RESULT:      -6.9      1.023      1.032
REMARK  Name = 
REMARK  10 active torsions:
REMARK  status: ('A' for Active; 'I' for Inactive)
REMARK    1  A    between atoms: C_1  and  N_2
REMARK    2  A    between atoms: N_2  and  CA_3
REMARK    3  A    between atoms: CA_3  and  C_4
REMARK    4  A    between atoms: CA_3  and  C_14
REMARK    5  A    between atoms: C_4  and  C_5
REMARK    6  A    between atoms: C_6  and  C_7
REMARK    7  A    between atoms: C_9  and  O_10
REMARK    8  A    between atoms: C_12  and  C_13
REMARK    9  A    between atoms: CA_25  and  C_26
REMARK   10  A    between atoms: C_26  and  OXT_28
REMARK                            x       y       z     vdW  Elec       q    Type
REMARK                         _______ _______ _______ _____ _____    ______ ____
ROOT
ATOM      1  C   UNL     1       2.797   7.749  18.012  0.00  0.00    +0.000 C 
ATOM      2  O   UNL     1       3.817   8.409  17.779  0.00  0.00    +0.000 OA
ATOM      3  N   UNL     1       2.894   6.366  17.886  0.00  0.00    +0.000 N 
ATOM      4  C   UNL     1       1.718   5.500  17.886  0.00  0.00    +0.000 C 
ATOM      5  C   UNL     1       2.041   4.091  18.273  0.00  0.00    +0.000 A 
ATOM      6  C   UNL     1       1.218   3.387  19.162  0.00  0.00    +0.000 A 
ATOM      7  C   UNL     1       1.541   2.082  19.517  0.00  0.00    +0.000 A 
ATOM      8  C   UNL     1       2.674   1.477  18.975  0.00  0.00    +0.000 A 
ATOM      9  C   UNL     1       3.490   2.172  18.077  0.00  0.00    +0.000 A 
ATOM     10  C   UNL     1       3.180   3.485  17.736  0.00  0.00    +0.000 A 
ATOM     11  C   UNL     1       4.029   4.332  16.823  0.00  0.00    +0.000 C 
ATOM     12  CA  UNL     1       4.190   5.754  17.414  0.00  0.00    +0.000 C 
ENDROOT
BRANCH  12  13
ATOM     13  C   UNL     1       5.279   5.723  18.520  0.00  0.00    +0.000 C 
ATOM     14  O   UNL     1       5.079   5.433  19.692  0.00  0.00    +0.000 OA
BRANCH  13  15
ATOM     15  OXT UNL     1       6.541   5.912  18.060  0.00  0.00    +0.000 OA
ATOM     16  HXT UNL     1       7.065   6.521  18.636  0.00  0.00    +0.000 HD
ENDBRANCH  13  15
ENDBRANCH  12  13
BRANCH   1  17
ATOM     17  CA  UNL     1       1.490   8.395  18.616  0.00  0.00    +0.000 C 
BRANCH  17  19
ATOM     18  C   UNL     1       1.372   7.503  20.920  0.00  0.00    +0.000 C 
ATOM     19  N   UNL     1       1.683   8.628  20.060  0.00  0.00    +0.000 NA
ATOM     20  H   UNL     1       2.619   8.981  20.254  0.00  0.00    +0.000 HD
ENDBRANCH  17  19
BRANCH  17  21
ATOM     21  C   UNL     1       0.946   9.571  17.777  0.00  0.00    +0.000 C 
BRANCH  21  22
ATOM     22  C   UNL     1      -0.118  10.594  18.142  0.00  0.00    +0.000 A 
ATOM     23  C   UNL     1      -1.511  10.503  17.920  0.00  0.00    +0.000 A 
ATOM     24  C   UNL     1      -2.254   9.620  16.956  0.00  0.00    +0.000 C 
ATOM     25  C   UNL     1      -2.373  11.400  18.586  0.00  0.00    +0.000 A 
ATOM     26  C   UNL     1      -1.886  12.407  19.398  0.00  0.00    +0.000 A 
ATOM     27  C   UNL     1      -0.529  12.615  19.504  0.00  0.00    +0.000 A 
ATOM     28  C   UNL     1       0.365  11.738  18.872  0.00  0.00    +0.000 A 
ATOM     29  C   UNL     1       1.838  12.071  18.989  0.00  0.00    +0.000 C 
BRANCH  26  30
ATOM     30  O   UNL     1      -2.732  13.218  20.090  0.00  0.00    +0.000 OA
ATOM     31  H   UNL     1      -3.573  13.245  19.605  0.00  0.00    +0.000 HD
ENDBRANCH  26  30
ENDBRANCH  21  22
ENDBRANCH  17  21
ENDBRANCH   1  17
TORSDOF 7
ENDMDL
MODEL 3
REMARK VINA RESULT:      -6.9      2.646      8.294
REMARK  Name = 
REMARK  10 active torsions:
REMARK  status: ('A' for Active; 'I' for Inactive)
REMARK    1  A    between atoms: C_1  and  N_2
REMARK    2  A    between atoms: N_2  and  CA_3
REMARK    3  A    between atoms: CA_3  and  C_4
REMARK    4  A    between atoms: CA_3  and  C_14
REMARK    5  A    between atoms: C_4  and  C_5
REMARK    6  A    between atoms: C_6  and  C_7
REMARK    7  A    between atoms: C_9  and  O_10
REMARK    8  A    between atoms: C_12  and  C_13
REMARK    9  A    between atoms: CA_25  and  C_26
REMARK   10  A    between atoms: C_26  and  OXT_28
REMARK                            x       y       z     vdW  Elec       q    Type
REMARK                         _______ _______ _______ _____ _____    ______ ____
ROOT
ATOM      1  C   UNL     1       1.282  11.545  18.859  0.00  0.00    +0.000 C 
ATOM      2  O   UNL     1       1.923  12.192  18.022  0.00  0.00    +0.000 OA
ATOM      3  N   UNL     1       0.835  12.233  19.984  0.00  0.00    +0.000 N 
ATOM      4  C   UNL     1       0.293  11.545  21.152  0.00  0.00    +0.000 C 
ATOM      5  C   UNL     1      -0.590  12.425  21.981  0.00  0.00    +0.000 A 
ATOM      6  C   UNL     1      -1.807  11.946  22.485  0.00  0.00    +0.000 A 
ATOM      7  C   UNL     1      -2.617  12.783  23.243  0.00  0.00    +0.000 A 
ATOM      8  C   UNL     1      -2.208  14.088  23.510  0.00  0.00    +0.000 A 
ATOM      9  C   UNL     1      -0.989  14.565  23.020  0.00  0.00    +0.000 A 
ATOM     10  C   UNL     1      -0.185  13.736  22.243  0.00  0.00    +0.000 A 
ATOM     11  C   UNL     1       1.117  14.178  21.625  0.00  0.00    +0.000 C 
ATOM     12  CA  UNL     1       1.203  13.686  20.159  0.00  0.00    +0.000 C 
ENDROOT
BRANCH  12  13
ATOM     13  C   UNL     1       0.368  14.632  19.256  0.00  0.00    +0.000 C 
ATOM     14  O   UNL     1       0.678  15.781  18.969  0.00  0.00    +0.000 OA
BRANCH  13  15
ATOM     15  OXT UNL     1      -0.701  14.038  18.670  0.00  0.00    +0.000 OA
ATOM     16  HXT UNL     1      -0.610  13.054  18.633  0.00  0.00    +0.000 HD
ENDBRANCH  13  15
ENDBRANCH  12  13
BRANCH   1  17
ATOM     17  CA  UNL     1       0.808  10.063  18.603  0.00  0.00    +0.000 C 
BRANCH  17  19
ATOM     18  C   UNL     1      -1.623  10.237  18.179  0.00  0.00    +0.000 C 
ATOM     19  N   UNL     1      -0.295  10.065  17.622  0.00  0.00    +0.000 NA
ATOM     20  H   UNL     1      -0.125  10.742  16.879  0.00  0.00    +0.000 HD
ENDBRANCH  17  19
BRANCH  17  21
ATOM     21  C   UNL     1       1.974   9.083  18.351  0.00  0.00    +0.000 C 
BRANCH  21  22
ATOM     22  C   UNL     1       2.269   7.754  19.029  0.00  0.00    +0.000 A 
ATOM     23  C   UNL     1       1.734   7.269  20.244  0.00  0.00    +0.000 A 
ATOM     24  C   UNL     1       1.078   8.040  21.356  0.00  0.00    +0.000 C 
ATOM     25  C   UNL     1       1.887   5.904  20.565  0.00  0.00    +0.000 A 
ATOM     26  C   UNL     1       2.604   5.043  19.756  0.00  0.00    +0.000 A 
ATOM     27  C   UNL     1       3.269   5.525  18.651  0.00  0.00    +0.000 A 
ATOM     28  C   UNL     1       3.131   6.872  18.283  0.00  0.00    +0.000 A 
ATOM     29  C   UNL     1       3.941   7.336  17.090  0.00  0.00    +0.000 C 
BRANCH  26  30
ATOM     30  O   UNL     1       2.682   3.715  20.043  0.00  0.00    +0.000 OA
ATOM     31  H   UNL     1       3.172   3.289  19.321  0.00  0.00    +0.000 HD
ENDBRANCH  26  30
ENDBRANCH  21  22
ENDBRANCH  17  21
ENDBRANCH   1  17
TORSDOF 7
ENDMDL
MODEL 4
REMARK VINA RESULT:      -6.8      3.098      5.770
REMARK  Name = 
REMARK  10 active torsions:
REMARK  status: ('A' for Active; 'I' for Inactive)
REMARK    1  A    between atoms: C_1  and  N_2
REMARK    2  A    between atoms: N_2  and  CA_3
REMARK    3  A    between atoms: CA_3  and  C_4
REMARK    4  A    between atoms: CA_3  and  C_14
REMARK    5  A    between atoms: C_4  and  C_5
REMARK    6  A    between atoms: C_6  and  C_7
REMARK    7  A    between atoms: C_9  and  O_10
REMARK    8  A    between atoms: C_12  and  C_13
REMARK    9  A    between atoms: CA_25  and  C_26
REMARK   10  A    between atoms: C_26  and  OXT_28
REMARK                            x       y       z     vdW  Elec       q    Type
REMARK                         _______ _______ _______ _____ _____    ______ ____
ROOT
ATOM      1  C   UNL     1       4.611   4.809  18.366  0.00  0.00    +0.000 C 
ATOM      2  O   UNL     1       5.177   5.068  19.435  0.00  0.00    +0.000 OA
ATOM      3  N   UNL     1       5.320   5.064  17.196  0.00  0.00    +0.000 N 
ATOM      4  C   UNL     1       4.687   5.040  15.881  0.00  0.00    +0.000 C 
ATOM      5  C   UNL     1       5.666   4.808  14.773  0.00  0.00    +0.000 A 
ATOM      6  C   UNL     1       5.371   3.917  13.732  0.00  0.00    +0.000 A 
ATOM      7  C   UNL     1       6.299   3.707  12.719  0.00  0.00    +0.000 A 
ATOM      8  C   UNL     1       7.512   4.394  12.736  0.00  0.00    +0.000 A 
ATOM      9  C   UNL     1       7.804   5.293  13.766  0.00  0.00    +0.000 A 
ATOM     10  C   UNL     1       6.886   5.490  14.793  0.00  0.00    +0.000 A 
ATOM     11  C   UNL     1       7.135   6.394  15.973  0.00  0.00    +0.000 C 
ATOM     12  CA  UNL     1       6.689   5.696  17.281  0.00  0.00    +0.000 C 
ENDROOT
BRANCH  12  13
ATOM     13  C   UNL     1       7.789   4.693  17.722  0.00  0.00    +0.000 C 
ATOM     14  O   UNL     1       8.379   3.927  16.972  0.00  0.00    +0.000 OA
BRANCH  13  15
ATOM     15  OXT UNL     1       8.166   4.820  19.018  0.00  0.00    +0.000 OA
ATOM     16  HXT UNL     1       7.669   5.534  19.487  0.00  0.00    +0.000 HD
ENDBRANCH  13  15
ENDBRANCH  12  13
BRANCH   1  17
ATOM     17  CA  UNL     1       3.234   4.042  18.301  0.00  0.00    +0.000 C 
BRANCH  17  19
ATOM     18  C   UNL     1       3.463   1.582  18.426  0.00  0.00    +0.000 C 
ATOM     19  N   UNL     1       3.307   2.833  19.144  0.00  0.00    +0.000 NA
ATOM     20  H   UNL     1       4.024   2.928  19.862  0.00  0.00    +0.000 HD
ENDBRANCH  17  19
BRANCH  17  21
ATOM     21  C   UNL     1       2.011   4.964  18.494  0.00  0.00    +0.000 C 
BRANCH  21  22
ATOM     22  C   UNL     1       1.930   6.311  19.195  0.00  0.00    +0.000 A 
ATOM     23  C   UNL     1       2.059   7.593  18.614  0.00  0.00    +0.000 A 
ATOM     24  C   UNL     1       2.681   7.970  17.298  0.00  0.00    +0.000 C 
ATOM     25  C   UNL     1       1.660   8.725  19.355  0.00  0.00    +0.000 A 
ATOM     26  C   UNL     1       1.209   8.620  20.657  0.00  0.00    +0.000 A 
ATOM     27  C   UNL     1       1.226   7.402  21.298  0.00  0.00    +0.000 A 
ATOM     28  C   UNL     1       1.598   6.246  20.596  0.00  0.00    +0.000 A 
ATOM     29  C   UNL     1       1.646   4.956  21.389  0.00  0.00    +0.000 C 
BRANCH  26  30
ATOM     30  O   UNL     1       0.761   9.713  21.333  0.00  0.00    +0.000 OA
ATOM     31  H   UNL     1       0.890  10.485  20.758  0.00  0.00    +0.000 HD
ENDBRANCH  26  30
ENDBRANCH  21  22
ENDBRANCH  17  21
ENDBRANCH   1  17
TORSDOF 7
ENDMDL
MODEL 5
REMARK VINA RESULT:      -6.8      2.618      8.222
REMARK  Name = 
REMARK  10 active torsions:
REMARK  status: ('A' for Active; 'I' for Inactive)
REMARK    1  A    between atoms: C_1  and  N_2
REMARK    2  A    between atoms: N_2  and  CA_3
REMARK    3  A    between atoms: CA_3  and  C_4
REMARK    4  A    between atoms: CA_3  and  C_14
REMARK    5  A    between atoms: C_4  and  C_5
REMARK    6  A    between atoms: C_6  and  C_7
REMARK    7  A    between atoms: C_9  and  O_10
REMARK    8  A    between atoms: C_12  and  C_13
REMARK    9  A    between atoms: CA_25  and  C_26
REMARK   10  A    between atoms: C_26  and  OXT_28
REMARK                            x       y       z     vdW  Elec       q    Type
REMARK                         _______ _______ _______ _____ _____    ______ ____
ROOT
ATOM      1  C   UNL     1       1.647   7.286  20.114  0.00  0.00    +0.000 C 
ATOM      2  O   UNL     1       1.248   6.685  21.119  0.00  0.00    +0.000 OA
ATOM      3  N   UNL     1       1.199   8.592  19.936  0.00  0.00    +0.000 N 
ATOM      4  C   UNL     1       1.389   9.317  18.683  0.00  0.00    +0.000 C 
ATOM      5  C   UNL     1       1.334  10.801  18.862  0.00  0.00    +0.000 A 
ATOM      6  C   UNL     1       2.265  11.633  18.225  0.00  0.00    +0.000 A 
ATOM      7  C   UNL     1       2.204  13.009  18.414  0.00  0.00    +0.000 A 
ATOM      8  C   UNL     1       1.209  13.555  19.223  0.00  0.00    +0.000 A 
ATOM      9  C   UNL     1       0.271  12.729  19.849  0.00  0.00    +0.000 A 
ATOM     10  C   UNL     1       0.342  11.349  19.680  0.00  0.00    +0.000 A 
ATOM     11  C   UNL     1      -0.588  10.376  20.358  0.00  0.00    +0.000 C 
ATOM     12  CA  UNL     1       0.214   9.177  20.919  0.00  0.00    +0.000 C 
ENDROOT
BRANCH  12  13
ATOM     13  C   UNL     1       0.876   9.593  22.260  0.00  0.00    +0.000 C 
ATOM     14  O   UNL     1       0.277  10.048  23.226  0.00  0.00    +0.000 OA
BRANCH  13  15
ATOM     15  OXT UNL     1       2.193   9.280  22.348  0.00  0.00    +0.000 OA
ATOM     16  HXT UNL     1       2.610   9.635  23.170  0.00  0.00    +0.000 HD
ENDBRANCH  13  15
ENDBRANCH  12  13
BRANCH   1  17
ATOM     17  CA  UNL     1       2.764   6.701  19.165  0.00  0.00    +0.000 C 
BRANCH  17  19
ATOM     18  C   UNL     1       5.149   6.045  19.208  0.00  0.00    +0.000 C 
ATOM     19  N   UNL     1       3.952   6.350  19.968  0.00  0.00    +0.000 NA
ATOM     20  H   UNL     1       4.143   7.061  20.672  0.00  0.00    +0.000 HD
ENDBRANCH  17  19
BRANCH  17  21
ATOM     21  C   UNL     1       2.235   5.635  18.183  0.00  0.00    +0.000 C 
BRANCH  21  22
ATOM     22  C   UNL     1       2.669   4.187  18.018  0.00  0.00    +0.000 A 
ATOM     23  C   UNL     1       3.702   3.686  17.193  0.00  0.00    +0.000 A 
ATOM     24  C   UNL     1       4.358   4.339  16.008  0.00  0.00    +0.000 C 
ATOM     25  C   UNL     1       4.159   2.366  17.391  0.00  0.00    +0.000 A 
ATOM     26  C   UNL     1       3.579   1.529  18.324  0.00  0.00    +0.000 A 
ATOM     27  C   UNL     1       2.468   1.940  19.027  0.00  0.00    +0.000 A 
ATOM     28  C   UNL     1       1.989   3.250  18.876  0.00  0.00    +0.000 A 
ATOM     29  C   UNL     1       0.730   3.604  19.639  0.00  0.00    +0.000 C 
BRANCH  26  30
ATOM     30  O   UNL     1       4.077   0.283  18.553  0.00  0.00    +0.000 OA
ATOM     31  H   UNL     1       3.400  -0.218  19.037  0.00  0.00    +0.000 HD
ENDBRANCH  26  30
ENDBRANCH  21  22
ENDBRANCH  17  21
ENDBRANCH   1  17
TORSDOF 7
ENDMDL
MODEL 6
REMARK VINA RESULT:      -6.8      1.024      1.936
REMARK  Name = 
REMARK  10 active torsions:
REMARK  status: ('A' for Active; 'I' for Inactive)
REMARK    1  A    between atoms: C_1  and  N_2
REMARK    2  A    between atoms: N_2  and  CA_3
REMARK    3  A    between atoms: CA_3  and  C_4
REMARK    4  A    between atoms: CA_3  and  C_14
REMARK    5  A    between atoms: C_4  and  C_5
REMARK    6  A    between atoms: C_6  and  C_7
REMARK    7  A    between atoms: C_9  and  O_10
REMARK    8  A    between atoms: C_12  and  C_13
REMARK    9  A    between atoms: CA_25  and  C_26
REMARK   10  A    between atoms: C_26  and  OXT_28
REMARK                            x       y       z     vdW  Elec       q    Type
REMARK                         _______ _______ _______ _____ _____    ______ ____
ROOT
ATOM      1  C   UNL     1       2.777   7.724  18.156  0.00  0.00    +0.000 C 
ATOM      2  O   UNL     1       3.719   8.432  17.781  0.00  0.00    +0.000 OA
ATOM      3  N   UNL     1       2.897   6.352  17.955  0.00  0.00    +0.000 N 
ATOM      4  C   UNL     1       1.769   5.439  18.118  0.00  0.00    +0.000 C 
ATOM      5  C   UNL     1       2.200   4.031  18.382  0.00  0.00    +0.000 A 
ATOM      6  C   UNL     1       1.566   3.261  19.367  0.00  0.00    +0.000 A 
ATOM      7  C   UNL     1       1.990   1.958  19.604  0.00  0.00    +0.000 A 
ATOM      8  C   UNL     1       3.032   1.420  18.850  0.00  0.00    +0.000 A 
ATOM      9  C   UNL     1       3.657   2.181  17.858  0.00  0.00    +0.000 A 
ATOM     10  C   UNL     1       3.250   3.492  17.632  0.00  0.00    +0.000 A 
ATOM     11  C   UNL     1       3.900   4.406  16.626  0.00  0.00    +0.000 C 
ATOM     12  CA  UNL     1       4.113   5.811  17.242  0.00  0.00    +0.000 C 
ENDROOT
BRANCH  12  13
ATOM     13  C   UNL     1       5.376   5.783  18.143  0.00  0.00    +0.000 C 
ATOM     14  O   UNL     1       5.382   5.489  19.331  0.00  0.00    +0.000 OA
BRANCH  13  15
ATOM     15  OXT UNL     1       6.539   5.978  17.473  0.00  0.00    +0.000 OA
ATOM     16  HXT UNL     1       6.573   6.860  17.028  0.00  0.00    +0.000 HD
ENDBRANCH  13  15
ENDBRANCH  12  13
BRANCH   1  17
ATOM     17  CA  UNL     1       1.573   8.293  19.002  0.00  0.00    +0.000 C 
BRANCH  17  19
ATOM     18  C   UNL     1       0.851   7.607  21.266  0.00  0.00    +0.000 C 
ATOM     19  N   UNL     1       1.892   8.186  20.439  0.00  0.00    +0.000 NA
ATOM     20  H   UNL     1       2.778   7.704  20.584  0.00  0.00    +0.000 HD
ENDBRANCH  17  19
BRANCH  17  21
ATOM     21  C   UNL     1       1.059   9.656  18.493  0.00  0.00    +0.000 C 
BRANCH  21  22
ATOM     22  C   UNL     1      -0.075  10.514  19.033  0.00  0.00    +0.000 A 
ATOM     23  C   UNL     1      -0.065  11.320  20.194  0.00  0.00    +0.000 A 
ATOM     24  C   UNL     1       0.859  11.252  21.378  0.00  0.00    +0.000 C 
ATOM     25  C   UNL     1      -1.091  12.272  20.377  0.00  0.00    +0.000 A 
ATOM     26  C   UNL     1      -2.140  12.390  19.485  0.00  0.00    +0.000 A 
ATOM     27  C   UNL     1      -2.256  11.510  18.433  0.00  0.00    +0.000 A 
ATOM     28  C   UNL     1      -1.251  10.558  18.203  0.00  0.00    +0.000 A 
ATOM     29  C   UNL     1      -1.483   9.590  17.062  0.00  0.00    +0.000 C 
BRANCH  26  30
ATOM     30  O   UNL     1      -3.082  13.360  19.638  0.00  0.00    +0.000 OA
ATOM     31  H   UNL     1      -3.937  12.980  19.377  0.00  0.00    +0.000 HD
ENDBRANCH  26  30
ENDBRANCH  21  22
ENDBRANCH  17  21
ENDBRANCH   1  17
TORSDOF 7
ENDMDL
MODEL 7
REMARK VINA RESULT:      -6.8      2.338      3.807
REMARK  Name = 
REMARK  10 active torsions:
REMARK  status: ('A' for Active; 'I' for Inactive)
REMARK    1  A    between atoms: C_1  and  N_2
REMARK    2  A    between atoms: N_2  and  CA_3
REMARK    3  A    between atoms: CA_3  and  C_4
REMARK    4  A    between atoms: CA_3  and  C_14
REMARK    5  A    between atoms: C_4  and  C_5
REMARK    6  A    between atoms: C_6  and  C_7
REMARK    7  A    between atoms: C_9  and  O_10
REMARK    8  A    between atoms: C_12  and  C_13
REMARK    9  A    between atoms: CA_25  and  C_26
REMARK   10  A    between atoms: C_26  and  OXT_28
REMARK                            x       y       z     vdW  Elec       q    Type
REMARK                         _______ _______ _______ _____ _____    ______ ____
ROOT
ATOM      1  C   UNL     1       2.167   6.087  19.771  0.00  0.00    +0.000 C 
ATOM      2  O   UNL     1       1.449   5.335  20.441  0.00  0.00    +0.000 OA
ATOM      3  N   UNL     1       3.151   5.491  18.987  0.00  0.00    +0.000 N 
ATOM      4  C   UNL     1       4.214   6.264  18.352  0.00  0.00    +0.000 C 
ATOM      5  C   UNL     1       4.814   5.561  17.174  0.00  0.00    +0.000 A 
ATOM      6  C   UNL     1       5.083   6.256  15.987  0.00  0.00    +0.000 A 
ATOM      7  C   UNL     1       5.630   5.581  14.902  0.00  0.00    +0.000 A 
ATOM      8  C   UNL     1       5.920   4.222  15.005  0.00  0.00    +0.000 A 
ATOM      9  C   UNL     1       5.665   3.529  16.191  0.00  0.00    +0.000 A 
ATOM     10  C   UNL     1       5.098   4.196  17.273  0.00  0.00    +0.000 A 
ATOM     11  C   UNL     1       4.735   3.523  18.572  0.00  0.00    +0.000 C 
ATOM     12  CA  UNL     1       3.338   3.994  19.043  0.00  0.00    +0.000 C 
ENDROOT
BRANCH  12  13
ATOM     13  C   UNL     1       2.248   3.222  18.252  0.00  0.00    +0.000 C 
ATOM     14  O   UNL     1       1.526   3.712  17.394  0.00  0.00    +0.000 OA
BRANCH  13  15
ATOM     15  OXT UNL     1       2.241   1.885  18.481  0.00  0.00    +0.000 OA
ATOM     16  HXT UNL     1       1.773   1.649  19.319  0.00  0.00    +0.000 HD
ENDBRANCH  13  15
ENDBRANCH  12  13
BRANCH   1  17
ATOM     17  CA  UNL     1       1.881   7.633  19.635  0.00  0.00    +0.000 C 
BRANCH  17  19
ATOM     18  C   UNL     1       2.500   9.362  17.978  0.00  0.00    +0.000 C 
ATOM     19  N   UNL     1       1.988   8.026  18.216  0.00  0.00    +0.000 NA
ATOM     20  H   UNL     1       2.516   7.337  17.683  0.00  0.00    +0.000 HD
ENDBRANCH  17  19
BRANCH  17  21
ATOM     21  C   UNL     1       0.623   8.091  20.402  0.00  0.00    +0.000 C 
BRANCH  21  22
ATOM     22  C   UNL     1       0.089   9.500  20.609  0.00  0.00    +0.000 A 
ATOM     23  C   UNL     1      -0.652  10.283  19.695  0.00  0.00    +0.000 A 
ATOM     24  C   UNL     1      -0.768  10.129  18.204  0.00  0.00    +0.000 C 
ATOM     25  C   UNL     1      -1.316  11.438  20.160  0.00  0.00    +0.000 A 
ATOM     26  C   UNL     1      -1.207  11.859  21.472  0.00  0.00    +0.000 A 
ATOM     27  C   UNL     1      -0.365  11.203  22.342  0.00  0.00    +0.000 A 
ATOM     28  C   UNL     1       0.303  10.041  21.927  0.00  0.00    +0.000 A 
ATOM     29  C   UNL     1       1.255   9.414  22.924  0.00  0.00    +0.000 C 
BRANCH  26  30
ATOM     30  O   UNL     1      -1.911  12.933  21.923  0.00  0.00    +0.000 OA
ATOM     31  H   UNL     1      -2.538  12.612  22.592  0.00  0.00    +0.000 HD
ENDBRANCH  26  30
ENDBRANCH  21  22
ENDBRANCH  17  21
ENDBRANCH   1  17
TORSDOF 7
ENDMDL
MODEL 8
REMARK VINA RESULT:      -6.8      2.046      8.068
REMARK  Name = 
REMARK  10 active torsions:
REMARK  status: ('A' for Active; 'I' for Inactive)
REMARK    1  A    between atoms: C_1  and  N_2
REMARK    2  A    between atoms: N_2  and  CA_3
REMARK    3  A    between atoms: CA_3  and  C_4
REMARK    4  A    between atoms: CA_3  and  C_14
REMARK    5  A    between atoms: C_4  and  C_5
REMARK    6  A    between atoms: C_6  and  C_7
REMARK    7  A    between atoms: C_9  and  O_10
REMARK    8  A    between atoms: C_12  and  C_13
REMARK    9  A    between atoms: CA_25  and  C_26
REMARK   10  A    between atoms: C_26  and  OXT_28
REMARK                            x       y       z     vdW  Elec       q    Type
REMARK                         _______ _______ _______ _____ _____    ______ ____
ROOT
ATOM      1  C   UNL     1       1.692   9.161  18.513  0.00  0.00    +0.000 C 
ATOM      2  O   UNL     1       1.661   9.377  17.295  0.00  0.00    +0.000 OA
ATOM      3  N   UNL     1       1.063  10.090  19.337  0.00  0.00    +0.000 N 
ATOM      4  C   UNL     1       1.238  10.088  20.787  0.00  0.00    +0.000 C 
ATOM      5  C   UNL     1       0.117  10.773  21.504  0.00  0.00    +0.000 A 
ATOM      6  C   UNL     1      -0.443  10.210  22.659  0.00  0.00    +0.000 A 
ATOM      7  C   UNL     1      -1.492  10.856  23.303  0.00  0.00    +0.000 A 
ATOM      8  C   UNL     1      -1.971  12.067  22.805  0.00  0.00    +0.000 A 
ATOM      9  C   UNL     1      -1.406  12.637  21.660  0.00  0.00    +0.000 A 
ATOM     10  C   UNL     1      -0.370  11.983  21.001  0.00  0.00    +0.000 A 
ATOM     11  C   UNL     1       0.263  12.490  19.731  0.00  0.00    +0.000 C 
ATOM     12  CA  UNL     1       0.448  11.325  18.727  0.00  0.00    +0.000 C 
ENDROOT
BRANCH  12  13
ATOM     13  C   UNL     1      -0.908  11.040  18.026  0.00  0.00    +0.000 C 
ATOM     14  O   UNL     1      -1.604  10.053  18.225  0.00  0.00    +0.000 OA
BRANCH  13  15
ATOM     15  OXT UNL     1      -1.356  12.059  17.251  0.00  0.00    +0.000 OA
ATOM     16  HXT UNL     1      -1.918  12.696  17.756  0.00  0.00    +0.000 HD
ENDBRANCH  13  15
ENDBRANCH  12  13
BRANCH   1  17
ATOM     17  CA  UNL     1       2.234   7.809  19.120  0.00  0.00    +0.000 C 
BRANCH  17  19
ATOM     18  C   UNL     1       1.729   6.266  20.987  0.00  0.00    +0.000 C 
ATOM     19  N   UNL     1       1.230   7.252  20.047  0.00  0.00    +0.000 NA
ATOM     20  H   UNL     1       0.729   7.994  20.535  0.00  0.00    +0.000 HD
ENDBRANCH  17  19
BRANCH  17  21
ATOM     21  C   UNL     1       2.821   6.855  18.059  0.00  0.00    +0.000 C 
BRANCH  21  22
ATOM     22  C   UNL     1       3.583   5.554  18.259  0.00  0.00    +0.000 A 
ATOM     23  C   UNL     1       4.962   5.397  18.528  0.00  0.00    +0.000 A 
ATOM     24  C   UNL     1       6.081   6.375  18.302  0.00  0.00    +0.000 C 
ATOM     25  C   UNL     1       5.436   4.146  18.978  0.00  0.00    +0.000 A 
ATOM     26  C   UNL     1       4.599   3.054  19.100  0.00  0.00    +0.000 A 
ATOM     27  C   UNL     1       3.286   3.139  18.692  0.00  0.00    +0.000 A 
ATOM     28  C   UNL     1       2.768   4.367  18.254  0.00  0.00    +0.000 A 
ATOM     29  C   UNL     1       1.333   4.362  17.769  0.00  0.00    +0.000 C 
BRANCH  26  30
ATOM     30  O   UNL     1       5.056   1.875  19.603  0.00  0.00    +0.000 OA
ATOM     31  H   UNL     1       4.877   1.186  18.941  0.00  0.00    +0.000 HD
ENDBRANCH  26  30
ENDBRANCH  21  22
ENDBRANCH  17  21
ENDBRANCH   1  17
TORSDOF 7
ENDMDL
MODEL 9
REMARK VINA RESULT:      -6.7      2.454      3.953
REMARK  Name = 
REMARK  10 active torsions:
REMARK  status: ('A' for Active; 'I' for Inactive)
REMARK    1  A    between atoms: C_1  and  N_2
REMARK    2  A    between atoms: N_2  and  CA_3
REMARK    3  A    between atoms: CA_3  and  C_4
REMARK    4  A    between atoms: CA_3  and  C_14
REMARK    5  A    between atoms: C_4  and  C_5
REMARK    6  A    between atoms: C_6  and  C_7
REMARK    7  A    between atoms: C_9  and  O_10
REMARK    8  A    between atoms: C_12  and  C_13
REMARK    9  A    between atoms: CA_25  and  C_26
REMARK   10  A    between atoms: C_26  and  OXT_28
REMARK                            x       y       z     vdW  Elec       q    Type
REMARK                         _______ _______ _______ _____ _____    ______ ____
ROOT
ATOM      1  C   UNL     1       1.916   6.916  20.121  0.00  0.00    +0.000 C 
ATOM      2  O   UNL     1       1.094   6.297  20.807  0.00  0.00    +0.000 OA
ATOM      3  N   UNL     1       2.809   6.161  19.365  0.00  0.00    +0.000 N 
ATOM      4  C   UNL     1       3.975   6.753  18.716  0.00  0.00    +0.000 C 
ATOM      5  C   UNL     1       4.473   5.933  17.568  0.00  0.00    +0.000 A 
ATOM      6  C   UNL     1       4.845   6.543  16.362  0.00  0.00    +0.000 A 
ATOM      7  C   UNL     1       5.295   5.762  15.303  0.00  0.00    +0.000 A 
ATOM      8  C   UNL     1       5.387   4.379  15.452  0.00  0.00    +0.000 A 
ATOM      9  C   UNL     1       5.029   3.769  16.658  0.00  0.00    +0.000 A 
ATOM     10  C   UNL     1       4.559   4.545  17.713  0.00  0.00    +0.000 A 
ATOM     11  C   UNL     1       4.097   3.974  19.028  0.00  0.00    +0.000 C 
ATOM     12  CA  UNL     1       2.779   4.655  19.471  0.00  0.00    +0.000 C 
ENDROOT
BRANCH  12  13
ATOM     13  C   UNL     1       1.594   4.021  18.694  0.00  0.00    +0.000 C 
ATOM     14  O   UNL     1       1.458   4.051  17.478  0.00  0.00    +0.000 OA
BRANCH  13  15
ATOM     15  OXT UNL     1       0.758   3.283  19.465  0.00  0.00    +0.000 OA
ATOM     16  HXT UNL     1      -0.141   3.190  19.064  0.00  0.00    +0.000 HD
ENDBRANCH  13  15
ENDBRANCH  12  13
BRANCH   1  17
ATOM     17  CA  UNL     1       1.855   8.482  19.933  0.00  0.00    +0.000 C 
BRANCH  17  19
ATOM     18  C   UNL     1       1.801   9.313  17.604  0.00  0.00    +0.000 C 
ATOM     19  N   UNL     1       1.053   8.799  18.735  0.00  0.00    +0.000 NA
ATOM     20  H   UNL     1       0.478   8.005  18.457  0.00  0.00    +0.000 HD
ENDBRANCH  17  19
BRANCH  17  21
ATOM     21  C   UNL     1       1.513   9.240  21.233  0.00  0.00    +0.000 C 
BRANCH  21  22
ATOM     22  C   UNL     1       0.660  10.486  21.417  0.00  0.00    +0.000 A 
ATOM     23  C   UNL     1       0.668  11.659  20.629  0.00  0.00    +0.000 A 
ATOM     24  C   UNL     1       1.735  12.155  19.692  0.00  0.00    +0.000 C 
ATOM     25  C   UNL     1      -0.389  12.583  20.763  0.00  0.00    +0.000 A 
ATOM     26  C   UNL     1      -1.398  12.404  21.690  0.00  0.00    +0.000 A 
ATOM     27  C   UNL     1      -1.343  11.352  22.578  0.00  0.00    +0.000 A 
ATOM     28  C   UNL     1      -0.318  10.400  22.471  0.00  0.00    +0.000 A 
ATOM     29  C   UNL     1      -0.296   9.309  23.521  0.00  0.00    +0.000 C 
BRANCH  26  30
ATOM     30  O   UNL     1      -2.449  13.266  21.757  0.00  0.00    +0.000 OA
ATOM     31  H   UNL     1      -2.540  13.683  20.884  0.00  0.00    +0.000 HD
ENDBRANCH  26  30
ENDBRANCH  21  22
ENDBRANCH  17  21
ENDBRANCH   1  17
TORSDOF 7
ENDMDL
