MODEL 1
REMARK VINA RESULT:      -6.6      0.000      0.000
REMARK  Name = 
REMARK  4 active torsions:
REMARK  status: ('A' for Active; 'I' for Inactive)
REMARK    1  A    between atoms: N_3  and  C_4
REMARK    2  A    between atoms: C_4  and  C_5
REMARK    3  A    between atoms: C_5  and  C_6
REMARK    4  A    between atoms: C_11  and  C_12
REMARK                            x       y       z     vdW  Elec       q    Type
REMARK                         _______ _______ _______ _____ _____    ______ ____
ROOT
ATOM      1  C   UNL     1       5.061   4.441  17.222  0.00  0.00    +0.000 A 
ATOM      2  C   UNL     1       3.659   4.298  17.218  0.00  0.00    +0.000 A 
ATOM      3  C   UNL     1       2.892   4.640  18.331  0.00  0.00    +0.000 A 
ATOM      4  C   UNL     1       3.508   5.123  19.476  0.00  0.00    +0.000 A 
ATOM      5  C   UNL     1       4.893   5.295  19.491  0.00  0.00    +0.000 A 
ATOM      6  C   UNL     1       5.688   4.983  18.367  0.00  0.00    +0.000 A 
ENDROOT
BRANCH   6   7
ATOM      7  C   UNL     1       7.171   5.282  18.489  0.00  0.00    +0.000 C 
ATOM      8  F   UNL     1       7.625   5.490  19.753  0.00  0.00    +0.000 F 
ATOM      9  F   UNL     1       7.931   4.259  18.002  0.00  0.00    +0.000 F 
ATOM     10  F   UNL     1       7.538   6.382  17.777  0.00  0.00    +0.000 F 
ENDBRANCH   6   7
BRANCH   1  11
ATOM     11  C   UNL     1       5.811   3.996  15.985  0.00  0.00    +0.000 C 
BRANCH  11  12
ATOM     12  C   UNL     1       6.092   5.139  15.008  0.00  0.00    +0.000 C 
BRANCH  12  15
ATOM     13  N   UNL     1       8.314   5.827  12.675  0.00  0.00    +0.000 NA
ATOM     14  N   UNL     1       7.947   5.572  13.724  0.00  0.00    +0.000 NA
ATOM     15  N   UNL     1       7.546   5.290  14.868  0.00  0.00    +0.000 NA
ENDBRANCH  12  15
ENDBRANCH  11  12
ENDBRANCH   1  11
TORSDOF 4
ENDMDL
MODEL 2
REMARK VINA RESULT:      -6.6      1.798      2.389
REMARK  Name = 
REMARK  4 active torsions:
REMARK  status: ('A' for Active; 'I' for Inactive)
REMARK    1  A    between atoms: N_3  and  C_4
REMARK    2  A    between atoms: C_4  and  C_5
REMARK    3  A    between atoms: C_5  and  C_6
REMARK    4  A    between atoms: C_11  and  C_12
REMARK                            x       y       z     vdW  Elec       q    Type
REMARK                         _______ _______ _______ _____ _____    ______ ____
ROOT
ATOM      1  C   UNL     1       4.547   4.159  17.115  0.00  0.00    +0.000 A 
ATOM      2  C   UNL     1       3.831   2.951  17.242  0.00  0.00    +0.000 A 
ATOM      3  C   UNL     1       2.498   2.937  17.649  0.00  0.00    +0.000 A 
ATOM      4  C   UNL     1       1.853   4.127  17.950  0.00  0.00    +0.000 A 
ATOM      5  C   UNL     1       2.536   5.335  17.808  0.00  0.00    +0.000 A 
ATOM      6  C   UNL     1       3.878   5.378  17.370  0.00  0.00    +0.000 A 
ENDROOT
BRANCH   6   7
ATOM      7  C   UNL     1       4.482   6.758  17.190  0.00  0.00    +0.000 C 
ATOM      8  F   UNL     1       3.755   7.788  17.699  0.00  0.00    +0.000 F 
ATOM      9  F   UNL     1       5.703   6.853  17.792  0.00  0.00    +0.000 F 
ATOM     10  F   UNL     1       4.695   7.065  15.881  0.00  0.00    +0.000 F 
ENDBRANCH   6   7
BRANCH   1  11
ATOM     11  C   UNL     1       6.004   4.069  16.715  0.00  0.00    +0.000 C 
BRANCH  11  12
ATOM     12  C   UNL     1       6.237   4.343  15.228  0.00  0.00    +0.000 C 
BRANCH  12  15
ATOM     13  N   UNL     1       8.145   5.645  12.880  0.00  0.00    +0.000 NA
ATOM     14  N   UNL     1       7.755   5.489  13.940  0.00  0.00    +0.000 NA
ATOM     15  N   UNL     1       7.331   5.314  15.096  0.00  0.00    +0.000 NA
ENDBRANCH  12  15
ENDBRANCH  11  12
ENDBRANCH   1  11
TORSDOF 4
ENDMDL
MODEL 3
REMARK VINA RESULT:      -6.6      1.921      2.639
REMARK  Name = 
REMARK  4 active torsions:
REMARK  status: ('A' for Active; 'I' for Inactive)
REMARK    1  A    between atoms: N_3  and  C_4
REMARK    2  A    between atoms: C_4  and  C_5
REMARK    3  A    between atoms: C_5  and  C_6
REMARK    4  A    between atoms: C_11  and  C_12
REMARK                            x       y       z     vdW  Elec       q    Type
REMARK                         _______ _______ _______ _____ _____    ______ ____
ROOT
ATOM      1  C   UNL     1       4.304   4.330  16.855  0.00  0.00    +0.000 A 
ATOM      2  C   UNL     1       3.699   3.128  17.275  0.00  0.00    +0.000 A 
ATOM      3  C   UNL     1       2.696   3.121  18.243  0.00  0.00    +0.000 A 
ATOM      4  C   UNL     1       2.281   4.313  18.820  0.00  0.00    +0.000 A 
ATOM      5  C   UNL     1       2.850   5.515  18.400  0.00  0.00    +0.000 A 
ATOM      6  C   UNL     1       3.848   5.551  17.401  0.00  0.00    +0.000 A 
ENDROOT
BRANCH   6   7
ATOM      7  C   UNL     1       4.333   6.927  16.985  0.00  0.00    +0.000 C 
ATOM      8  F   UNL     1       4.565   7.090  15.656  0.00  0.00    +0.000 F 
ATOM      9  F   UNL     1       3.428   7.896  17.308  0.00  0.00    +0.000 F 
ATOM     10  F   UNL     1       5.488   7.281  17.611  0.00  0.00    +0.000 F 
ENDBRANCH   6   7
BRANCH   1  11
ATOM     11  C   UNL     1       5.419   4.231  15.836  0.00  0.00    +0.000 C 
BRANCH  11  12
ATOM     12  C   UNL     1       6.811   4.374  16.453  0.00  0.00    +0.000 C 
BRANCH  12  15
ATOM     13  N   UNL     1       7.937   5.506  13.572  0.00  0.00    +0.000 NA
ATOM     14  N   UNL     1       7.701   5.543  14.687  0.00  0.00    +0.000 NA
ATOM     15  N   UNL     1       7.446   5.579  15.904  0.00  0.00    +0.000 NA
ENDBRANCH  12  15
ENDBRANCH  11  12
ENDBRANCH   1  11
TORSDOF 4
ENDMDL
MODEL 4
REMARK VINA RESULT:      -6.5      3.668      4.664
REMARK  Name = 
REMARK  4 active torsions:
REMARK  status: ('A' for Active; 'I' for Inactive)
REMARK    1  A    between atoms: N_3  and  C_4
REMARK    2  A    between atoms: C_4  and  C_5
REMARK    3  A    between atoms: C_5  and  C_6
REMARK    4  A    between atoms: C_11  and  C_12
REMARK                            x       y       z     vdW  Elec       q    Type
REMARK                         _______ _______ _______ _____ _____    ______ ____
ROOT
ATOM      1  C   UNL     1       3.207   4.742  18.383  0.00  0.00    +0.000 A 
ATOM      2  C   UNL     1       3.103   6.053  18.890  0.00  0.00    +0.000 A 
ATOM      3  C   UNL     1       2.272   6.350  19.969  0.00  0.00    +0.000 A 
ATOM      4  C   UNL     1       1.519   5.346  20.560  0.00  0.00    +0.000 A 
ATOM      5  C   UNL     1       1.625   4.038  20.089  0.00  0.00    +0.000 A 
ATOM      6  C   UNL     1       2.481   3.707  19.015  0.00  0.00    +0.000 A 
ENDROOT
BRANCH   6   7
ATOM      7  C   UNL     1       2.559   2.237  18.646  0.00  0.00    +0.000 C 
ATOM      8  F   UNL     1       2.310   1.946  17.342  0.00  0.00    +0.000 F 
ATOM      9  F   UNL     1       3.798   1.723  18.894  0.00  0.00    +0.000 F 
ATOM     10  F   UNL     1       1.694   1.474  19.369  0.00  0.00    +0.000 F 
ENDBRANCH   6   7
BRANCH   1  11
ATOM     11  C   UNL     1       4.096   4.528  17.177  0.00  0.00    +0.000 C 
BRANCH  11  12
ATOM     12  C   UNL     1       5.554   4.916  17.430  0.00  0.00    +0.000 C 
BRANCH  12  15
ATOM     13  N   UNL     1       7.512   5.454  20.024  0.00  0.00    +0.000 NA
ATOM     14  N   UNL     1       6.799   4.862  19.360  0.00  0.00    +0.000 NA
ATOM     15  N   UNL     1       6.024   4.215  18.632  0.00  0.00    +0.000 NA
ENDBRANCH  12  15
ENDBRANCH  11  12
ENDBRANCH   1  11
TORSDOF 4
ENDMDL
MODEL 5
REMARK VINA RESULT:      -6.5      3.479      4.555
REMARK  Name = 
REMARK  4 active torsions:
REMARK  status: ('A' for Active; 'I' for Inactive)
REMARK    1  A    between atoms: N_3  and  C_4
REMARK    2  A    between atoms: C_4  and  C_5
REMARK    3  A    between atoms: C_5  and  C_6
REMARK    4  A    between atoms: C_11  and  C_12
REMARK                            x       y       z     vdW  Elec       q    Type
REMARK                         _______ _______ _______ _____ _____    ______ ____
ROOT
ATOM      1  C   UNL     1       3.419   3.265  19.660  0.00  0.00    +0.000 A 
ATOM      2  C   UNL     1       3.368   2.663  20.933  0.00  0.00    +0.000 A 
ATOM      3  C   UNL     1       2.166   2.540  21.629  0.00  0.00    +0.000 A 
ATOM      4  C   UNL     1       0.991   3.024  21.074  0.00  0.00    +0.000 A 
ATOM      5  C   UNL     1       1.017   3.602  19.805  0.00  0.00    +0.000 A 
ATOM      6  C   UNL     1       2.216   3.713  19.068  0.00  0.00    +0.000 A 
ENDROOT
BRANCH   6   7
ATOM      7  C   UNL     1       2.096   4.296  17.672  0.00  0.00    +0.000 C 
ATOM      8  F   UNL     1       0.827   4.506  17.232  0.00  0.00    +0.000 F 
ATOM      9  F   UNL     1       2.709   5.512  17.582  0.00  0.00    +0.000 F 
ATOM     10  F   UNL     1       2.692   3.514  16.730  0.00  0.00    +0.000 F 
ENDBRANCH   6   7
BRANCH   1  11
ATOM     11  C   UNL     1       4.778   3.399  19.006  0.00  0.00    +0.000 C 
BRANCH  11  12
ATOM     12  C   UNL     1       5.420   4.770  19.229  0.00  0.00    +0.000 C 
BRANCH  12  15
ATOM     13  N   UNL     1       7.999   4.297  17.235  0.00  0.00    +0.000 NA
ATOM     14  N   UNL     1       7.012   4.757  17.573  0.00  0.00    +0.000 NA
ATOM     15  N   UNL     1       5.937   5.261  17.945  0.00  0.00    +0.000 NA
ENDBRANCH  12  15
ENDBRANCH  11  12
ENDBRANCH   1  11
TORSDOF 4
ENDMDL
MODEL 6
REMARK VINA RESULT:      -6.5      3.124      3.866
REMARK  Name = 
REMARK  4 active torsions:
REMARK  status: ('A' for Active; 'I' for Inactive)
REMARK    1  A    between atoms: N_3  and  C_4
REMARK    2  A    between atoms: C_4  and  C_5
REMARK    3  A    between atoms: C_5  and  C_6
REMARK    4  A    between atoms: C_11  and  C_12
REMARK                            x       y       z     vdW  Elec       q    Type
REMARK                         _______ _______ _______ _____ _____    ______ ____
ROOT
ATOM      1  C   UNL     1       4.407   5.014  17.045  0.00  0.00    +0.000 A 
ATOM      2  C   UNL     1       4.634   6.403  16.961  0.00  0.00    +0.000 A 
ATOM      3  C   UNL     1       3.754   7.318  17.535  0.00  0.00    +0.000 A 
ATOM      4  C   UNL     1       2.621   6.869  18.198  0.00  0.00    +0.000 A 
ATOM      5  C   UNL     1       2.391   5.498  18.313  0.00  0.00    +0.000 A 
ATOM      6  C   UNL     1       3.283   4.550  17.765  0.00  0.00    +0.000 A 
ENDROOT
BRANCH   6   7
ATOM      7  C   UNL     1       2.954   3.091  18.022  0.00  0.00    +0.000 C 
ATOM      8  F   UNL     1       1.979   2.862  18.941  0.00  0.00    +0.000 F 
ATOM      9  F   UNL     1       2.525   2.466  16.887  0.00  0.00    +0.000 F 
ATOM     10  F   UNL     1       4.036   2.382  18.443  0.00  0.00    +0.000 F 
ENDBRANCH   6   7
BRANCH   1  11
ATOM     11  C   UNL     1       5.392   4.102  16.346  0.00  0.00    +0.000 C 
BRANCH  11  12
ATOM     12  C   UNL     1       6.681   4.814  15.933  0.00  0.00    +0.000 C 
BRANCH  12  15
ATOM     13  N   UNL     1       7.907   4.940  18.988  0.00  0.00    +0.000 NA
ATOM     14  N   UNL     1       7.854   4.610  17.898  0.00  0.00    +0.000 NA
ATOM     15  N   UNL     1       7.796   4.254  16.708  0.00  0.00    +0.000 NA
ENDBRANCH  12  15
ENDBRANCH  11  12
ENDBRANCH   1  11
TORSDOF 4
ENDMDL
MODEL 7
REMARK VINA RESULT:      -6.5      2.752      3.247
REMARK  Name = 
REMARK  4 active torsions:
REMARK  status: ('A' for Active; 'I' for Inactive)
REMARK    1  A    between atoms: N_3  and  C_4
REMARK    2  A    between atoms: C_4  and  C_5
REMARK    3  A    between atoms: C_5  and  C_6
REMARK    4  A    between atoms: C_11  and  C_12
REMARK                            x       y       z     vdW  Elec       q    Type
REMARK                         _______ _______ _______ _____ _____    ______ ____
ROOT
ATOM      1  C   UNL     1       4.321   5.072  17.234  0.00  0.00    +0.000 A 
ATOM      2  C   UNL     1       4.471   6.464  17.071  0.00  0.00    +0.000 A 
ATOM      3  C   UNL     1       3.569   7.362  17.639  0.00  0.00    +0.000 A 
ATOM      4  C   UNL     1       2.492   6.891  18.376  0.00  0.00    +0.000 A 
ATOM      5  C   UNL     1       2.340   5.518  18.569  0.00  0.00    +0.000 A 
ATOM      6  C   UNL     1       3.255   4.589  18.027  0.00  0.00    +0.000 A 
ENDROOT
BRANCH   6   7
ATOM      7  C   UNL     1       3.016   3.131  18.370  0.00  0.00    +0.000 C 
ATOM      8  F   UNL     1       4.058   2.490  18.965  0.00  0.00    +0.000 F 
ATOM      9  F   UNL     1       1.970   2.984  19.234  0.00  0.00    +0.000 F 
ATOM     10  F   UNL     1       2.696   2.386  17.277  0.00  0.00    +0.000 F 
ENDBRANCH   6   7
BRANCH   1  11
ATOM     11  C   UNL     1       5.322   4.176  16.536  0.00  0.00    +0.000 C 
BRANCH  11  12
ATOM     12  C   UNL     1       5.803   4.740  15.198  0.00  0.00    +0.000 C 
BRANCH  12  15
ATOM     13  N   UNL     1       8.277   5.748  13.271  0.00  0.00    +0.000 NA
ATOM     14  N   UNL     1       7.794   5.329  14.215  0.00  0.00    +0.000 NA
ATOM     15  N   UNL     1       7.266   4.868  15.242  0.00  0.00    +0.000 NA
ENDBRANCH  12  15
ENDBRANCH  11  12
ENDBRANCH   1  11
TORSDOF 4
ENDMDL
MODEL 8
REMARK VINA RESULT:      -6.4      2.845      3.528
REMARK  Name = 
REMARK  4 active torsions:
REMARK  status: ('A' for Active; 'I' for Inactive)
REMARK    1  A    between atoms: N_3  and  C_4
REMARK    2  A    between atoms: C_4  and  C_5
REMARK    3  A    between atoms: C_5  and  C_6
REMARK    4  A    between atoms: C_11  and  C_12
REMARK                            x       y       z     vdW  Elec       q    Type
REMARK                         _______ _______ _______ _____ _____    ______ ____
ROOT
ATOM      1  C   UNL     1       4.337   5.138  17.536  0.00  0.00    +0.000 A 
ATOM      2  C   UNL     1       4.476   6.532  17.377  0.00  0.00    +0.000 A 
ATOM      3  C   UNL     1       3.460   7.410  17.749  0.00  0.00    +0.000 A 
ATOM      4  C   UNL     1       2.276   6.915  18.279  0.00  0.00    +0.000 A 
ATOM      5  C   UNL     1       2.128   5.541  18.466  0.00  0.00    +0.000 A 
ATOM      6  C   UNL     1       3.155   4.634  18.124  0.00  0.00    +0.000 A 
ENDROOT
BRANCH   6   7
ATOM      7  C   UNL     1       2.895   3.173  18.444  0.00  0.00    +0.000 C 
ATOM      8  F   UNL     1       2.832   2.340  17.372  0.00  0.00    +0.000 F 
ATOM      9  F   UNL     1       3.873   2.653  19.241  0.00  0.00    +0.000 F 
ATOM     10  F   UNL     1       1.731   2.990  19.126  0.00  0.00    +0.000 F 
ENDBRANCH   6   7
BRANCH   1  11
ATOM     11  C   UNL     1       5.475   4.263  17.056  0.00  0.00    +0.000 C 
BRANCH  11  12
ATOM     12  C   UNL     1       6.828   4.658  17.651  0.00  0.00    +0.000 C 
BRANCH  12  15
ATOM     13  N   UNL     1       7.429   5.335  14.484  0.00  0.00    +0.000 NA
ATOM     14  N   UNL     1       7.642   4.901  15.516  0.00  0.00    +0.000 NA
ATOM     15  N   UNL     1       7.871   4.425  16.642  0.00  0.00    +0.000 NA
ENDBRANCH  12  15
ENDBRANCH  11  12
ENDBRANCH   1  11
TORSDOF 4
ENDMDL
MODEL 9
REMARK VINA RESULT:      -6.4      0.528      1.128
REMARK  Name = 
REMARK  4 active torsions:
REMARK  status: ('A' for Active; 'I' for Inactive)
REMARK    1  A    between atoms: N_3  and  C_4
REMARK    2  A    between atoms: C_4  and  C_5
REMARK    3  A    between atoms: C_5  and  C_6
REMARK    4  A    between atoms: C_11  and  C_12
REMARK                            x       y       z     vdW  Elec       q    Type
REMARK                         _______ _______ _______ _____ _____    ______ ____
ROOT
ATOM      1  C   UNL     1       5.212   4.394  17.088  0.00  0.00    +0.000 A 
ATOM      2  C   UNL     1       3.818   4.231  17.212  0.00  0.00    +0.000 A 
ATOM      3  C   UNL     1       3.149   4.570  18.387  0.00  0.00    +0.000 A 
ATOM      4  C   UNL     1       3.860   5.071  19.468  0.00  0.00    +0.000 A 
ATOM      5  C   UNL     1       5.237   5.263  19.357  0.00  0.00    +0.000 A 
ATOM      6  C   UNL     1       5.932   4.953  18.168  0.00  0.00    +0.000 A 
ENDROOT
BRANCH   6   7
ATOM      7  C   UNL     1       7.415   5.274  18.153  0.00  0.00    +0.000 C 
ATOM      8  F   UNL     1       7.784   6.302  17.343  0.00  0.00    +0.000 F 
ATOM      9  F   UNL     1       7.866   5.621  19.394  0.00  0.00    +0.000 F 
ATOM     10  F   UNL     1       8.173   4.210  17.771  0.00  0.00    +0.000 F 
ENDBRANCH   6   7
BRANCH   1  11
ATOM     11  C   UNL     1       5.854   3.949  15.791  0.00  0.00    +0.000 C 
BRANCH  11  12
ATOM     12  C   UNL     1       6.056   5.095  14.797  0.00  0.00    +0.000 C 
BRANCH  12  15
ATOM     13  N   UNL     1       8.833   5.998  13.273  0.00  0.00    +0.000 NA
ATOM     14  N   UNL     1       7.926   5.341  13.485  0.00  0.00    +0.000 NA
ATOM     15  N   UNL     1       6.933   4.628  13.715  0.00  0.00    +0.000 NA
ENDBRANCH  12  15
ENDBRANCH  11  12
ENDBRANCH   1  11
TORSDOF 4
ENDMDL
