MODEL 1
REMARK VINA RESULT:      -8.6      0.000      0.000
REMARK  Name = 
REMARK  6 active torsions:
REMARK  status: ('A' for Active; 'I' for Inactive)
REMARK    1  A    between atoms: C_2  and  O_3
REMARK    2  A    between atoms: C_2  and  C_4
REMARK    3  A    between atoms: N_6  and  C_7
REMARK    4  A    between atoms: C_7  and  C_8
REMARK    5  A    between atoms: C_12  and  C_13
REMARK    6  A    between atoms: C_20  and  C_22
REMARK                            x       y       z     vdW  Elec       q    Type
REMARK                         _______ _______ _______ _____ _____    ______ ____
ROOT
ATOM      1  C   UNL     1       0.754   9.459  20.825  0.00  0.00    +0.000 A 
ATOM      2  N   UNL     1       0.039  10.494  20.443  0.00  0.00    +0.000 NA
ATOM      3  C   UNL     1      -0.181  11.163  21.619  0.00  0.00    +0.000 A 
ATOM      4  N   UNL     1      -0.847  12.337  21.595  0.00  0.00    +0.000 N 
ATOM      5  C   UNL     1      -1.816  12.666  20.546  0.00  0.00    +0.000 C 
ATOM      6  C   UNL     1      -3.178  13.023  21.182  0.00  0.00    +0.000 C 
ATOM      7  N   UNL     1      -3.040  14.036  22.245  0.00  0.00    +0.000 N 
ATOM      8  C   UNL     1      -3.800  15.192  22.180  0.00  0.00    +0.000 C 
ATOM      9  O   UNL     1      -4.628  15.356  21.281  0.00  0.00    +0.000 OA
ATOM     10  C   UNL     1      -2.061  13.677  23.280  0.00  0.00    +0.000 C 
ATOM     11  C   UNL     1      -0.694  13.332  22.659  0.00  0.00    +0.000 C 
ATOM     12  N   UNL     1       0.363  10.569  22.690  0.00  0.00    +0.000 NA
ATOM     13  O   UNL     1       0.975   9.433  22.169  0.00  0.00    +0.000 OA
ENDROOT
BRANCH   1  18
ATOM     14  C   UNL     1       2.818   6.447  18.571  0.00  0.00    +0.000 A 
ATOM     15  C   UNL     1       2.631   7.717  18.007  0.00  0.00    +0.000 A 
ATOM     16  C   UNL     1       1.964   8.726  18.722  0.00  0.00    +0.000 A 
ATOM     17 CL   UNL     1       1.860  10.278  17.960  0.00  0.00    +0.000 Cl
ATOM     18  C   UNL     1       1.460   8.480  20.010  0.00  0.00    +0.000 A 
ATOM     19  C   UNL     1       1.649   7.202  20.560  0.00  0.00    +0.000 A 
ATOM     20  C   UNL     1       2.314   6.208  19.849  0.00  0.00    +0.000 A 
ATOM     21  F   UNL     1       2.485   5.016  20.424  0.00  0.00    +0.000 F 
BRANCH  14  22
ATOM     22  C   UNL     1       3.589   5.363  17.850  0.00  0.00    +0.000 C 
BRANCH  22  25
ATOM     23  C   UNL     1       5.484   4.767  15.721  0.00  0.00    +0.000 C 
ATOM     24  C   UNL     1       5.836   4.582  17.207  0.00  0.00    +0.000 C 
ATOM     25  N   UNL     1       4.982   5.746  17.552  0.00  0.00    +0.000 NA
ATOM     26  C   UNL     1       5.105   6.205  16.140  0.00  0.00    +0.000 C 
BRANCH  23  28
ATOM     27  O   UNL     1       7.600   5.311  14.561  0.00  0.00    +0.000 OA
ATOM     28  C   UNL     1       6.622   4.584  14.692  0.00  0.00    +0.000 C 
BRANCH  28  29
ATOM     29  O   UNL     1       6.461   3.501  13.880  0.00  0.00    +0.000 OA
ATOM     30  H   UNL     1       6.135   3.711  12.988  0.00  0.00    +0.000 HD
ENDBRANCH  28  29
ENDBRANCH  23  28
ENDBRANCH  22  25
ENDBRANCH  14  22
ENDBRANCH   1  18
BRANCH   8  31
ATOM     31  C   UNL     1      -3.612  16.259  23.261  0.00  0.00    +0.000 C 
ATOM     32  C   UNL     1      -4.044  17.647  22.782  0.00  0.00    +0.000 C 
ATOM     33  C   UNL     1      -4.383  18.417  24.047  0.00  0.00    +0.000 C 
ATOM     34  C   UNL     1      -4.829  17.377  25.066  0.00  0.00    +0.000 C 
ATOM     35  C   UNL     1      -4.500  16.005  24.479  0.00  0.00    +0.000 C 
ENDBRANCH   8  31
TORSDOF 6
ENDMDL
MODEL 2
REMARK VINA RESULT:      -8.4      1.006      1.142
REMARK  Name = 
REMARK  6 active torsions:
REMARK  status: ('A' for Active; 'I' for Inactive)
REMARK    1  A    between atoms: C_2  and  O_3
REMARK    2  A    between atoms: C_2  and  C_4
REMARK    3  A    between atoms: N_6  and  C_7
REMARK    4  A    between atoms: C_7  and  C_8
REMARK    5  A    between atoms: C_12  and  C_13
REMARK    6  A    between atoms: C_20  and  C_22
REMARK                            x       y       z     vdW  Elec       q    Type
REMARK                         _______ _______ _______ _____ _____    ______ ____
ROOT
ATOM      1  C   UNL     1       0.291   9.660  21.225  0.00  0.00    +0.000 A 
ATOM      2  N   UNL     1      -0.436  10.712  20.921  0.00  0.00    +0.000 NA
ATOM      3  C   UNL     1      -0.713  11.256  22.149  0.00  0.00    +0.000 A 
ATOM      4  N   UNL     1      -1.407  12.412  22.216  0.00  0.00    +0.000 N 
ATOM      5  C   UNL     1      -2.347  12.822  21.170  0.00  0.00    +0.000 C 
ATOM      6  C   UNL     1      -3.739  13.085  21.787  0.00  0.00    +0.000 C 
ATOM      7  N   UNL     1      -3.664  13.989  22.949  0.00  0.00    +0.000 N 
ATOM      8  C   UNL     1      -4.450  15.130  22.970  0.00  0.00    +0.000 C 
ATOM      9  O   UNL     1      -5.250  15.364  22.062  0.00  0.00    +0.000 OA
ATOM     10  C   UNL     1      -2.712  13.551  23.979  0.00  0.00    +0.000 C 
ATOM     11  C   UNL     1      -1.316  13.299  23.378  0.00  0.00    +0.000 C 
ATOM     12  N   UNL     1      -0.192  10.570  23.175  0.00  0.00    +0.000 NA
ATOM     13  O   UNL     1       0.466   9.505  22.567  0.00  0.00    +0.000 OA
ENDROOT
BRANCH   1  18
ATOM     14  C   UNL     1       2.522   6.938  18.770  0.00  0.00    +0.000 A 
ATOM     15  C   UNL     1       2.227   8.218  18.280  0.00  0.00    +0.000 A 
ATOM     16  C   UNL     1       1.503   9.134  19.062  0.00  0.00    +0.000 A 
ATOM     17 CL   UNL     1       1.263  10.712  18.388  0.00  0.00    +0.000 Cl
ATOM     18  C   UNL     1       1.049   8.782  20.344  0.00  0.00    +0.000 A 
ATOM     19  C   UNL     1       1.347   7.495  20.820  0.00  0.00    +0.000 A 
ATOM     20  C   UNL     1       2.067   6.594  20.043  0.00  0.00    +0.000 A 
ATOM     21  F   UNL     1       2.342   5.389  20.548  0.00  0.00    +0.000 F 
BRANCH  14  22
ATOM     22  C   UNL     1       3.355   5.956  17.976  0.00  0.00    +0.000 C 
BRANCH  22  25
ATOM     23  C   UNL     1       5.941   4.915  17.134  0.00  0.00    +0.000 C 
ATOM     24  C   UNL     1       5.811   6.058  18.156  0.00  0.00    +0.000 C 
ATOM     25  N   UNL     1       4.600   6.547  17.450  0.00  0.00    +0.000 NA
ATOM     26  C   UNL     1       5.055   5.810  16.239  0.00  0.00    +0.000 C 
BRANCH  23  28
ATOM     27  O   UNL     1       8.286   4.151  17.326  0.00  0.00    +0.000 OA
ATOM     28  C   UNL     1       7.361   4.564  16.636  0.00  0.00    +0.000 C 
BRANCH  28  29
ATOM     29  O   UNL     1       7.539   4.761  15.298  0.00  0.00    +0.000 OA
ATOM     30  H   UNL     1       6.933   4.253  14.732  0.00  0.00    +0.000 HD
ENDBRANCH  28  29
ENDBRANCH  23  28
ENDBRANCH  22  25
ENDBRANCH  14  22
ENDBRANCH   1  18
BRANCH   8  31
ATOM     31  C   UNL     1      -4.326  16.088  24.157  0.00  0.00    +0.000 C 
ATOM     32  C   UNL     1      -3.395  17.265  23.853  0.00  0.00    +0.000 C 
ATOM     33  C   UNL     1      -3.834  18.373  24.795  0.00  0.00    +0.000 C 
ATOM     34  C   UNL     1      -5.314  18.135  25.064  0.00  0.00    +0.000 C 
ATOM     35  C   UNL     1      -5.657  16.759  24.495  0.00  0.00    +0.000 C 
ENDBRANCH   8  31
TORSDOF 6
ENDMDL
MODEL 3
REMARK VINA RESULT:      -8.4      1.409      1.631
REMARK  Name = 
REMARK  6 active torsions:
REMARK  status: ('A' for Active; 'I' for Inactive)
REMARK    1  A    between atoms: C_2  and  O_3
REMARK    2  A    between atoms: C_2  and  C_4
REMARK    3  A    between atoms: N_6  and  C_7
REMARK    4  A    between atoms: C_7  and  C_8
REMARK    5  A    between atoms: C_12  and  C_13
REMARK    6  A    between atoms: C_20  and  C_22
REMARK                            x       y       z     vdW  Elec       q    Type
REMARK                         _______ _______ _______ _____ _____    ______ ____
ROOT
ATOM      1  C   UNL     1       0.416  10.036  20.660  0.00  0.00    +0.000 A 
ATOM      2  N   UNL     1      -0.630  10.676  20.187  0.00  0.00    +0.000 NA
ATOM      3  C   UNL     1      -0.737  11.751  21.032  0.00  0.00    +0.000 A 
ATOM      4  N   UNL     1      -1.689  12.679  20.801  0.00  0.00    +0.000 N 
ATOM      5  C   UNL     1      -2.936  12.363  20.098  0.00  0.00    +0.000 C 
ATOM      6  C   UNL     1      -4.147  12.750  20.975  0.00  0.00    +0.000 C 
ATOM      7  N   UNL     1      -4.045  14.133  21.475  0.00  0.00    +0.000 N 
ATOM      8  C   UNL     1      -5.090  15.013  21.247  0.00  0.00    +0.000 C 
ATOM      9  O   UNL     1      -6.123  14.638  20.687  0.00  0.00    +0.000 OA
ATOM     10  C   UNL     1      -2.784  14.419  22.174  0.00  0.00    +0.000 C 
ATOM     11  C   UNL     1      -1.568  14.049  21.303  0.00  0.00    +0.000 C 
ATOM     12  N   UNL     1       0.194  11.776  21.996  0.00  0.00    +0.000 NA
ATOM     13  O   UNL     1       0.955  10.635  21.758  0.00  0.00    +0.000 OA
ENDROOT
BRANCH   1  18
ATOM     14  C   UNL     1       2.538   6.643  19.109  0.00  0.00    +0.000 A 
ATOM     15  C   UNL     1       2.469   7.817  18.344  0.00  0.00    +0.000 A 
ATOM     16  C   UNL     1       1.786   8.946  18.826  0.00  0.00    +0.000 A 
ATOM     17 CL   UNL     1       1.832  10.364  17.833  0.00  0.00    +0.000 Cl
ATOM     18  C   UNL     1       1.148   8.919  20.078  0.00  0.00    +0.000 A 
ATOM     19  C   UNL     1       1.221   7.736  20.831  0.00  0.00    +0.000 A 
ATOM     20  C   UNL     1       1.901   6.622  20.350  0.00  0.00    +0.000 A 
ATOM     21  F   UNL     1       1.958   5.528  21.112  0.00  0.00    +0.000 F 
BRANCH  14  22
ATOM     22  C   UNL     1       3.320   5.436  18.642  0.00  0.00    +0.000 C 
BRANCH  22  25
ATOM     23  C   UNL     1       5.971   4.811  17.610  0.00  0.00    +0.000 C 
ATOM     24  C   UNL     1       5.385   6.232  17.558  0.00  0.00    +0.000 C 
ATOM     25  N   UNL     1       4.027   5.663  17.368  0.00  0.00    +0.000 NA
ATOM     26  C   UNL     1       4.664   4.403  16.893  0.00  0.00    +0.000 C 
BRANCH  23  28
ATOM     27  O   UNL     1       7.547   4.817  15.704  0.00  0.00    +0.000 OA
ATOM     28  C   UNL     1       7.310   4.565  16.880  0.00  0.00    +0.000 C 
BRANCH  28  29
ATOM     29  O   UNL     1       8.273   4.009  17.669  0.00  0.00    +0.000 OA
ATOM     30  H   UNL     1       8.227   4.270  18.605  0.00  0.00    +0.000 HD
ENDBRANCH  28  29
ENDBRANCH  23  28
ENDBRANCH  22  25
ENDBRANCH  14  22
ENDBRANCH   1  18
BRANCH   8  31
ATOM     31  C   UNL     1      -4.952  16.461  21.725  0.00  0.00    +0.000 C 
ATOM     32  C   UNL     1      -5.760  17.432  20.861  0.00  0.00    +0.000 C 
ATOM     33  C   UNL     1      -6.028  18.631  21.755  0.00  0.00    +0.000 C 
ATOM     34  C   UNL     1      -6.042  18.098  23.181  0.00  0.00    +0.000 C 
ATOM     35  C   UNL     1      -5.528  16.660  23.127  0.00  0.00    +0.000 C 
ENDBRANCH   8  31
TORSDOF 6
ENDMDL
MODEL 4
REMARK VINA RESULT:      -8.3      1.177      1.441
REMARK  Name = 
REMARK  6 active torsions:
REMARK  status: ('A' for Active; 'I' for Inactive)
REMARK    1  A    between atoms: C_2  and  O_3
REMARK    2  A    between atoms: C_2  and  C_4
REMARK    3  A    between atoms: N_6  and  C_7
REMARK    4  A    between atoms: C_7  and  C_8
REMARK    5  A    between atoms: C_12  and  C_13
REMARK    6  A    between atoms: C_20  and  C_22
REMARK                            x       y       z     vdW  Elec       q    Type
REMARK                         _______ _______ _______ _____ _____    ______ ____
ROOT
ATOM      1  C   UNL     1       0.869   8.573  20.458  0.00  0.00    +0.000 A 
ATOM      2  N   UNL     1       0.555   9.845  20.350  0.00  0.00    +0.000 NA
ATOM      3  C   UNL     1      -0.267  10.049  21.428  0.00  0.00    +0.000 A 
ATOM      4  N   UNL     1      -0.739  11.289  21.672  0.00  0.00    +0.000 N 
ATOM      5  C   UNL     1      -0.912  12.283  20.609  0.00  0.00    +0.000 C 
ATOM      6  C   UNL     1      -2.373  12.787  20.594  0.00  0.00    +0.000 C 
ATOM      7  N   UNL     1      -2.821  13.217  21.931  0.00  0.00    +0.000 N 
ATOM      8  C   UNL     1      -3.348  14.488  22.091  0.00  0.00    +0.000 C 
ATOM      9  O   UNL     1      -3.500  15.237  21.123  0.00  0.00    +0.000 OA
ATOM     10  C   UNL     1      -2.633  12.199  22.974  0.00  0.00    +0.000 C 
ATOM     11  C   UNL     1      -1.177  11.699  23.008  0.00  0.00    +0.000 C 
ATOM     12  N   UNL     1      -0.468   8.952  22.171  0.00  0.00    +0.000 NA
ATOM     13  O   UNL     1       0.277   7.968  21.525  0.00  0.00    +0.000 OA
ENDROOT
BRANCH   1  18
ATOM     14  C   UNL     1       3.809   6.189  18.436  0.00  0.00    +0.000 A 
ATOM     15  C   UNL     1       3.364   7.378  17.841  0.00  0.00    +0.000 A 
ATOM     16  C   UNL     1       2.407   8.183  18.480  0.00  0.00    +0.000 A 
ATOM     17 CL   UNL     1       1.989   9.668  17.692  0.00  0.00    +0.000 Cl
ATOM     18  C   UNL     1       1.866   7.808  19.722  0.00  0.00    +0.000 A 
ATOM     19  C   UNL     1       2.316   6.611  20.303  0.00  0.00    +0.000 A 
ATOM     20  C   UNL     1       3.267   5.820  19.667  0.00  0.00    +0.000 A 
ATOM     21  F   UNL     1       3.677   4.702  20.270  0.00  0.00    +0.000 F 
BRANCH  14  22
ATOM     22  C   UNL     1       4.886   5.337  17.801  0.00  0.00    +0.000 C 
BRANCH  22  25
ATOM     23  C   UNL     1       6.455   5.056  15.364  0.00  0.00    +0.000 C 
ATOM     24  C   UNL     1       5.189   5.929  15.427  0.00  0.00    +0.000 C 
ATOM     25  N   UNL     1       4.589   4.982  16.400  0.00  0.00    +0.000 NA
ATOM     26  C   UNL     1       5.537   3.941  15.914  0.00  0.00    +0.000 C 
BRANCH  23  28
ATOM     27  O   UNL     1       6.731   4.058  13.117  0.00  0.00    +0.000 OA
ATOM     28  C   UNL     1       7.105   4.846  13.978  0.00  0.00    +0.000 C 
BRANCH  28  29
ATOM     29  O   UNL     1       8.195   5.635  13.757  0.00  0.00    +0.000 OA
ATOM     30  H   UNL     1       8.890   5.220  13.218  0.00  0.00    +0.000 HD
ENDBRANCH  28  29
ENDBRANCH  23  28
ENDBRANCH  22  25
ENDBRANCH  14  22
ENDBRANCH   1  18
BRANCH   8  31
ATOM     31  C   UNL     1      -3.762  14.943  23.492  0.00  0.00    +0.000 C 
ATOM     32  C   UNL     1      -2.834  16.028  24.044  0.00  0.00    +0.000 C 
ATOM     33  C   UNL     1      -3.665  16.777  25.072  0.00  0.00    +0.000 C 
ATOM     34  C   UNL     1      -5.113  16.643  24.621  0.00  0.00    +0.000 C 
ATOM     35  C   UNL     1      -5.138  15.609  23.496  0.00  0.00    +0.000 C 
ENDBRANCH   8  31
TORSDOF 6
ENDMDL
MODEL 5
REMARK VINA RESULT:      -8.3      1.358      1.492
REMARK  Name = 
REMARK  6 active torsions:
REMARK  status: ('A' for Active; 'I' for Inactive)
REMARK    1  A    between atoms: C_2  and  O_3
REMARK    2  A    between atoms: C_2  and  C_4
REMARK    3  A    between atoms: N_6  and  C_7
REMARK    4  A    between atoms: C_7  and  C_8
REMARK    5  A    between atoms: C_12  and  C_13
REMARK    6  A    between atoms: C_20  and  C_22
REMARK                            x       y       z     vdW  Elec       q    Type
REMARK                         _______ _______ _______ _____ _____    ______ ____
ROOT
ATOM      1  C   UNL     1       0.775  10.567  20.645  0.00  0.00    +0.000 A 
ATOM      2  N   UNL     1      -0.484  10.928  20.755  0.00  0.00    +0.000 NA
ATOM      3  C   UNL     1      -0.396  12.161  21.350  0.00  0.00    +0.000 A 
ATOM      4  N   UNL     1      -1.524  12.872  21.563  0.00  0.00    +0.000 N 
ATOM      5  C   UNL     1      -2.831  12.232  21.734  0.00  0.00    +0.000 C 
ATOM      6  C   UNL     1      -3.461  12.674  23.073  0.00  0.00    +0.000 C 
ATOM      7  N   UNL     1      -3.458  14.141  23.226  0.00  0.00    +0.000 N 
ATOM      8  C   UNL     1      -4.648  14.794  23.500  0.00  0.00    +0.000 C 
ATOM      9  O   UNL     1      -5.692  14.162  23.677  0.00  0.00    +0.000 OA
ATOM     10  C   UNL     1      -2.134  14.751  23.047  0.00  0.00    +0.000 C 
ATOM     11  C   UNL     1      -1.501  14.328  21.708  0.00  0.00    +0.000 C 
ATOM     12  N   UNL     1       0.860  12.548  21.610  0.00  0.00    +0.000 NA
ATOM     13  O   UNL     1       1.639  11.489  21.152  0.00  0.00    +0.000 OA
ENDROOT
BRANCH   1  18
ATOM     14  C   UNL     1       2.437   7.139  18.669  0.00  0.00    +0.000 A 
ATOM     15  C   UNL     1       2.349   8.354  17.975  0.00  0.00    +0.000 A 
ATOM     16  C   UNL     1       1.815   9.496  18.596  0.00  0.00    +0.000 A 
ATOM     17 CL   UNL     1       1.827  10.961  17.671  0.00  0.00    +0.000 Cl
ATOM     18  C   UNL     1       1.346   9.440  19.920  0.00  0.00    +0.000 A 
ATOM     19  C   UNL     1       1.435   8.216  20.601  0.00  0.00    +0.000 A 
ATOM     20  C   UNL     1       1.969   7.090  19.982  0.00  0.00    +0.000 A 
ATOM     21  F   UNL     1       2.049   5.954  20.678  0.00  0.00    +0.000 F 
BRANCH  14  22
ATOM     22  C   UNL     1       3.067   5.913  18.047  0.00  0.00    +0.000 C 
BRANCH  22  25
ATOM     23  C   UNL     1       5.613   5.254  16.795  0.00  0.00    +0.000 C 
ATOM     24  C   UNL     1       5.030   4.426  17.954  0.00  0.00    +0.000 C 
ATOM     25  N   UNL     1       4.436   5.657  18.532  0.00  0.00    +0.000 NA
ATOM     26  C   UNL     1       5.423   6.453  17.751  0.00  0.00    +0.000 C 
BRANCH  23  28
ATOM     27  O   UNL     1       7.924   4.399  17.010  0.00  0.00    +0.000 OA
ATOM     28  C   UNL     1       7.045   4.914  16.328  0.00  0.00    +0.000 C 
BRANCH  28  29
ATOM     29  O   UNL     1       7.295   5.250  15.030  0.00  0.00    +0.000 OA
ATOM     30  H   UNL     1       7.845   6.045  14.918  0.00  0.00    +0.000 HD
ENDBRANCH  28  29
ENDBRANCH  23  28
ENDBRANCH  22  25
ENDBRANCH  14  22
ENDBRANCH   1  18
BRANCH   8  31
ATOM     31  C   UNL     1      -4.643  16.321  23.605  0.00  0.00    +0.000 C 
ATOM     32  C   UNL     1      -5.979  16.933  23.177  0.00  0.00    +0.000 C 
ATOM     33  C   UNL     1      -6.046  18.277  23.883  0.00  0.00    +0.000 C 
ATOM     34  C   UNL     1      -5.221  18.127  25.154  0.00  0.00    +0.000 C 
ATOM     35  C   UNL     1      -4.474  16.798  25.048  0.00  0.00    +0.000 C 
ENDBRANCH   8  31
TORSDOF 6
ENDMDL
MODEL 6
REMARK VINA RESULT:      -8.2      2.762      3.931
REMARK  Name = 
REMARK  6 active torsions:
REMARK  status: ('A' for Active; 'I' for Inactive)
REMARK    1  A    between atoms: C_2  and  O_3
REMARK    2  A    between atoms: C_2  and  C_4
REMARK    3  A    between atoms: N_6  and  C_7
REMARK    4  A    between atoms: C_7  and  C_8
REMARK    5  A    between atoms: C_12  and  C_13
REMARK    6  A    between atoms: C_20  and  C_22
REMARK                            x       y       z     vdW  Elec       q    Type
REMARK                         _______ _______ _______ _____ _____    ______ ____
ROOT
ATOM      1  C   UNL     1       2.551   6.831  19.282  0.00  0.00    +0.000 A 
ATOM      2  N   UNL     1       2.230   8.105  19.311  0.00  0.00    +0.000 NA
ATOM      3  C   UNL     1       1.478   8.205  20.453  0.00  0.00    +0.000 A 
ATOM      4  N   UNL     1       1.021   9.415  20.839  0.00  0.00    +0.000 N 
ATOM      5  C   UNL     1       0.780  10.500  19.884  0.00  0.00    +0.000 C 
ATOM      6  C   UNL     1      -0.679  10.994  20.007  0.00  0.00    +0.000 C 
ATOM      7  N   UNL     1      -1.042  11.297  21.404  0.00  0.00    +0.000 N 
ATOM      8  C   UNL     1      -1.558  12.544  21.712  0.00  0.00    +0.000 C 
ATOM      9  O   UNL     1      -1.773  13.378  20.829  0.00  0.00    +0.000 OA
ATOM     10  C   UNL     1      -0.787  10.189  22.335  0.00  0.00    +0.000 C 
ATOM     11  C   UNL     1       0.669   9.698  22.231  0.00  0.00    +0.000 C 
ATOM     12  N   UNL     1       1.326   7.043  21.104  0.00  0.00    +0.000 NA
ATOM     13  O   UNL     1       2.029   6.128  20.325  0.00  0.00    +0.000 OA
ENDROOT
BRANCH   1  18
ATOM     14  C   UNL     1       5.455   4.967  16.731  0.00  0.00    +0.000 A 
ATOM     15  C   UNL     1       4.318   4.243  17.119  0.00  0.00    +0.000 A 
ATOM     16  C   UNL     1       3.347   4.827  17.949  0.00  0.00    +0.000 A 
ATOM     17 CL   UNL     1       1.947   3.869  18.300  0.00  0.00    +0.000 Cl
ATOM     18  C   UNL     1       3.500   6.143  18.418  0.00  0.00    +0.000 A 
ATOM     19  C   UNL     1       4.646   6.854  18.026  0.00  0.00    +0.000 A 
ATOM     20  C   UNL     1       5.603   6.271  17.201  0.00  0.00    +0.000 A 
ATOM     21  F   UNL     1       6.664   6.996  16.842  0.00  0.00    +0.000 F 
BRANCH  14  22
ATOM     22  C   UNL     1       6.483   4.385  15.787  0.00  0.00    +0.000 C 
BRANCH  22  25
ATOM     23  C   UNL     1       5.715   3.199  13.240  0.00  0.00    +0.000 C 
ATOM     24  C   UNL     1       7.015   4.004  13.410  0.00  0.00    +0.000 C 
ATOM     25  N   UNL     1       6.342   4.877  14.404  0.00  0.00    +0.000 NA
ATOM     26  C   UNL     1       5.034   4.454  13.831  0.00  0.00    +0.000 C 
BRANCH  23  28
ATOM     27  O   UNL     1       4.454   3.271  11.113  0.00  0.00    +0.000 OA
ATOM     28  C   UNL     1       5.328   2.767  11.808  0.00  0.00    +0.000 C 
BRANCH  28  29
ATOM     29  O   UNL     1       6.059   1.717  11.335  0.00  0.00    +0.000 OA
ATOM     30  H   UNL     1       6.682   1.337  11.978  0.00  0.00    +0.000 HD
ENDBRANCH  28  29
ENDBRANCH  23  28
ENDBRANCH  22  25
ENDBRANCH  14  22
ENDBRANCH   1  18
BRANCH   8  31
ATOM     31  C   UNL     1      -1.883  12.866  23.173  0.00  0.00    +0.000 C 
ATOM     32  C   UNL     1      -1.670  14.347  23.498  0.00  0.00    +0.000 C 
ATOM     33  C   UNL     1      -2.567  14.626  24.692  0.00  0.00    +0.000 C 
ATOM     34  C   UNL     1      -3.724  13.641  24.588  0.00  0.00    +0.000 C 
ATOM     35  C   UNL     1      -3.359  12.636  23.497  0.00  0.00    +0.000 C 
ENDBRANCH   8  31
TORSDOF 6
ENDMDL
MODEL 7
REMARK VINA RESULT:      -8.1      1.037      1.381
REMARK  Name = 
REMARK  6 active torsions:
REMARK  status: ('A' for Active; 'I' for Inactive)
REMARK    1  A    between atoms: C_2  and  O_3
REMARK    2  A    between atoms: C_2  and  C_4
REMARK    3  A    between atoms: N_6  and  C_7
REMARK    4  A    between atoms: C_7  and  C_8
REMARK    5  A    between atoms: C_12  and  C_13
REMARK    6  A    between atoms: C_20  and  C_22
REMARK                            x       y       z     vdW  Elec       q    Type
REMARK                         _______ _______ _______ _____ _____    ______ ____
ROOT
ATOM      1  C   UNL     1       0.307   9.585  21.134  0.00  0.00    +0.000 A 
ATOM      2  N   UNL     1      -0.414  10.567  20.640  0.00  0.00    +0.000 NA
ATOM      3  C   UNL     1      -0.698  11.324  21.747  0.00  0.00    +0.000 A 
ATOM      4  N   UNL     1      -1.388  12.475  21.600  0.00  0.00    +0.000 N 
ATOM      5  C   UNL     1      -2.319  12.692  20.489  0.00  0.00    +0.000 C 
ATOM      6  C   UNL     1      -3.714  13.065  21.037  0.00  0.00    +0.000 C 
ATOM      7  N   UNL     1      -3.645  14.163  22.019  0.00  0.00    +0.000 N 
ATOM      8  C   UNL     1      -4.427  15.290  21.828  0.00  0.00    +0.000 C 
ATOM      9  O   UNL     1      -5.219  15.359  20.885  0.00  0.00    +0.000 OA
ATOM     10  C   UNL     1      -2.702  13.915  23.119  0.00  0.00    +0.000 C 
ATOM     11  C   UNL     1      -1.303  13.555  22.584  0.00  0.00    +0.000 C 
ATOM     12  N   UNL     1      -0.188  10.833  22.885  0.00  0.00    +0.000 NA
ATOM     13  O   UNL     1       0.472   9.674  22.483  0.00  0.00    +0.000 OA
ENDROOT
BRANCH   1  18
ATOM     14  C   UNL     1       2.525   6.451  19.218  0.00  0.00    +0.000 A 
ATOM     15  C   UNL     1       2.383   7.686  18.569  0.00  0.00    +0.000 A 
ATOM     16  C   UNL     1       1.667   8.733  19.172  0.00  0.00    +0.000 A 
ATOM     17 CL   UNL     1       1.623  10.238  18.315  0.00  0.00    +0.000 Cl
ATOM     18  C   UNL     1       1.069   8.562  20.432  0.00  0.00    +0.000 A 
ATOM     19  C   UNL     1       1.214   7.318  21.068  0.00  0.00    +0.000 A 
ATOM     20  C   UNL     1       1.927   6.286  20.467  0.00  0.00    +0.000 A 
ATOM     21  F   UNL     1       2.052   5.129  21.120  0.00  0.00    +0.000 F 
BRANCH  14  22
ATOM     22  C   UNL     1       3.344   5.329  18.619  0.00  0.00    +0.000 C 
BRANCH  22  25
ATOM     23  C   UNL     1       5.997   4.723  17.584  0.00  0.00    +0.000 C 
ATOM     24  C   UNL     1       5.510   6.167  17.796  0.00  0.00    +0.000 C 
ATOM     25  N   UNL     1       4.130   5.750  17.444  0.00  0.00    +0.000 NA
ATOM     26  C   UNL     1       4.706   4.565  16.750  0.00  0.00    +0.000 C 
BRANCH  23  28
ATOM     27  O   UNL     1       7.598   4.796  15.700  0.00  0.00    +0.000 OA
ATOM     28  C   UNL     1       7.353   4.528  16.870  0.00  0.00    +0.000 C 
BRANCH  28  29
ATOM     29  O   UNL     1       8.324   3.998  17.668  0.00  0.00    +0.000 OA
ATOM     30  H   UNL     1       9.224   4.066  17.306  0.00  0.00    +0.000 HD
ENDBRANCH  28  29
ENDBRANCH  23  28
ENDBRANCH  22  25
ENDBRANCH  14  22
ENDBRANCH   1  18
BRANCH   8  31
ATOM     31  C   UNL     1      -4.308  16.446  22.824  0.00  0.00    +0.000 C 
ATOM     32  C   UNL     1      -4.646  16.012  24.253  0.00  0.00    +0.000 C 
ATOM     33  C   UNL     1      -3.925  17.003  25.151  0.00  0.00    +0.000 C 
ATOM     34  C   UNL     1      -2.710  17.477  24.365  0.00  0.00    +0.000 C 
ATOM     35  C   UNL     1      -2.875  16.964  22.935  0.00  0.00    +0.000 C 
ENDBRANCH   8  31
TORSDOF 6
ENDMDL
MODEL 8
REMARK VINA RESULT:      -8.1      3.221     12.294
REMARK  Name = 
REMARK  6 active torsions:
REMARK  status: ('A' for Active; 'I' for Inactive)
REMARK    1  A    between atoms: C_2  and  O_3
REMARK    2  A    between atoms: C_2  and  C_4
REMARK    3  A    between atoms: N_6  and  C_7
REMARK    4  A    between atoms: C_7  and  C_8
REMARK    5  A    between atoms: C_12  and  C_13
REMARK    6  A    between atoms: C_20  and  C_22
REMARK                            x       y       z     vdW  Elec       q    Type
REMARK                         _______ _______ _______ _____ _____    ______ ____
ROOT
ATOM      1  C   UNL     1       0.104  10.054  19.981  0.00  0.00    +0.000 A 
ATOM      2  N   UNL     1       0.831   9.018  20.335  0.00  0.00    +0.000 NA
ATOM      3  C   UNL     1       1.481   8.690  19.173  0.00  0.00    +0.000 A 
ATOM      4  N   UNL     1       2.381   7.684  19.182  0.00  0.00    +0.000 N 
ATOM      5  C   UNL     1       2.311   6.580  20.143  0.00  0.00    +0.000 C 
ATOM      6  C   UNL     1       2.267   5.231  19.391  0.00  0.00    +0.000 C 
ATOM      7  N   UNL     1       3.345   5.122  18.392  0.00  0.00    +0.000 N 
ATOM      8  C   UNL     1       4.196   4.030  18.432  0.00  0.00    +0.000 C 
ATOM      9  O   UNL     1       4.025   3.123  19.250  0.00  0.00    +0.000 OA
ATOM     10  C   UNL     1       3.390   6.245  17.445  0.00  0.00    +0.000 C 
ATOM     11  C   UNL     1       3.448   7.595  18.183  0.00  0.00    +0.000 C 
ATOM     12  N   UNL     1       1.168   9.479  18.136  0.00  0.00    +0.000 NA
ATOM     13  O   UNL     1       0.248  10.380  18.666  0.00  0.00    +0.000 OA
ENDROOT
BRANCH   1  18
ATOM     14  C   UNL     1      -2.171  12.864  22.293  0.00  0.00    +0.000 A 
ATOM     15  C   UNL     1      -1.637  11.731  22.923  0.00  0.00    +0.000 A 
ATOM     16  C   UNL     1      -0.883  10.795  22.195  0.00  0.00    +0.000 A 
ATOM     17 CL   UNL     1      -0.207   9.476  23.091  0.00  0.00    +0.000 Cl
ATOM     18  C   UNL     1      -0.659  10.969  20.819  0.00  0.00    +0.000 A 
ATOM     19  C   UNL     1      -1.205  12.105  20.199  0.00  0.00    +0.000 A 
ATOM     20  C   UNL     1      -1.947  13.029  20.926  0.00  0.00    +0.000 A 
ATOM     21  F   UNL     1      -2.428  14.103  20.295  0.00  0.00    +0.000 F 
BRANCH  14  22
ATOM     22  C   UNL     1      -2.931  13.919  23.066  0.00  0.00    +0.000 C 
BRANCH  22  25
ATOM     23  C   UNL     1      -5.594  13.072  23.885  0.00  0.00    +0.000 C 
ATOM     24  C   UNL     1      -5.076  12.872  22.451  0.00  0.00    +0.000 C 
ATOM     25  N   UNL     1      -4.299  14.132  22.558  0.00  0.00    +0.000 NA
ATOM     26  C   UNL     1      -5.206  14.551  23.663  0.00  0.00    +0.000 C 
BRANCH  23  28
ATOM     27  O   UNL     1      -7.898  13.485  24.685  0.00  0.00    +0.000 OA
ATOM     28  C   UNL     1      -7.079  12.742  24.158  0.00  0.00    +0.000 C 
BRANCH  28  29
ATOM     29  O   UNL     1      -7.446  11.491  23.758  0.00  0.00    +0.000 OA
ATOM     30  H   UNL     1      -6.702  10.899  23.553  0.00  0.00    +0.000 HD
ENDBRANCH  28  29
ENDBRANCH  23  28
ENDBRANCH  22  25
ENDBRANCH  14  22
ENDBRANCH   1  18
BRANCH   8  31
ATOM     31  C   UNL     1       5.344   3.953  17.422  0.00  0.00    +0.000 C 
ATOM     32  C   UNL     1       4.869   4.208  15.989  0.00  0.00    +0.000 C 
ATOM     33  C   UNL     1       6.099   4.700  15.245  0.00  0.00    +0.000 C 
ATOM     34  C   UNL     1       6.980   5.375  16.287  0.00  0.00    +0.000 C 
ATOM     35  C   UNL     1       6.388   5.044  17.656  0.00  0.00    +0.000 C 
ENDBRANCH   8  31
TORSDOF 6
ENDMDL
MODEL 9
REMARK VINA RESULT:      -8.0      0.882      1.100
REMARK  Name = 
REMARK  6 active torsions:
REMARK  status: ('A' for Active; 'I' for Inactive)
REMARK    1  A    between atoms: C_2  and  O_3
REMARK    2  A    between atoms: C_2  and  C_4
REMARK    3  A    between atoms: N_6  and  C_7
REMARK    4  A    between atoms: C_7  and  C_8
REMARK    5  A    between atoms: C_12  and  C_13
REMARK    6  A    between atoms: C_20  and  C_22
REMARK                            x       y       z     vdW  Elec       q    Type
REMARK                         _______ _______ _______ _____ _____    ______ ____
ROOT
ATOM      1  C   UNL     1       0.937   9.015  20.666  0.00  0.00    +0.000 A 
ATOM      2  N   UNL     1       0.224  10.035  20.245  0.00  0.00    +0.000 NA
ATOM      3  C   UNL     1      -0.086  10.691  21.408  0.00  0.00    +0.000 A 
ATOM      4  N   UNL     1      -0.776  11.850  21.348  0.00  0.00    +0.000 N 
ATOM      5  C   UNL     1      -1.684  12.163  20.241  0.00  0.00    +0.000 C 
ATOM      6  C   UNL     1      -3.091  12.485  20.791  0.00  0.00    +0.000 C 
ATOM      7  N   UNL     1      -3.045  13.493  21.866  0.00  0.00    +0.000 N 
ATOM      8  C   UNL     1      -3.826  14.631  21.759  0.00  0.00    +0.000 C 
ATOM      9  O   UNL     1      -4.599  14.782  20.810  0.00  0.00    +0.000 OA
ATOM     10  C   UNL     1      -2.125  13.150  22.960  0.00  0.00    +0.000 C 
ATOM     11  C   UNL     1      -0.714  12.840  22.425  0.00  0.00    +0.000 C 
ATOM     12  N   UNL     1       0.403  10.103  22.508  0.00  0.00    +0.000 NA
ATOM     13  O   UNL     1       1.074   8.985  22.021  0.00  0.00    +0.000 OA
ENDROOT
BRANCH   1  18
ATOM     14  C   UNL     1       3.224   6.072  18.538  0.00  0.00    +0.000 A 
ATOM     15  C   UNL     1       2.962   7.308  17.930  0.00  0.00    +0.000 A 
ATOM     16  C   UNL     1       2.222   8.294  18.602  0.00  0.00    +0.000 A 
ATOM     17 CL   UNL     1       2.027   9.810  17.787  0.00  0.00    +0.000 Cl
ATOM     18  C   UNL     1       1.717   8.058  19.892  0.00  0.00    +0.000 A 
ATOM     19  C   UNL     1       1.981   6.813  20.487  0.00  0.00    +0.000 A 
ATOM     20  C   UNL     1       2.718   5.842  19.817  0.00  0.00    +0.000 A 
ATOM     21  F   UNL     1       2.958   4.683  20.433  0.00  0.00    +0.000 F 
BRANCH  14  22
ATOM     22  C   UNL     1       4.072   5.018  17.862  0.00  0.00    +0.000 C 
BRANCH  22  25
ATOM     23  C   UNL     1       5.703   4.599  15.486  0.00  0.00    +0.000 C 
ATOM     24  C   UNL     1       6.278   4.470  16.908  0.00  0.00    +0.000 C 
ATOM     25  N   UNL     1       5.362   5.541  17.372  0.00  0.00    +0.000 NA
ATOM     26  C   UNL     1       5.237   5.994  15.959  0.00  0.00    +0.000 C 
BRANCH  23  28
ATOM     27  O   UNL     1       7.642   5.283  14.110  0.00  0.00    +0.000 OA
ATOM     28  C   UNL     1       6.699   4.525  14.307  0.00  0.00    +0.000 C 
BRANCH  28  29
ATOM     29  O   UNL     1       6.447   3.505  13.438  0.00  0.00    +0.000 OA
ATOM     30  H   UNL     1       6.650   3.708  12.509  0.00  0.00    +0.000 HD
ENDBRANCH  28  29
ENDBRANCH  23  28
ENDBRANCH  22  25
ENDBRANCH  14  22
ENDBRANCH   1  18
BRANCH   8  31
ATOM     31  C   UNL     1      -3.732  15.695  22.855  0.00  0.00    +0.000 C 
ATOM     32  C   UNL     1      -3.966  15.108  24.250  0.00  0.00    +0.000 C 
ATOM     33  C   UNL     1      -3.265  16.059  25.205  0.00  0.00    +0.000 C 
ATOM     34  C   UNL     1      -2.126  16.688  24.413  0.00  0.00    +0.000 C 
ATOM     35  C   UNL     1      -2.331  16.300  22.950  0.00  0.00    +0.000 C 
ENDBRANCH   8  31
TORSDOF 6
ENDMDL
