MODEL 1
REMARK VINA RESULT:      -7.6      0.000      0.000
REMARK  Name = 
REMARK  5 active torsions:
REMARK  status: ('A' for Active; 'I' for Inactive)
REMARK    1  A    between atoms: C_2  and  C_3
REMARK    2  A    between atoms: C_3  and  C_4
REMARK    3  A    between atoms: C_4  and  C_5
REMARK    4  A    between atoms: C_5  and  S_6
REMARK    5  A    between atoms: S_6  and  C_7
REMARK                            x       y       z     vdW  Elec       q    Type
REMARK                         _______ _______ _______ _____ _____    ______ ____
ROOT
ATOM      1  O   UNL     1       1.727   4.927  20.389  0.00  0.00    +0.000 OA
ATOM      2  C   UNL     1       2.000   5.653  19.434  0.00  0.00    +0.000 C 
ATOM      3  N   UNL     1       2.010   7.032  19.550  0.00  0.00    +0.000 N 
ATOM      4  C   UNL     1       2.395   7.977  18.496  0.00  0.00    +0.000 C 
ATOM      5  C   UNL     1       1.387   9.134  18.393  0.00  0.00    +0.000 C 
ATOM      6  N   UNL     1       1.229   9.767  19.708  0.00  0.00    +0.000 N 
ATOM      7  C   UNL     1       1.069  11.110  19.862  0.00  0.00    +0.000 A 
ATOM      8  N   UNL     1       0.518  11.674  20.918  0.00  0.00    +0.000 NA
ATOM      9  C   UNL     1       0.539  13.055  20.822  0.00  0.00    +0.000 A 
ATOM     10  C   UNL     1       0.027  13.970  21.766  0.00  0.00    +0.000 A 
ATOM     11  C   UNL     1       0.127  15.348  21.526  0.00  0.00    +0.000 A 
ATOM     12  C   UNL     1       0.734  15.815  20.364  0.00  0.00    +0.000 A 
ATOM     13 CL   UNL     1       0.852  17.510  20.085  0.00  0.00    +0.000 Cl
ATOM     14  C   UNL     1       1.252  14.934  19.417  0.00  0.00    +0.000 A 
ATOM     15  C   UNL     1       1.138  13.559  19.669  0.00  0.00    +0.000 A 
ATOM     16  S   UNL     1       1.668  12.253  18.705  0.00  0.00    +0.000 S 
ATOM     17  C   UNL     1       0.778   8.845  20.765  0.00  0.00    +0.000 C 
ATOM     18  C   UNL     1       1.758   7.655  20.863  0.00  0.00    +0.000 C 
ENDROOT
BRANCH   2  19
ATOM     19  C   UNL     1       2.324   5.069  18.063  0.00  0.00    +0.000 C 
BRANCH  19  20
ATOM     20  C   UNL     1       2.619   3.570  18.150  0.00  0.00    +0.000 C 
BRANCH  20  21
ATOM     21  C   UNL     1       4.099   3.249  17.942  0.00  0.00    +0.000 C 
BRANCH  21  22
ATOM     22  S   UNL     1       4.700   4.261  16.543  0.00  0.00    +0.000 S 
BRANCH  22  23
ATOM     23  C   UNL     1       6.011   5.239  17.254  0.00  0.00    +0.000 A 
ATOM     24  C   UNL     1       6.210   6.523  16.721  0.00  0.00    +0.000 A 
ATOM     25  C   UNL     1       7.151   7.392  17.277  0.00  0.00    +0.000 A 
ATOM     26  C   UNL     1       7.894   6.978  18.374  0.00  0.00    +0.000 A 
ATOM     27  F   UNL     1       8.783   7.815  18.924  0.00  0.00    +0.000 F 
ATOM     28  C   UNL     1       7.716   5.712  18.916  0.00  0.00    +0.000 A 
ATOM     29  C   UNL     1       6.772   4.843  18.359  0.00  0.00    +0.000 A 
ENDBRANCH  22  23
ENDBRANCH  21  22
ENDBRANCH  20  21
ENDBRANCH  19  20
ENDBRANCH   2  19
TORSDOF 5
ENDMDL
MODEL 2
REMARK VINA RESULT:      -7.5      3.313      4.536
REMARK  Name = 
REMARK  5 active torsions:
REMARK  status: ('A' for Active; 'I' for Inactive)
REMARK    1  A    between atoms: C_2  and  C_3
REMARK    2  A    between atoms: C_3  and  C_4
REMARK    3  A    between atoms: C_4  and  C_5
REMARK    4  A    between atoms: C_5  and  S_6
REMARK    5  A    between atoms: S_6  and  C_7
REMARK                            x       y       z     vdW  Elec       q    Type
REMARK                         _______ _______ _______ _____ _____    ______ ____
ROOT
ATOM      1  O   UNL     1       2.175   6.316  20.580  0.00  0.00    +0.000 OA
ATOM      2  C   UNL     1       2.060   7.314  19.868  0.00  0.00    +0.000 C 
ATOM      3  N   UNL     1       1.465   8.473  20.334  0.00  0.00    +0.000 N 
ATOM      4  C   UNL     1       1.350   9.733  19.591  0.00  0.00    +0.000 C 
ATOM      5  C   UNL     1      -0.068  10.317  19.705  0.00  0.00    +0.000 C 
ATOM      6  N   UNL     1      -0.435  10.443  21.121  0.00  0.00    +0.000 N 
ATOM      7  C   UNL     1      -1.165  11.488  21.600  0.00  0.00    +0.000 A 
ATOM      8  N   UNL     1      -1.865  11.452  22.716  0.00  0.00    +0.000 NA
ATOM      9  C   UNL     1      -2.459  12.676  22.979  0.00  0.00    +0.000 A 
ATOM     10  C   UNL     1      -3.284  12.989  24.080  0.00  0.00    +0.000 A 
ATOM     11  C   UNL     1      -3.811  14.281  24.209  0.00  0.00    +0.000 A 
ATOM     12  C   UNL     1      -3.521  15.256  23.260  0.00  0.00    +0.000 A 
ATOM     13 CL   UNL     1      -4.174  16.839  23.434  0.00  0.00    +0.000 Cl
ATOM     14  C   UNL     1      -2.707  14.975  22.164  0.00  0.00    +0.000 A 
ATOM     15  C   UNL     1      -2.192  13.676  22.047  0.00  0.00    +0.000 A 
ATOM     16  S   UNL     1      -1.180  13.039  20.827  0.00  0.00    +0.000 S 
ATOM     17  C   UNL     1      -0.390   9.173  21.866  0.00  0.00    +0.000 C 
ATOM     18  C   UNL     1       1.018   8.550  21.737  0.00  0.00    +0.000 C 
ENDROOT
BRANCH   2  19
ATOM     19  C   UNL     1       2.552   7.315  18.424  0.00  0.00    +0.000 C 
BRANCH  19  20
ATOM     20  C   UNL     1       2.510   5.912  17.818  0.00  0.00    +0.000 C 
BRANCH  20  21
ATOM     21  C   UNL     1       3.889   5.416  17.384  0.00  0.00    +0.000 C 
BRANCH  21  22
ATOM     22  S   UNL     1       3.843   3.589  17.355  0.00  0.00    +0.000 S 
BRANCH  22  23
ATOM     23  C   UNL     1       2.872   3.161  18.788  0.00  0.00    +0.000 A 
ATOM     24  C   UNL     1       3.556   3.037  20.008  0.00  0.00    +0.000 A 
ATOM     25  C   UNL     1       2.864   2.796  21.197  0.00  0.00    +0.000 A 
ATOM     26  C   UNL     1       1.481   2.685  21.168  0.00  0.00    +0.000 A 
ATOM     27  F   UNL     1       0.810   2.476  22.307  0.00  0.00    +0.000 F 
ATOM     28  C   UNL     1       0.783   2.802  19.972  0.00  0.00    +0.000 A 
ATOM     29  C   UNL     1       1.478   3.044  18.782  0.00  0.00    +0.000 A 
ENDBRANCH  22  23
ENDBRANCH  21  22
ENDBRANCH  20  21
ENDBRANCH  19  20
ENDBRANCH   2  19
TORSDOF 5
ENDMDL
MODEL 3
REMARK VINA RESULT:      -7.5      2.987      3.921
REMARK  Name = 
REMARK  5 active torsions:
REMARK  status: ('A' for Active; 'I' for Inactive)
REMARK    1  A    between atoms: C_2  and  C_3
REMARK    2  A    between atoms: C_3  and  C_4
REMARK    3  A    between atoms: C_4  and  C_5
REMARK    4  A    between atoms: C_5  and  S_6
REMARK    5  A    between atoms: S_6  and  C_7
REMARK                            x       y       z     vdW  Elec       q    Type
REMARK                         _______ _______ _______ _____ _____    ______ ____
ROOT
ATOM      1  O   UNL     1       2.544   6.150  19.953  0.00  0.00    +0.000 OA
ATOM      2  C   UNL     1       2.414   7.152  19.250  0.00  0.00    +0.000 C 
ATOM      3  N   UNL     1       1.803   8.298  19.725  0.00  0.00    +0.000 N 
ATOM      4  C   UNL     1       1.668   9.562  18.993  0.00  0.00    +0.000 C 
ATOM      5  C   UNL     1       0.241  10.124  19.114  0.00  0.00    +0.000 C 
ATOM      6  N   UNL     1      -0.126  10.233  20.531  0.00  0.00    +0.000 N 
ATOM      7  C   UNL     1      -0.871  11.263  21.019  0.00  0.00    +0.000 A 
ATOM      8  N   UNL     1      -1.569  11.207  22.136  0.00  0.00    +0.000 NA
ATOM      9  C   UNL     1      -2.181  12.419  22.409  0.00  0.00    +0.000 A 
ATOM     10  C   UNL     1      -3.010  12.711  23.514  0.00  0.00    +0.000 A 
ATOM     11  C   UNL     1      -3.556  13.994  23.655  0.00  0.00    +0.000 A 
ATOM     12  C   UNL     1      -3.281  14.981  22.713  0.00  0.00    +0.000 A 
ATOM     13 CL   UNL     1      -3.958  16.552  22.902  0.00  0.00    +0.000 Cl
ATOM     14  C   UNL     1      -2.464  14.722  21.615  0.00  0.00    +0.000 A 
ATOM     15  C   UNL     1      -1.930  13.431  21.486  0.00  0.00    +0.000 A 
ATOM     16  S   UNL     1      -0.910  12.820  20.260  0.00  0.00    +0.000 S 
ATOM     17  C   UNL     1      -0.061   8.957  21.265  0.00  0.00    +0.000 C 
ATOM     18  C   UNL     1       1.355   8.357  21.130  0.00  0.00    +0.000 C 
ENDROOT
BRANCH   2  19
ATOM     19  C   UNL     1       2.904   7.173  17.805  0.00  0.00    +0.000 C 
BRANCH  19  20
ATOM     20  C   UNL     1       4.380   6.781  17.710  0.00  0.00    +0.000 C 
BRANCH  20  21
ATOM     21  C   UNL     1       4.754   6.226  16.336  0.00  0.00    +0.000 C 
BRANCH  21  22
ATOM     22  S   UNL     1       5.391   4.528  16.574  0.00  0.00    +0.000 S 
BRANCH  22  23
ATOM     23  C   UNL     1       4.249   3.801  17.735  0.00  0.00    +0.000 A 
ATOM     24  C   UNL     1       2.966   3.489  17.258  0.00  0.00    +0.000 A 
ATOM     25  C   UNL     1       2.038   2.833  18.070  0.00  0.00    +0.000 A 
ATOM     26  C   UNL     1       2.397   2.482  19.364  0.00  0.00    +0.000 A 
ATOM     27  F   UNL     1       1.520   1.834  20.141  0.00  0.00    +0.000 F 
ATOM     28  C   UNL     1       3.660   2.782  19.858  0.00  0.00    +0.000 A 
ATOM     29  C   UNL     1       4.588   3.438  19.043  0.00  0.00    +0.000 A 
ENDBRANCH  22  23
ENDBRANCH  21  22
ENDBRANCH  20  21
ENDBRANCH  19  20
ENDBRANCH   2  19
TORSDOF 5
ENDMDL
MODEL 4
REMARK VINA RESULT:      -7.5      3.165      4.262
REMARK  Name = 
REMARK  5 active torsions:
REMARK  status: ('A' for Active; 'I' for Inactive)
REMARK    1  A    between atoms: C_2  and  C_3
REMARK    2  A    between atoms: C_3  and  C_4
REMARK    3  A    between atoms: C_4  and  C_5
REMARK    4  A    between atoms: C_5  and  S_6
REMARK    5  A    between atoms: S_6  and  C_7
REMARK                            x       y       z     vdW  Elec       q    Type
REMARK                         _______ _______ _______ _____ _____    ______ ____
ROOT
ATOM      1  O   UNL     1       2.474   6.372  20.078  0.00  0.00    +0.000 OA
ATOM      2  C   UNL     1       2.296   7.380  19.395  0.00  0.00    +0.000 C 
ATOM      3  N   UNL     1       1.648   8.494  19.899  0.00  0.00    +0.000 N 
ATOM      4  C   UNL     1       1.455   9.765  19.192  0.00  0.00    +0.000 C 
ATOM      5  C   UNL     1       0.010  10.269  19.342  0.00  0.00    +0.000 C 
ATOM      6  N   UNL     1      -0.341  10.340  20.766  0.00  0.00    +0.000 N 
ATOM      7  C   UNL     1      -1.117  11.332  21.282  0.00  0.00    +0.000 A 
ATOM      8  N   UNL     1      -1.797  11.230  22.407  0.00  0.00    +0.000 NA
ATOM      9  C   UNL     1      -2.450  12.413  22.711  0.00  0.00    +0.000 A 
ATOM     10  C   UNL     1      -3.273  12.653  23.832  0.00  0.00    +0.000 A 
ATOM     11  C   UNL     1      -3.866  13.912  24.003  0.00  0.00    +0.000 A 
ATOM     12  C   UNL     1      -3.642  14.925  23.076  0.00  0.00    +0.000 A 
ATOM     13 CL   UNL     1      -4.376  16.466  23.301  0.00  0.00    +0.000 Cl
ATOM     14  C   UNL     1      -2.832  14.716  21.961  0.00  0.00    +0.000 A 
ATOM     15  C   UNL     1      -2.251  13.449  21.802  0.00  0.00    +0.000 A 
ATOM     16  S   UNL     1      -1.226  12.899  20.551  0.00  0.00    +0.000 S 
ATOM     17  C   UNL     1      -0.217   9.055  21.476  0.00  0.00    +0.000 C 
ATOM     18  C   UNL     1       1.219   8.512  21.310  0.00  0.00    +0.000 C 
ENDROOT
BRANCH   2  19
ATOM     19  C   UNL     1       2.764   7.446  17.944  0.00  0.00    +0.000 C 
BRANCH  19  20
ATOM     20  C   UNL     1       4.215   6.983  17.805  0.00  0.00    +0.000 C 
BRANCH  20  21
ATOM     21  C   UNL     1       4.474   6.243  16.492  0.00  0.00    +0.000 C 
BRANCH  21  22
ATOM     22  S   UNL     1       5.089   4.571  16.905  0.00  0.00    +0.000 S 
BRANCH  22  23
ATOM     23  C   UNL     1       3.780   3.863  17.888  0.00  0.00    +0.000 A 
ATOM     24  C   UNL     1       4.122   3.407  19.171  0.00  0.00    +0.000 A 
ATOM     25  C   UNL     1       3.145   2.923  20.044  0.00  0.00    +0.000 A 
ATOM     26  C   UNL     1       1.819   2.901  19.635  0.00  0.00    +0.000 A 
ATOM     27  F   UNL     1       0.875   2.459  20.475  0.00  0.00    +0.000 F 
ATOM     28  C   UNL     1       1.458   3.346  18.369  0.00  0.00    +0.000 A 
ATOM     29  C   UNL     1       2.437   3.831  17.496  0.00  0.00    +0.000 A 
ENDBRANCH  22  23
ENDBRANCH  21  22
ENDBRANCH  20  21
ENDBRANCH  19  20
ENDBRANCH   2  19
TORSDOF 5
ENDMDL
MODEL 5
REMARK VINA RESULT:      -7.5      1.191      1.422
REMARK  Name = 
REMARK  5 active torsions:
REMARK  status: ('A' for Active; 'I' for Inactive)
REMARK    1  A    between atoms: C_2  and  C_3
REMARK    2  A    between atoms: C_3  and  C_4
REMARK    3  A    between atoms: C_4  and  C_5
REMARK    4  A    between atoms: C_5  and  S_6
REMARK    5  A    between atoms: S_6  and  C_7
REMARK                            x       y       z     vdW  Elec       q    Type
REMARK                         _______ _______ _______ _____ _____    ______ ____
ROOT
ATOM      1  O   UNL     1       2.147   5.496  20.513  0.00  0.00    +0.000 OA
ATOM      2  C   UNL     1       2.167   6.390  19.667  0.00  0.00    +0.000 C 
ATOM      3  N   UNL     1       1.908   7.708  19.997  0.00  0.00    +0.000 N 
ATOM      4  C   UNL     1       1.982   8.851  19.079  0.00  0.00    +0.000 C 
ATOM      5  C   UNL     1       0.754   9.765  19.232  0.00  0.00    +0.000 C 
ATOM      6  N   UNL     1       0.608  10.160  20.638  0.00  0.00    +0.000 N 
ATOM      7  C   UNL     1       0.195  11.403  21.012  0.00  0.00    +0.000 A 
ATOM      8  N   UNL     1      -0.348  11.682  22.180  0.00  0.00    +0.000 NA
ATOM      9  C   UNL     1      -0.617  13.035  22.301  0.00  0.00    +0.000 A 
ATOM     10  C   UNL     1      -1.205  13.678  23.411  0.00  0.00    +0.000 A 
ATOM     11  C   UNL     1      -1.412  15.064  23.384  0.00  0.00    +0.000 A 
ATOM     12  C   UNL     1      -1.036  15.808  22.270  0.00  0.00    +0.000 A 
ATOM     13 CL   UNL     1      -1.295  17.509  22.253  0.00  0.00    +0.000 Cl
ATOM     14  C   UNL     1      -0.451  15.200  21.161  0.00  0.00    +0.000 A 
ATOM     15  C   UNL     1      -0.256  13.811  21.202  0.00  0.00    +0.000 A 
ATOM     16  S   UNL     1       0.426  12.797  20.009  0.00  0.00    +0.000 S 
ATOM     17  C   UNL     1       0.465   9.026  21.567  0.00  0.00    +0.000 C 
ATOM     18  C   UNL     1       1.671   8.074  21.406  0.00  0.00    +0.000 C 
ENDROOT
BRANCH   2  19
ATOM     19  C   UNL     1       2.459   6.085  18.201  0.00  0.00    +0.000 C 
BRANCH  19  20
ATOM     20  C   UNL     1       2.238   4.605  17.884  0.00  0.00    +0.000 C 
BRANCH  20  21
ATOM     21  C   UNL     1       3.517   3.777  18.015  0.00  0.00    +0.000 C 
BRANCH  21  22
ATOM     22  S   UNL     1       4.577   4.155  16.575  0.00  0.00    +0.000 S 
BRANCH  22  23
ATOM     23  C   UNL     1       5.900   5.134  17.261  0.00  0.00    +0.000 A 
ATOM     24  C   UNL     1       6.130   6.392  16.681  0.00  0.00    +0.000 A 
ATOM     25  C   UNL     1       7.083   7.264  17.213  0.00  0.00    +0.000 A 
ATOM     26  C   UNL     1       7.806   6.879  18.333  0.00  0.00    +0.000 A 
ATOM     27  F   UNL     1       8.705   7.719  18.860  0.00  0.00    +0.000 F 
ATOM     28  C   UNL     1       7.597   5.639  18.923  0.00  0.00    +0.000 A 
ATOM     29  C   UNL     1       6.642   4.767  18.390  0.00  0.00    +0.000 A 
ENDBRANCH  22  23
ENDBRANCH  21  22
ENDBRANCH  20  21
ENDBRANCH  19  20
ENDBRANCH   2  19
TORSDOF 5
ENDMDL
MODEL 6
REMARK VINA RESULT:      -7.3      2.635      3.362
REMARK  Name = 
REMARK  5 active torsions:
REMARK  status: ('A' for Active; 'I' for Inactive)
REMARK    1  A    between atoms: C_2  and  C_3
REMARK    2  A    between atoms: C_3  and  C_4
REMARK    3  A    between atoms: C_4  and  C_5
REMARK    4  A    between atoms: C_5  and  S_6
REMARK    5  A    between atoms: S_6  and  C_7
REMARK                            x       y       z     vdW  Elec       q    Type
REMARK                         _______ _______ _______ _____ _____    ______ ____
ROOT
ATOM      1  O   UNL     1       3.006   7.383  17.896  0.00  0.00    +0.000 OA
ATOM      2  C   UNL     1       2.551   7.213  19.027  0.00  0.00    +0.000 C 
ATOM      3  N   UNL     1       1.674   8.116  19.601  0.00  0.00    +0.000 N 
ATOM      4  C   UNL     1       1.022   7.965  20.906  0.00  0.00    +0.000 C 
ATOM      5  C   UNL     1       1.102   9.267  21.721  0.00  0.00    +0.000 C 
ATOM      6  N   UNL     1       0.560  10.377  20.928  0.00  0.00    +0.000 N 
ATOM      7  C   UNL     1      -0.174  11.383  21.479  0.00  0.00    +0.000 A 
ATOM      8  N   UNL     1      -0.320  12.575  20.937  0.00  0.00    +0.000 NA
ATOM      9  C   UNL     1      -1.163  13.373  21.692  0.00  0.00    +0.000 A 
ATOM     10  C   UNL     1      -1.531  14.707  21.412  0.00  0.00    +0.000 A 
ATOM     11  C   UNL     1      -2.402  15.385  22.276  0.00  0.00    +0.000 A 
ATOM     12  C   UNL     1      -2.908  14.747  23.404  0.00  0.00    +0.000 A 
ATOM     13 CL   UNL     1      -3.979  15.593  24.454  0.00  0.00    +0.000 Cl
ATOM     14  C   UNL     1      -2.565  13.430  23.703  0.00  0.00    +0.000 A 
ATOM     15  C   UNL     1      -1.688  12.768  22.832  0.00  0.00    +0.000 A 
ATOM     16  S   UNL     1      -1.090  11.172  22.935  0.00  0.00    +0.000 S 
ATOM     17  C   UNL     1       1.248  10.586  19.643  0.00  0.00    +0.000 C 
ATOM     18  C   UNL     1       1.211   9.279  18.820  0.00  0.00    +0.000 C 
ENDROOT
BRANCH   2  19
ATOM     19  C   UNL     1       2.950   6.003  19.865  0.00  0.00    +0.000 C 
BRANCH  19  20
ATOM     20  C   UNL     1       2.087   4.784  19.532  0.00  0.00    +0.000 C 
BRANCH  20  21
ATOM     21  C   UNL     1       2.851   3.720  18.744  0.00  0.00    +0.000 C 
BRANCH  21  22
ATOM     22  S   UNL     1       4.621   3.865  19.178  0.00  0.00    +0.000 S 
BRANCH  22  23
ATOM     23  C   UNL     1       5.407   4.301  17.638  0.00  0.00    +0.000 A 
ATOM     24  C   UNL     1       6.785   4.570  17.678  0.00  0.00    +0.000 A 
ATOM     25  C   UNL     1       7.499   4.828  16.506  0.00  0.00    +0.000 A 
ATOM     26  C   UNL     1       6.835   4.812  15.288  0.00  0.00    +0.000 A 
ATOM     27  F   UNL     1       7.519   5.037  14.159  0.00  0.00    +0.000 F 
ATOM     28  C   UNL     1       5.473   4.550  15.224  0.00  0.00    +0.000 A 
ATOM     29  C   UNL     1       4.758   4.291  16.398  0.00  0.00    +0.000 A 
ENDBRANCH  22  23
ENDBRANCH  21  22
ENDBRANCH  20  21
ENDBRANCH  19  20
ENDBRANCH   2  19
TORSDOF 5
ENDMDL
MODEL 7
REMARK VINA RESULT:      -7.3      1.303      1.632
REMARK  Name = 
REMARK  5 active torsions:
REMARK  status: ('A' for Active; 'I' for Inactive)
REMARK    1  A    between atoms: C_2  and  C_3
REMARK    2  A    between atoms: C_3  and  C_4
REMARK    3  A    between atoms: C_4  and  C_5
REMARK    4  A    between atoms: C_5  and  S_6
REMARK    5  A    between atoms: S_6  and  C_7
REMARK                            x       y       z     vdW  Elec       q    Type
REMARK                         _______ _______ _______ _____ _____    ______ ____
ROOT
ATOM      1  O   UNL     1       1.781   6.061  20.564  0.00  0.00    +0.000 OA
ATOM      2  C   UNL     1       2.027   6.811  19.619  0.00  0.00    +0.000 C 
ATOM      3  N   UNL     1       1.746   8.165  19.676  0.00  0.00    +0.000 N 
ATOM      4  C   UNL     1       2.070   9.150  18.638  0.00  0.00    +0.000 C 
ATOM      5  C   UNL     1       0.874  10.076  18.360  0.00  0.00    +0.000 C 
ATOM      6  N   UNL     1       0.421  10.686  19.616  0.00  0.00    +0.000 N 
ATOM      7  C   UNL     1      -0.022  11.971  19.690  0.00  0.00    +0.000 A 
ATOM      8  N   UNL     1      -0.809  12.429  20.644  0.00  0.00    +0.000 NA
ATOM      9  C   UNL     1      -1.051  13.784  20.491  0.00  0.00    +0.000 A 
ATOM     10  C   UNL     1      -1.855  14.591  21.323  0.00  0.00    +0.000 A 
ATOM     11  C   UNL     1      -2.001  15.956  21.038  0.00  0.00    +0.000 A 
ATOM     12  C   UNL     1      -1.352  16.517  19.943  0.00  0.00    +0.000 A 
ATOM     13 CL   UNL     1      -1.539  18.195  19.607  0.00  0.00    +0.000 Cl
ATOM     14  C   UNL     1      -0.549  15.744  19.106  0.00  0.00    +0.000 A 
ATOM     15  C   UNL     1      -0.419  14.379  19.402  0.00  0.00    +0.000 A 
ATOM     16  S   UNL     1       0.483  13.192  18.569  0.00  0.00    +0.000 S 
ATOM     17  C   UNL     1       0.028   9.710  20.647  0.00  0.00    +0.000 C 
ATOM     18  C   UNL     1       1.204   8.746  20.919  0.00  0.00    +0.000 C 
ENDROOT
BRANCH   2  19
ATOM     19  C   UNL     1       2.638   6.281  18.326  0.00  0.00    +0.000 C 
BRANCH  19  20
ATOM     20  C   UNL     1       2.162   4.859  18.026  0.00  0.00    +0.000 C 
BRANCH  20  21
ATOM     21  C   UNL     1       3.261   3.815  18.230  0.00  0.00    +0.000 C 
BRANCH  21  22
ATOM     22  S   UNL     1       4.433   3.958  16.834  0.00  0.00    +0.000 S 
BRANCH  22  23
ATOM     23  C   UNL     1       5.663   5.108  17.422  0.00  0.00    +0.000 A 
ATOM     24  C   UNL     1       6.208   4.864  18.693  0.00  0.00    +0.000 A 
ATOM     25  C   UNL     1       7.242   5.658  19.194  0.00  0.00    +0.000 A 
ATOM     26  C   UNL     1       7.736   6.698  18.420  0.00  0.00    +0.000 A 
ATOM     27  F   UNL     1       8.741   7.450  18.886  0.00  0.00    +0.000 F 
ATOM     28  C   UNL     1       7.210   6.960  17.161  0.00  0.00    +0.000 A 
ATOM     29  C   UNL     1       6.176   6.163  16.660  0.00  0.00    +0.000 A 
ENDBRANCH  22  23
ENDBRANCH  21  22
ENDBRANCH  20  21
ENDBRANCH  19  20
ENDBRANCH   2  19
TORSDOF 5
ENDMDL
MODEL 8
REMARK VINA RESULT:      -7.3      2.701      3.613
REMARK  Name = 
REMARK  5 active torsions:
REMARK  status: ('A' for Active; 'I' for Inactive)
REMARK    1  A    between atoms: C_2  and  C_3
REMARK    2  A    between atoms: C_3  and  C_4
REMARK    3  A    between atoms: C_4  and  C_5
REMARK    4  A    between atoms: C_5  and  S_6
REMARK    5  A    between atoms: S_6  and  C_7
REMARK                            x       y       z     vdW  Elec       q    Type
REMARK                         _______ _______ _______ _____ _____    ______ ____
ROOT
ATOM      1  O   UNL     1       2.526   8.745  17.293  0.00  0.00    +0.000 OA
ATOM      2  C   UNL     1       2.106   8.448  18.411  0.00  0.00    +0.000 C 
ATOM      3  N   UNL     1       1.279   9.296  19.125  0.00  0.00    +0.000 N 
ATOM      4  C   UNL     1       0.668   9.001  20.426  0.00  0.00    +0.000 C 
ATOM      5  C   UNL     1       0.818  10.189  21.391  0.00  0.00    +0.000 C 
ATOM      6  N   UNL     1       0.285  11.404  20.763  0.00  0.00    +0.000 N 
ATOM      7  C   UNL     1      -0.397  12.354  21.462  0.00  0.00    +0.000 A 
ATOM      8  N   UNL     1      -0.523  13.608  21.077  0.00  0.00    +0.000 NA
ATOM      9  C   UNL     1      -1.314  14.329  21.956  0.00  0.00    +0.000 A 
ATOM     10  C   UNL     1      -1.647  15.696  21.858  0.00  0.00    +0.000 A 
ATOM     11  C   UNL     1      -2.466  16.285  22.831  0.00  0.00    +0.000 A 
ATOM     12  C   UNL     1      -2.953  15.527  23.891  0.00  0.00    +0.000 A 
ATOM     13 CL   UNL     1      -3.958  16.264  25.078  0.00  0.00    +0.000 Cl
ATOM     14  C   UNL     1      -2.642  14.173  24.012  0.00  0.00    +0.000 A 
ATOM     15  C   UNL     1      -1.817  13.601  23.032  0.00  0.00    +0.000 A 
ATOM     16  S   UNL     1      -1.268  11.988  22.915  0.00  0.00    +0.000 S 
ATOM     17  C   UNL     1       0.934  11.752  19.487  0.00  0.00    +0.000 C 
ATOM     18  C   UNL     1       0.826  10.559  18.512  0.00  0.00    +0.000 C 
ENDROOT
BRANCH   2  19
ATOM     19  C   UNL     1       2.494   7.132  19.077  0.00  0.00    +0.000 C 
BRANCH  19  20
ATOM     20  C   UNL     1       2.547   5.987  18.064  0.00  0.00    +0.000 C 
BRANCH  20  21
ATOM     21  C   UNL     1       2.322   4.619  18.709  0.00  0.00    +0.000 C 
BRANCH  21  22
ATOM     22  S   UNL     1       3.904   4.086  19.456  0.00  0.00    +0.000 S 
BRANCH  22  23
ATOM     23  C   UNL     1       5.090   4.289  18.140  0.00  0.00    +0.000 A 
ATOM     24  C   UNL     1       4.795   3.670  16.915  0.00  0.00    +0.000 A 
ATOM     25  C   UNL     1       5.620   3.851  15.802  0.00  0.00    +0.000 A 
ATOM     26  C   UNL     1       6.742   4.661  15.913  0.00  0.00    +0.000 A 
ATOM     27  F   UNL     1       7.524   4.856  14.845  0.00  0.00    +0.000 F 
ATOM     28  C   UNL     1       7.054   5.282  17.116  0.00  0.00    +0.000 A 
ATOM     29  C   UNL     1       6.227   5.100  18.229  0.00  0.00    +0.000 A 
ENDBRANCH  22  23
ENDBRANCH  21  22
ENDBRANCH  20  21
ENDBRANCH  19  20
ENDBRANCH   2  19
TORSDOF 5
ENDMDL
MODEL 9
REMARK VINA RESULT:      -7.2      1.816      2.127
REMARK  Name = 
REMARK  5 active torsions:
REMARK  status: ('A' for Active; 'I' for Inactive)
REMARK    1  A    between atoms: C_2  and  C_3
REMARK    2  A    between atoms: C_3  and  C_4
REMARK    3  A    between atoms: C_4  and  C_5
REMARK    4  A    between atoms: C_5  and  S_6
REMARK    5  A    between atoms: S_6  and  C_7
REMARK                            x       y       z     vdW  Elec       q    Type
REMARK                         _______ _______ _______ _____ _____    ______ ____
ROOT
ATOM      1  O   UNL     1       2.002   5.672  20.585  0.00  0.00    +0.000 OA
ATOM      2  C   UNL     1       2.136   6.396  19.599  0.00  0.00    +0.000 C 
ATOM      3  N   UNL     1       1.882   7.755  19.656  0.00  0.00    +0.000 N 
ATOM      4  C   UNL     1       2.084   8.710  18.561  0.00  0.00    +0.000 C 
ATOM      5  C   UNL     1       0.874   9.648  18.414  0.00  0.00    +0.000 C 
ATOM      6  N   UNL     1       0.593  10.295  19.701  0.00  0.00    +0.000 N 
ATOM      7  C   UNL     1       0.179  11.588  19.798  0.00  0.00    +0.000 A 
ATOM      8  N   UNL     1      -0.474  12.081  20.832  0.00  0.00    +0.000 NA
ATOM      9  C   UNL     1      -0.716  13.436  20.678  0.00  0.00    +0.000 A 
ATOM     10  C   UNL     1      -1.397  14.275  21.584  0.00  0.00    +0.000 A 
ATOM     11  C   UNL     1      -1.560  15.635  21.285  0.00  0.00    +0.000 A 
ATOM     12  C   UNL     1      -1.049  16.160  20.103  0.00  0.00    +0.000 A 
ATOM     13 CL   UNL     1      -1.256  17.832  19.751  0.00  0.00    +0.000 Cl
ATOM     14  C   UNL     1      -0.369  15.355  19.191  0.00  0.00    +0.000 A 
ATOM     15  C   UNL     1      -0.220  13.995  19.502  0.00  0.00    +0.000 A 
ATOM     16  S   UNL     1       0.554  12.774  18.592  0.00  0.00    +0.000 S 
ATOM     17  C   UNL     1       0.322   9.349  20.798  0.00  0.00    +0.000 C 
ATOM     18  C   UNL     1       1.510   8.374  20.943  0.00  0.00    +0.000 C 
ENDROOT
BRANCH   2  19
ATOM     19  C   UNL     1       2.570   5.826  18.252  0.00  0.00    +0.000 C 
BRANCH  19  20
ATOM     20  C   UNL     1       1.798   4.551  17.910  0.00  0.00    +0.000 C 
BRANCH  20  21
ATOM     21  C   UNL     1       2.688   3.470  17.297  0.00  0.00    +0.000 C 
BRANCH  21  22
ATOM     22  S   UNL     1       4.305   3.527  18.149  0.00  0.00    +0.000 S 
BRANCH  22  23
ATOM     23  C   UNL     1       5.444   4.030  16.873  0.00  0.00    +0.000 A 
ATOM     24  C   UNL     1       5.086   3.738  15.547  0.00  0.00    +0.000 A 
ATOM     25  C   UNL     1       5.872   4.175  14.479  0.00  0.00    +0.000 A 
ATOM     26  C   UNL     1       7.019   4.914  14.737  0.00  0.00    +0.000 A 
ATOM     27  F   UNL     1       7.765   5.355  13.716  0.00  0.00    +0.000 F 
ATOM     28  C   UNL     1       7.394   5.213  16.041  0.00  0.00    +0.000 A 
ATOM     29  C   UNL     1       6.605   4.775  17.109  0.00  0.00    +0.000 A 
ENDBRANCH  22  23
ENDBRANCH  21  22
ENDBRANCH  20  21
ENDBRANCH  19  20
ENDBRANCH   2  19
TORSDOF 5
ENDMDL
