MODEL 1
REMARK VINA RESULT:      -7.0      0.000      0.000
REMARK  Name = 
REMARK  5 active torsions:
REMARK  status: ('A' for Active; 'I' for Inactive)
REMARK    1  A    between atoms: C_10  and  O_11
REMARK    2  A    between atoms: O_11  and  C_12
REMARK    3  A    between atoms: C_12  and  C_13
REMARK    4  A    between atoms: C_13  and  O_14
REMARK    5  A    between atoms: C_16  and  C_17
REMARK                            x       y       z     vdW  Elec       q    Type
REMARK                         _______ _______ _______ _____ _____    ______ ____
ROOT
ATOM      1  O   UNL     1       4.628   1.708  16.920  0.00  0.00    +0.000 OA
ATOM      2  C   UNL     1       3.910   2.399  17.630  0.00  0.00    +0.000 C 
ATOM      3  N   UNL     1       3.018   1.872  18.569  0.00  0.00    +0.000 N 
ATOM      4  C   UNL     1       2.379   2.859  19.286  0.00  0.00    +0.000 A 
ATOM      5  C   UNL     1       1.449   2.771  20.306  0.00  0.00    +0.000 A 
ATOM      6  C   UNL     1       0.998   3.999  20.821  0.00  0.00    +0.000 A 
ATOM      7  C   UNL     1       1.468   5.227  20.315  0.00  0.00    +0.000 A 
ATOM      8  F   UNL     1       0.983   6.356  20.853  0.00  0.00    +0.000 F 
ATOM      9  C   UNL     1       2.418   5.284  19.269  0.00  0.00    +0.000 A 
ATOM     10  C   UNL     1       2.979   6.407  18.627  0.00  0.00    +0.000 A 
ATOM     11  C   UNL     1       3.935   6.219  17.606  0.00  0.00    +0.000 A 
ATOM     12  C   UNL     1       4.345   4.935  17.156  0.00  0.00    +0.000 A 
ATOM     13  C   UNL     1       3.759   3.837  17.799  0.00  0.00    +0.000 A 
ATOM     14  C   UNL     1       2.833   4.069  18.810  0.00  0.00    +0.000 A 
ATOM     15  H   UNL     1       2.899   0.877  18.693  0.00  0.00    +0.000 HD
ENDROOT
BRANCH  12  16
ATOM     16  C   UNL     1       5.306   4.788  16.066  0.00  0.00    +0.000 A 
ATOM     17  C   UNL     1       6.615   5.240  15.966  0.00  0.00    +0.000 A 
ATOM     18  C   UNL     1       7.134   4.832  14.713  0.00  0.00    +0.000 A 
ATOM     19  C   UNL     1       6.142   4.136  14.070  0.00  0.00    +0.000 A 
ATOM     20  N   UNL     1       5.042   4.123  14.887  0.00  0.00    +0.000 N 
ATOM     21  H   UNL     1       4.142   3.731  14.631  0.00  0.00    +0.000 HD
ENDBRANCH  12  16
BRANCH  10  22
ATOM     22  O   UNL     1       2.559   7.634  19.068  0.00  0.00    +0.000 OA
BRANCH  22  23
ATOM     23  C   UNL     1       2.129   8.567  18.068  0.00  0.00    +0.000 C 
BRANCH  23  24
ATOM     24  C   UNL     1       1.186   9.568  18.733  0.00  0.00    +0.000 C 
BRANCH  24  25
ATOM     25  O   UNL     1       0.250  10.089  17.795  0.00  0.00    +0.000 OA
ATOM     26  H   UNL     1      -0.309  10.715  18.294  0.00  0.00    +0.000 HD
ENDBRANCH  24  25
ENDBRANCH  23  24
ENDBRANCH  22  23
ENDBRANCH  10  22
TORSDOF 5
ENDMDL
MODEL 2
REMARK VINA RESULT:      -6.9      2.980      5.594
REMARK  Name = 
REMARK  5 active torsions:
REMARK  status: ('A' for Active; 'I' for Inactive)
REMARK    1  A    between atoms: C_10  and  O_11
REMARK    2  A    between atoms: O_11  and  C_12
REMARK    3  A    between atoms: C_12  and  C_13
REMARK    4  A    between atoms: C_13  and  O_14
REMARK    5  A    between atoms: C_16  and  C_17
REMARK                            x       y       z     vdW  Elec       q    Type
REMARK                         _______ _______ _______ _____ _____    ______ ____
ROOT
ATOM      1  O   UNL     1       0.530   4.885  20.602  0.00  0.00    +0.000 OA
ATOM      2  C   UNL     1       1.437   4.567  19.844  0.00  0.00    +0.000 C 
ATOM      3  N   UNL     1       1.707   3.245  19.478  0.00  0.00    +0.000 N 
ATOM      4  C   UNL     1       2.732   3.161  18.562  0.00  0.00    +0.000 A 
ATOM      5  C   UNL     1       3.293   2.062  17.937  0.00  0.00    +0.000 A 
ATOM      6  C   UNL     1       4.341   2.343  17.043  0.00  0.00    +0.000 A 
ATOM      7  C   UNL     1       4.783   3.662  16.817  0.00  0.00    +0.000 A 
ATOM      8  F   UNL     1       5.794   3.849  15.956  0.00  0.00    +0.000 F 
ATOM      9  C   UNL     1       4.190   4.766  17.474  0.00  0.00    +0.000 A 
ATOM     10  C   UNL     1       4.511   6.136  17.392  0.00  0.00    +0.000 A 
ATOM     11  C   UNL     1       3.761   7.073  18.136  0.00  0.00    +0.000 A 
ATOM     12  C   UNL     1       2.703   6.699  19.008  0.00  0.00    +0.000 A 
ATOM     13  C   UNL     1       2.417   5.329  19.084  0.00  0.00    +0.000 A 
ATOM     14  C   UNL     1       3.172   4.444  18.322  0.00  0.00    +0.000 A 
ATOM     15  H   UNL     1       1.177   2.469  19.847  0.00  0.00    +0.000 HD
ENDROOT
BRANCH  12  16
ATOM     16  C   UNL     1       1.982   7.698  19.793  0.00  0.00    +0.000 A 
ATOM     17  C   UNL     1       1.340   8.858  19.383  0.00  0.00    +0.000 A 
ATOM     18  C   UNL     1       0.777   9.484  20.521  0.00  0.00    +0.000 A 
ATOM     19  C   UNL     1       1.079   8.700  21.606  0.00  0.00    +0.000 A 
ATOM     20  N   UNL     1       1.812   7.632  21.161  0.00  0.00    +0.000 N 
ATOM     21  H   UNL     1       2.224   6.927  21.762  0.00  0.00    +0.000 HD
ENDBRANCH  12  16
BRANCH  10  22
ATOM     22  O   UNL     1       5.542   6.472  16.556  0.00  0.00    +0.000 OA
BRANCH  22  23
ATOM     23  C   UNL     1       6.649   7.169  17.143  0.00  0.00    +0.000 C 
BRANCH  23  24
ATOM     24  C   UNL     1       7.462   6.162  17.954  0.00  0.00    +0.000 C 
BRANCH  24  25
ATOM     25  O   UNL     1       8.244   6.818  18.946  0.00  0.00    +0.000 OA
ATOM     26  H   UNL     1       7.615   7.111  19.634  0.00  0.00    +0.000 HD
ENDBRANCH  24  25
ENDBRANCH  23  24
ENDBRANCH  22  23
ENDBRANCH  10  22
TORSDOF 5
ENDMDL
MODEL 3
REMARK VINA RESULT:      -6.9      2.401      4.533
REMARK  Name = 
REMARK  5 active torsions:
REMARK  status: ('A' for Active; 'I' for Inactive)
REMARK    1  A    between atoms: C_10  and  O_11
REMARK    2  A    between atoms: O_11  and  C_12
REMARK    3  A    between atoms: C_12  and  C_13
REMARK    4  A    between atoms: C_13  and  O_14
REMARK    5  A    between atoms: C_16  and  C_17
REMARK                            x       y       z     vdW  Elec       q    Type
REMARK                         _______ _______ _______ _____ _____    ______ ____
ROOT
ATOM      1  O   UNL     1       4.984   7.500  15.869  0.00  0.00    +0.000 OA
ATOM      2  C   UNL     1       4.400   6.926  16.778  0.00  0.00    +0.000 C 
ATOM      3  N   UNL     1       3.679   7.594  17.774  0.00  0.00    +0.000 N 
ATOM      4  C   UNL     1       3.060   6.719  18.639  0.00  0.00    +0.000 A 
ATOM      5  C   UNL     1       2.249   6.959  19.733  0.00  0.00    +0.000 A 
ATOM      6  C   UNL     1       1.780   5.815  20.401  0.00  0.00    +0.000 A 
ATOM      7  C   UNL     1       2.129   4.518  19.975  0.00  0.00    +0.000 A 
ATOM      8  F   UNL     1       1.648   3.476  20.670  0.00  0.00    +0.000 F 
ATOM      9  C   UNL     1       2.963   4.305  18.853  0.00  0.00    +0.000 A 
ATOM     10  C   UNL     1       3.432   3.095  18.301  0.00  0.00    +0.000 A 
ATOM     11  C   UNL     1       4.252   3.127  17.151  0.00  0.00    +0.000 A 
ATOM     12  C   UNL     1       4.667   4.335  16.530  0.00  0.00    +0.000 A 
ATOM     13  C   UNL     1       4.201   5.522  17.110  0.00  0.00    +0.000 A 
ATOM     14  C   UNL     1       3.384   5.444  18.232  0.00  0.00    +0.000 A 
ATOM     15  H   UNL     1       3.626   8.601  17.809  0.00  0.00    +0.000 HD
ENDROOT
BRANCH  12  16
ATOM     16  C   UNL     1       5.551   4.321  15.368  0.00  0.00    +0.000 A 
ATOM     17  C   UNL     1       5.365   3.755  14.114  0.00  0.00    +0.000 A 
ATOM     18  C   UNL     1       6.511   4.025  13.326  0.00  0.00    +0.000 A 
ATOM     19  C   UNL     1       7.376   4.753  14.105  0.00  0.00    +0.000 A 
ATOM     20  N   UNL     1       6.795   4.918  15.335  0.00  0.00    +0.000 N 
ATOM     21  H   UNL     1       7.245   5.364  16.127  0.00  0.00    +0.000 HD
ENDBRANCH  12  16
BRANCH  10  22
ATOM     22  O   UNL     1       3.030   1.944  18.924  0.00  0.00    +0.000 OA
BRANCH  22  23
ATOM     23  C   UNL     1       4.053   1.152  19.540  0.00  0.00    +0.000 C 
BRANCH  23  24
ATOM     24  C   UNL     1       4.608   1.940  20.725  0.00  0.00    +0.000 C 
BRANCH  24  25
ATOM     25  O   UNL     1       5.631   1.207  21.391  0.00  0.00    +0.000 OA
ATOM     26  H   UNL     1       5.171   0.573  21.974  0.00  0.00    +0.000 HD
ENDBRANCH  24  25
ENDBRANCH  23  24
ENDBRANCH  22  23
ENDBRANCH  10  22
TORSDOF 5
ENDMDL
MODEL 4
REMARK VINA RESULT:      -6.8      2.854      6.331
REMARK  Name = 
REMARK  5 active torsions:
REMARK  status: ('A' for Active; 'I' for Inactive)
REMARK    1  A    between atoms: C_10  and  O_11
REMARK    2  A    between atoms: O_11  and  C_12
REMARK    3  A    between atoms: C_12  and  C_13
REMARK    4  A    between atoms: C_13  and  O_14
REMARK    5  A    between atoms: C_16  and  C_17
REMARK                            x       y       z     vdW  Elec       q    Type
REMARK                         _______ _______ _______ _____ _____    ______ ____
ROOT
ATOM      1  O   UNL     1       2.678   9.361  17.742  0.00  0.00    +0.000 OA
ATOM      2  C   UNL     1       2.989   8.179  17.810  0.00  0.00    +0.000 C 
ATOM      3  N   UNL     1       3.781   7.534  16.854  0.00  0.00    +0.000 N 
ATOM      4  C   UNL     1       4.043   6.227  17.198  0.00  0.00    +0.000 A 
ATOM      5  C   UNL     1       4.789   5.258  16.550  0.00  0.00    +0.000 A 
ATOM      6  C   UNL     1       4.848   4.010  17.192  0.00  0.00    +0.000 A 
ATOM      7  C   UNL     1       4.179   3.775  18.409  0.00  0.00    +0.000 A 
ATOM      8  F   UNL     1       4.275   2.553  18.956  0.00  0.00    +0.000 F 
ATOM      9  C   UNL     1       3.421   4.785  19.047  0.00  0.00    +0.000 A 
ATOM     10  C   UNL     1       2.674   4.727  20.241  0.00  0.00    +0.000 A 
ATOM     11  C   UNL     1       2.003   5.882  20.699  0.00  0.00    +0.000 A 
ATOM     12  C   UNL     1       2.010   7.113  19.989  0.00  0.00    +0.000 A 
ATOM     13  C   UNL     1       2.745   7.138  18.797  0.00  0.00    +0.000 A 
ATOM     14  C   UNL     1       3.403   5.981  18.392  0.00  0.00    +0.000 A 
ATOM     15  H   UNL     1       4.120   8.011  16.032  0.00  0.00    +0.000 HD
ENDROOT
BRANCH  12  16
ATOM     16  C   UNL     1       1.266   8.271  20.479  0.00  0.00    +0.000 A 
ATOM     17  C   UNL     1       1.077   8.724  21.777  0.00  0.00    +0.000 A 
ATOM     18  C   UNL     1       0.287   9.899  21.730  0.00  0.00    +0.000 A 
ATOM     19  C   UNL     1       0.008  10.148  20.410  0.00  0.00    +0.000 A 
ATOM     20  N   UNL     1       0.592   9.158  19.664  0.00  0.00    +0.000 N 
ATOM     21  H   UNL     1       0.490   9.060  18.659  0.00  0.00    +0.000 HD
ENDBRANCH  12  16
BRANCH  10  22
ATOM     22  O   UNL     1       2.670   3.527  20.901  0.00  0.00    +0.000 OA
BRANCH  22  23
ATOM     23  C   UNL     1       1.420   2.830  20.968  0.00  0.00    +0.000 C 
BRANCH  23  24
ATOM     24  C   UNL     1       0.864   2.723  19.548  0.00  0.00    +0.000 C 
BRANCH  24  25
ATOM     25  O   UNL     1       1.332   1.541  18.906  0.00  0.00    +0.000 OA
ATOM     26  H   UNL     1       0.630   0.873  19.029  0.00  0.00    +0.000 HD
ENDBRANCH  24  25
ENDBRANCH  23  24
ENDBRANCH  22  23
ENDBRANCH  10  22
TORSDOF 5
ENDMDL
MODEL 5
REMARK VINA RESULT:      -6.6      2.241      4.089
REMARK  Name = 
REMARK  5 active torsions:
REMARK  status: ('A' for Active; 'I' for Inactive)
REMARK    1  A    between atoms: C_10  and  O_11
REMARK    2  A    between atoms: O_11  and  C_12
REMARK    3  A    between atoms: C_12  and  C_13
REMARK    4  A    between atoms: C_13  and  O_14
REMARK    5  A    between atoms: C_16  and  C_17
REMARK                            x       y       z     vdW  Elec       q    Type
REMARK                         _______ _______ _______ _____ _____    ______ ____
ROOT
ATOM      1  O   UNL     1       4.623   7.704  15.965  0.00  0.00    +0.000 OA
ATOM      2  C   UNL     1       4.079   7.253  16.964  0.00  0.00    +0.000 C 
ATOM      3  N   UNL     1       3.325   8.030  17.849  0.00  0.00    +0.000 N 
ATOM      4  C   UNL     1       2.764   7.273  18.853  0.00  0.00    +0.000 A 
ATOM      5  C   UNL     1       1.945   7.640  19.906  0.00  0.00    +0.000 A 
ATOM      6  C   UNL     1       1.550   6.594  20.758  0.00  0.00    +0.000 A 
ATOM      7  C   UNL     1       1.974   5.268  20.543  0.00  0.00    +0.000 A 
ATOM      8  F   UNL     1       1.561   4.327  21.404  0.00  0.00    +0.000 F 
ATOM      9  C   UNL     1       2.814   4.924  19.458  0.00  0.00    +0.000 A 
ATOM     10  C   UNL     1       3.352   3.671  19.102  0.00  0.00    +0.000 A 
ATOM     11  C   UNL     1       4.162   3.563  17.950  0.00  0.00    +0.000 A 
ATOM     12  C   UNL     1       4.501   4.676  17.135  0.00  0.00    +0.000 A 
ATOM     13  C   UNL     1       3.967   5.913  17.521  0.00  0.00    +0.000 A 
ATOM     14  C   UNL     1       3.162   5.970  18.654  0.00  0.00    +0.000 A 
ATOM     15  H   UNL     1       3.210   9.025  17.721  0.00  0.00    +0.000 HD
ENDROOT
BRANCH  12  16
ATOM     16  C   UNL     1       5.378   4.525  15.977  0.00  0.00    +0.000 A 
ATOM     17  C   UNL     1       5.172   3.840  14.788  0.00  0.00    +0.000 A 
ATOM     18  C   UNL     1       6.319   4.004  13.973  0.00  0.00    +0.000 A 
ATOM     19  C   UNL     1       7.205   4.786  14.671  0.00  0.00    +0.000 A 
ATOM     20  N   UNL     1       6.635   5.088  15.880  0.00  0.00    +0.000 N 
ATOM     21  H   UNL     1       7.099   5.600  16.622  0.00  0.00    +0.000 HD
ENDBRANCH  12  16
BRANCH  10  22
ATOM     22  O   UNL     1       3.024   2.615  19.909  0.00  0.00    +0.000 OA
BRANCH  22  23
ATOM     23  C   UNL     1       2.238   1.571  19.320  0.00  0.00    +0.000 C 
BRANCH  23  24
ATOM     24  C   UNL     1       1.017   2.214  18.664  0.00  0.00    +0.000 C 
BRANCH  24  25
ATOM     25  O   UNL     1       0.015   2.509  19.632  0.00  0.00    +0.000 OA
ATOM     26  H   UNL     1      -0.395   1.653  19.862  0.00  0.00    +0.000 HD
ENDBRANCH  24  25
ENDBRANCH  23  24
ENDBRANCH  22  23
ENDBRANCH  10  22
TORSDOF 5
ENDMDL
MODEL 6
REMARK VINA RESULT:      -6.5      1.945      4.859
REMARK  Name = 
REMARK  5 active torsions:
REMARK  status: ('A' for Active; 'I' for Inactive)
REMARK    1  A    between atoms: C_10  and  O_11
REMARK    2  A    between atoms: O_11  and  C_12
REMARK    3  A    between atoms: C_12  and  C_13
REMARK    4  A    between atoms: C_13  and  O_14
REMARK    5  A    between atoms: C_16  and  C_17
REMARK                            x       y       z     vdW  Elec       q    Type
REMARK                         _______ _______ _______ _____ _____    ______ ____
ROOT
ATOM      1  O   UNL     1       3.818   1.281  18.430  0.00  0.00    +0.000 OA
ATOM      2  C   UNL     1       4.125   2.321  17.861  0.00  0.00    +0.000 C 
ATOM      3  N   UNL     1       4.933   2.366  16.720  0.00  0.00    +0.000 N 
ATOM      4  C   UNL     1       5.071   3.648  16.236  0.00  0.00    +0.000 A 
ATOM      5  C   UNL     1       5.759   4.123  15.134  0.00  0.00    +0.000 A 
ATOM      6  C   UNL     1       5.688   5.512  14.929  0.00  0.00    +0.000 A 
ATOM      7  C   UNL     1       4.965   6.349  15.802  0.00  0.00    +0.000 A 
ATOM      8  F   UNL     1       4.952   7.666  15.545  0.00  0.00    +0.000 F 
ATOM      9  C   UNL     1       4.274   5.833  16.923  0.00  0.00    +0.000 A 
ATOM     10  C   UNL     1       3.527   6.512  17.907  0.00  0.00    +0.000 A 
ATOM     11  C   UNL     1       2.902   5.776  18.937  0.00  0.00    +0.000 A 
ATOM     12  C   UNL     1       3.016   4.365  19.060  0.00  0.00    +0.000 A 
ATOM     13  C   UNL     1       3.778   3.718  18.078  0.00  0.00    +0.000 A 
ATOM     14  C   UNL     1       4.363   4.480  17.074  0.00  0.00    +0.000 A 
ATOM     15  H   UNL     1       5.332   1.532  16.316  0.00  0.00    +0.000 HD
ENDROOT
BRANCH  12  16
ATOM     16  C   UNL     1       2.387   3.650  20.167  0.00  0.00    +0.000 A 
ATOM     17  C   UNL     1       1.063   3.639  20.583  0.00  0.00    +0.000 A 
ATOM     18  C   UNL     1       0.952   2.776  21.700  0.00  0.00    +0.000 A 
ATOM     19  C   UNL     1       2.204   2.271  21.948  0.00  0.00    +0.000 A 
ATOM     20  N   UNL     1       3.064   2.809  21.027  0.00  0.00    +0.000 N 
ATOM     21  H   UNL     1       4.066   2.657  21.021  0.00  0.00    +0.000 HD
ENDBRANCH  12  16
BRANCH  10  22
ATOM     22  O   UNL     1       3.441   7.873  17.777  0.00  0.00    +0.000 OA
BRANCH  22  23
ATOM     23  C   UNL     1       2.129   8.425  17.620  0.00  0.00    +0.000 C 
BRANCH  23  24
ATOM     24  C   UNL     1       2.098   9.775  18.334  0.00  0.00    +0.000 C 
BRANCH  24  25
ATOM     25  O   UNL     1       2.170  10.848  17.400  0.00  0.00    +0.000 OA
ATOM     26  H   UNL     1       2.058  10.444  16.518  0.00  0.00    +0.000 HD
ENDBRANCH  24  25
ENDBRANCH  23  24
ENDBRANCH  22  23
ENDBRANCH  10  22
TORSDOF 5
ENDMDL
MODEL 7
REMARK VINA RESULT:      -6.5      2.795      5.699
REMARK  Name = 
REMARK  5 active torsions:
REMARK  status: ('A' for Active; 'I' for Inactive)
REMARK    1  A    between atoms: C_10  and  O_11
REMARK    2  A    between atoms: O_11  and  C_12
REMARK    3  A    between atoms: C_12  and  C_13
REMARK    4  A    between atoms: C_13  and  O_14
REMARK    5  A    between atoms: C_16  and  C_17
REMARK                            x       y       z     vdW  Elec       q    Type
REMARK                         _______ _______ _______ _____ _____    ______ ____
ROOT
ATOM      1  O   UNL     1       0.774   6.856  21.301  0.00  0.00    +0.000 OA
ATOM      2  C   UNL     1       1.546   6.114  20.709  0.00  0.00    +0.000 C 
ATOM      3  N   UNL     1       1.828   4.807  21.121  0.00  0.00    +0.000 N 
ATOM      4  C   UNL     1       2.673   4.160  20.247  0.00  0.00    +0.000 A 
ATOM      5  C   UNL     1       3.179   2.873  20.271  0.00  0.00    +0.000 A 
ATOM      6  C   UNL     1       4.027   2.536  19.203  0.00  0.00    +0.000 A 
ATOM      7  C   UNL     1       4.338   3.463  18.188  0.00  0.00    +0.000 A 
ATOM      8  F   UNL     1       5.162   3.069  17.206  0.00  0.00    +0.000 F 
ATOM      9  C   UNL     1       3.807   4.774  18.192  0.00  0.00    +0.000 A 
ATOM     10  C   UNL     1       4.021   5.832  17.285  0.00  0.00    +0.000 A 
ATOM     11  C   UNL     1       3.361   7.064  17.484  0.00  0.00    +0.000 A 
ATOM     12  C   UNL     1       2.505   7.313  18.590  0.00  0.00    +0.000 A 
ATOM     13  C   UNL     1       2.323   6.251  19.485  0.00  0.00    +0.000 A 
ATOM     14  C   UNL     1       2.981   5.050  19.242  0.00  0.00    +0.000 A 
ATOM     15  H   UNL     1       1.422   4.413  21.957  0.00  0.00    +0.000 HD
ENDROOT
BRANCH  12  16
ATOM     16  C   UNL     1       1.877   8.618  18.780  0.00  0.00    +0.000 A 
ATOM     17  C   UNL     1       1.443   9.543  17.840  0.00  0.00    +0.000 A 
ATOM     18  C   UNL     1       0.890  10.652  18.525  0.00  0.00    +0.000 A 
ATOM     19  C   UNL     1       0.989  10.389  19.869  0.00  0.00    +0.000 A 
ATOM     20  N   UNL     1       1.593   9.168  20.014  0.00  0.00    +0.000 N 
ATOM     21  H   UNL     1       1.850   8.756  20.904  0.00  0.00    +0.000 HD
ENDBRANCH  12  16
BRANCH  10  22
ATOM     22  O   UNL     1       4.861   5.574  16.234  0.00  0.00    +0.000 OA
BRANCH  22  23
ATOM     23  C   UNL     1       6.193   6.093  16.329  0.00  0.00    +0.000 C 
BRANCH  23  24
ATOM     24  C   UNL     1       7.139   5.084  15.681  0.00  0.00    +0.000 C 
BRANCH  24  25
ATOM     25  O   UNL     1       7.937   4.429  16.661  0.00  0.00    +0.000 OA
ATOM     26  H   UNL     1       7.342   3.800  17.114  0.00  0.00    +0.000 HD
ENDBRANCH  24  25
ENDBRANCH  23  24
ENDBRANCH  22  23
ENDBRANCH  10  22
TORSDOF 5
ENDMDL
MODEL 8
REMARK VINA RESULT:      -6.4      3.518      7.390
REMARK  Name = 
REMARK  5 active torsions:
REMARK  status: ('A' for Active; 'I' for Inactive)
REMARK    1  A    between atoms: C_10  and  O_11
REMARK    2  A    between atoms: O_11  and  C_12
REMARK    3  A    between atoms: C_12  and  C_13
REMARK    4  A    between atoms: C_13  and  O_14
REMARK    5  A    between atoms: C_16  and  C_17
REMARK                            x       y       z     vdW  Elec       q    Type
REMARK                         _______ _______ _______ _____ _____    ______ ____
ROOT
ATOM      1  O   UNL     1       1.218  11.041  18.879  0.00  0.00    +0.000 OA
ATOM      2  C   UNL     1       1.656   9.906  18.748  0.00  0.00    +0.000 C 
ATOM      3  N   UNL     1       2.435   9.501  17.659  0.00  0.00    +0.000 N 
ATOM      4  C   UNL     1       2.860   8.197  17.784  0.00  0.00    +0.000 A 
ATOM      5  C   UNL     1       3.651   7.425  16.952  0.00  0.00    +0.000 A 
ATOM      6  C   UNL     1       3.891   6.112  17.393  0.00  0.00    +0.000 A 
ATOM      7  C   UNL     1       3.347   5.629  18.599  0.00  0.00    +0.000 A 
ATOM      8  F   UNL     1       3.614   4.361  18.947  0.00  0.00    +0.000 F 
ATOM      9  C   UNL     1       2.538   6.442  19.427  0.00  0.00    +0.000 A 
ATOM     10  C   UNL     1       1.897   6.127  20.642  0.00  0.00    +0.000 A 
ATOM     11  C   UNL     1       1.145   7.118  21.310  0.00  0.00    +0.000 A 
ATOM     12  C   UNL     1       0.967   8.431  20.797  0.00  0.00    +0.000 A 
ATOM     13  C   UNL     1       1.601   8.712  19.579  0.00  0.00    +0.000 A 
ATOM     14  C   UNL     1       2.343   7.710  18.964  0.00  0.00    +0.000 A 
ATOM     15  H   UNL     1       2.656  10.128  16.899  0.00  0.00    +0.000 HD
ENDROOT
BRANCH  12  16
ATOM     16  C   UNL     1       0.145   9.412  21.500  0.00  0.00    +0.000 A 
ATOM     17  C   UNL     1      -0.040   9.606  22.862  0.00  0.00    +0.000 A 
ATOM     18  C   UNL     1      -0.926  10.696  23.043  0.00  0.00    +0.000 A 
ATOM     19  C   UNL     1      -1.265  11.154  21.794  0.00  0.00    +0.000 A 
ATOM     20  N   UNL     1      -0.625  10.370  20.872  0.00  0.00    +0.000 N 
ATOM     21  H   UNL     1      -0.749  10.445  19.868  0.00  0.00    +0.000 HD
ENDBRANCH  12  16
BRANCH  10  22
ATOM     22  O   UNL     1       2.071   4.852  21.112  0.00  0.00    +0.000 OA
BRANCH  22  23
ATOM     23  C   UNL     1       1.074   3.889  20.750  0.00  0.00    +0.000 C 
BRANCH  23  24
ATOM     24  C   UNL     1       1.551   2.517  21.224  0.00  0.00    +0.000 C 
BRANCH  24  25
ATOM     25  O   UNL     1       2.699   2.636  22.058  0.00  0.00    +0.000 OA
ATOM     26  H   UNL     1       3.389   2.081  21.646  0.00  0.00    +0.000 HD
ENDBRANCH  24  25
ENDBRANCH  23  24
ENDBRANCH  22  23
ENDBRANCH  10  22
TORSDOF 5
ENDMDL
MODEL 9
REMARK VINA RESULT:      -6.3      2.961      5.565
REMARK  Name = 
REMARK  5 active torsions:
REMARK  status: ('A' for Active; 'I' for Inactive)
REMARK    1  A    between atoms: C_10  and  O_11
REMARK    2  A    between atoms: O_11  and  C_12
REMARK    3  A    between atoms: C_12  and  C_13
REMARK    4  A    between atoms: C_13  and  O_14
REMARK    5  A    between atoms: C_16  and  C_17
REMARK                            x       y       z     vdW  Elec       q    Type
REMARK                         _______ _______ _______ _____ _____    ______ ____
ROOT
ATOM      1  O   UNL     1       0.351   5.085  20.652  0.00  0.00    +0.000 OA
ATOM      2  C   UNL     1       1.237   4.661  19.922  0.00  0.00    +0.000 C 
ATOM      3  N   UNL     1       1.445   3.301  19.673  0.00  0.00    +0.000 N 
ATOM      4  C   UNL     1       2.459   3.091  18.764  0.00  0.00    +0.000 A 
ATOM      5  C   UNL     1       2.965   1.916  18.237  0.00  0.00    +0.000 A 
ATOM      6  C   UNL     1       4.018   2.070  17.318  0.00  0.00    +0.000 A 
ATOM      7  C   UNL     1       4.517   3.343  16.976  0.00  0.00    +0.000 A 
ATOM      8  F   UNL     1       5.529   3.407  16.098  0.00  0.00    +0.000 F 
ATOM      9  C   UNL     1       3.980   4.526  17.535  0.00  0.00    +0.000 A 
ATOM     10  C   UNL     1       4.362   5.868  17.332  0.00  0.00    +0.000 A 
ATOM     11  C   UNL     1       3.660   6.899  17.993  0.00  0.00    +0.000 A 
ATOM     12  C   UNL     1       2.593   6.651  18.898  0.00  0.00    +0.000 A 
ATOM     13  C   UNL     1       2.245   5.308  19.095  0.00  0.00    +0.000 A 
ATOM     14  C   UNL     1       2.954   4.326  18.411  0.00  0.00    +0.000 A 
ATOM     15  H   UNL     1       0.883   2.586  20.111  0.00  0.00    +0.000 HD
ENDROOT
BRANCH  12  16
ATOM     16  C   UNL     1       1.923   7.747  19.594  0.00  0.00    +0.000 A 
ATOM     17  C   UNL     1       1.601   7.885  20.937  0.00  0.00    +0.000 A 
ATOM     18  C   UNL     1       0.966   9.137  21.120  0.00  0.00    +0.000 A 
ATOM     19  C   UNL     1       0.912   9.747  19.891  0.00  0.00    +0.000 A 
ATOM     20  N   UNL     1       1.481   8.900  18.977  0.00  0.00    +0.000 N 
ATOM     21  H   UNL     1       1.515   9.072  17.978  0.00  0.00    +0.000 HD
ENDBRANCH  12  16
BRANCH  10  22
ATOM     22  O   UNL     1       5.401   6.082  16.466  0.00  0.00    +0.000 OA
BRANCH  22  23
ATOM     23  C   UNL     1       6.524   6.813  16.973  0.00  0.00    +0.000 C 
BRANCH  23  24
ATOM     24  C   UNL     1       7.306   5.889  17.905  0.00  0.00    +0.000 C 
BRANCH  24  25
ATOM     25  O   UNL     1       7.836   4.776  17.193  0.00  0.00    +0.000 OA
ATOM     26  H   UNL     1       7.232   4.029  17.374  0.00  0.00    +0.000 HD
ENDBRANCH  24  25
ENDBRANCH  23  24
ENDBRANCH  22  23
ENDBRANCH  10  22
TORSDOF 5
ENDMDL
