MODEL 1
REMARK VINA RESULT:      -7.9      0.000      0.000
REMARK  Name = 
REMARK  11 active torsions:
REMARK  status: ('A' for Active; 'I' for Inactive)
REMARK    1  A    between atoms: C_1  and  C_2
REMARK    2  A    between atoms: C_5  and  N_6
REMARK    3  A    between atoms: N_6  and  C_15
REMARK    4  A    between atoms: C_7  and  C_9
REMARK    5  A    between atoms: C_13  and  C_14
REMARK    6  A    between atoms: C_15  and  C_16
REMARK    7  A    between atoms: C_15  and  C_22
REMARK    8  A    between atoms: N_18  and  C_19
REMARK    9  A    between atoms: C_19  and  C_20
REMARK   10  A    between atoms: C_19  and  C_21
REMARK   11  A    between atoms: C_25  and  C_26
REMARK                            x       y       z     vdW  Elec       q    Type
REMARK                         _______ _______ _______ _____ _____    ______ ____
ROOT
ATOM      1  C   UNL     1       0.788  11.425  20.122  0.00  0.00    +0.000 C 
ENDROOT
BRANCH   1   2
ATOM      2  C   UNL     1       1.225  10.011  19.671  0.00  0.00    +0.000 A 
ATOM      3  C   UNL     1       1.222   8.880  20.502  0.00  0.00    +0.000 A 
ATOM      4  C   UNL     1       1.745   7.654  20.062  0.00  0.00    +0.000 A 
ATOM      5  C   UNL     1       2.254   7.512  18.765  0.00  0.00    +0.000 A 
ATOM      6  C   UNL     1       2.162   8.600  17.896  0.00  0.00    +0.000 A 
ATOM      7  C   UNL     1       1.629   9.814  18.335  0.00  0.00    +0.000 A 
BRANCH   5   8
ATOM      8  C   UNL     1       2.905   6.235  18.298  0.00  0.00    +0.000 C 
ATOM      9  F   UNL     1       2.030   5.335  17.768  0.00  0.00    +0.000 F 
ATOM     10  F   UNL     1       3.850   6.447  17.340  0.00  0.00    +0.000 F 
ATOM     11  F   UNL     1       3.543   5.579  19.309  0.00  0.00    +0.000 F 
ENDBRANCH   5   8
ENDBRANCH   1   2
BRANCH   1  12
ATOM     12  C   UNL     1       0.160  11.453  21.567  0.00  0.00    +0.000 C 
ATOM     13  O   UNL     1       0.389  10.597  22.422  0.00  0.00    +0.000 OA
ATOM     14  N   UNL     1      -0.586  12.574  21.899  0.00  0.00    +0.000 N 
ATOM     15  H   UNL     1      -0.994  13.109  21.141  0.00  0.00    +0.000 HD
BRANCH  14  16
ATOM     16  C   UNL     1      -1.252  12.641  23.195  0.00  0.00    +0.000 C 
ATOM     17  C   UNL     1      -1.308  14.078  23.687  0.00  0.00    +0.000 C 
ATOM     18  C   UNL     1      -2.648  12.024  23.120  0.00  0.00    +0.000 C 
ENDBRANCH  14  16
ENDBRANCH   1  12
BRANCH   1  19
ATOM     19  N   UNL     1      -0.032  12.203  19.136  0.00  0.00    +0.000 N 
ATOM     20  C   UNL     1       0.346  13.512  18.725  0.00  0.00    +0.000 C 
ATOM     21  O   UNL     1      -0.494  14.330  18.340  0.00  0.00    +0.000 OA
BRANCH  19  26
ATOM     22  C   UNL     1      -5.475  10.897  17.692  0.00  0.00    +0.000 C 
ATOM     23  C   UNL     1      -4.077  11.159  18.156  0.00  0.00    +0.000 A 
ATOM     24  C   UNL     1      -3.816  12.115  19.137  0.00  0.00    +0.000 A 
ATOM     25  C   UNL     1      -2.501  12.405  19.523  0.00  0.00    +0.000 A 
ATOM     26  C   UNL     1      -1.409  11.811  18.874  0.00  0.00    +0.000 A 
ATOM     27  C   UNL     1      -1.687  10.814  17.924  0.00  0.00    +0.000 A 
ATOM     28  C   UNL     1      -2.999  10.501  17.574  0.00  0.00    +0.000 A 
ATOM     29  F   UNL     1      -3.212   9.554  16.649  0.00  0.00    +0.000 F 
ENDBRANCH  19  26
BRANCH  20  30
ATOM     30  C   UNL     1       1.735  13.964  18.849  0.00  0.00    +0.000 A 
ATOM     31  N   UNL     1       2.714  13.630  17.916  0.00  0.00    +0.000 NA
ATOM     32  N   UNL     1       3.885  14.165  18.213  0.00  0.00    +0.000 NA
ATOM     33  S   UNL     1       3.838  15.121  19.581  0.00  0.00    +0.000 S 
ATOM     34  C   UNL     1       2.170  14.830  19.850  0.00  0.00    +0.000 A 
ATOM     35  C   UNL     1       1.443  15.442  20.993  0.00  0.00    +0.000 C 
ENDBRANCH  20  30
ENDBRANCH   1  19
TORSDOF 7
ENDMDL
MODEL 2
REMARK VINA RESULT:      -7.8      1.489      1.842
REMARK  Name = 
REMARK  11 active torsions:
REMARK  status: ('A' for Active; 'I' for Inactive)
REMARK    1  A    between atoms: C_1  and  C_2
REMARK    2  A    between atoms: C_5  and  N_6
REMARK    3  A    between atoms: N_6  and  C_15
REMARK    4  A    between atoms: C_7  and  C_9
REMARK    5  A    between atoms: C_13  and  C_14
REMARK    6  A    between atoms: C_15  and  C_16
REMARK    7  A    between atoms: C_15  and  C_22
REMARK    8  A    between atoms: N_18  and  C_19
REMARK    9  A    between atoms: C_19  and  C_20
REMARK   10  A    between atoms: C_19  and  C_21
REMARK   11  A    between atoms: C_25  and  C_26
REMARK                            x       y       z     vdW  Elec       q    Type
REMARK                         _______ _______ _______ _____ _____    ______ ____
ROOT
ATOM      1  C   UNL     1       0.270  11.457  21.204  0.00  0.00    +0.000 C 
ENDROOT
BRANCH   1   2
ATOM      2  C   UNL     1       0.696  10.010  20.861  0.00  0.00    +0.000 A 
ATOM      3  C   UNL     1       0.519   8.910  21.715  0.00  0.00    +0.000 A 
ATOM      4  C   UNL     1       1.038   7.648  21.390  0.00  0.00    +0.000 A 
ATOM      5  C   UNL     1       1.719   7.437  20.185  0.00  0.00    +0.000 A 
ATOM      6  C   UNL     1       1.805   8.497  19.280  0.00  0.00    +0.000 A 
ATOM      7  C   UNL     1       1.276   9.747  19.603  0.00  0.00    +0.000 A 
BRANCH   5   8
ATOM      8  C   UNL     1       2.366   6.116  19.853  0.00  0.00    +0.000 C 
ATOM      9  F   UNL     1       3.705   6.205  19.619  0.00  0.00    +0.000 F 
ATOM     10  F   UNL     1       2.221   5.196  20.848  0.00  0.00    +0.000 F 
ATOM     11  F   UNL     1       1.833   5.543  18.738  0.00  0.00    +0.000 F 
ENDBRANCH   5   8
ENDBRANCH   1   2
BRANCH   1  12
ATOM     12  C   UNL     1      -0.761  11.539  22.393  0.00  0.00    +0.000 C 
ATOM     13  O   UNL     1      -1.089  10.566  23.074  0.00  0.00    +0.000 OA
ATOM     14  N   UNL     1      -1.208  12.805  22.742  0.00  0.00    +0.000 N 
ATOM     15  H   UNL     1      -1.167  13.530  22.035  0.00  0.00    +0.000 HD
BRANCH  14  16
ATOM     16  C   UNL     1      -2.212  12.953  23.790  0.00  0.00    +0.000 C 
ATOM     17  C   UNL     1      -2.145  14.347  24.393  0.00  0.00    +0.000 C 
ATOM     18  C   UNL     1      -3.609  12.646  23.250  0.00  0.00    +0.000 C 
ENDBRANCH  14  16
ENDBRANCH   1  12
BRANCH   1  19
ATOM     19  N   UNL     1      -0.142  12.311  20.041  0.00  0.00    +0.000 N 
ATOM     20  C   UNL     1       0.354  13.635  19.880  0.00  0.00    +0.000 C 
ATOM     21  O   UNL     1      -0.293  14.492  19.273  0.00  0.00    +0.000 OA
BRANCH  19  26
ATOM     22  C   UNL     1      -4.782  11.322  16.738  0.00  0.00    +0.000 C 
ATOM     23  C   UNL     1      -3.601  11.473  17.644  0.00  0.00    +0.000 A 
ATOM     24  C   UNL     1      -3.746  11.999  18.927  0.00  0.00    +0.000 A 
ATOM     25  C   UNL     1      -2.631  12.201  19.750  0.00  0.00    +0.000 A 
ATOM     26  C   UNL     1      -1.331  11.965  19.277  0.00  0.00    +0.000 A 
ATOM     27  C   UNL     1      -1.203  11.387  18.003  0.00  0.00    +0.000 A 
ATOM     28  C   UNL     1      -2.321  11.151  17.205  0.00  0.00    +0.000 A 
ATOM     29  F   UNL     1      -2.145  10.615  15.989  0.00  0.00    +0.000 F 
ENDBRANCH  19  26
BRANCH  20  30
ATOM     30  C   UNL     1       1.604  14.050  20.525  0.00  0.00    +0.000 A 
ATOM     31  N   UNL     1       1.680  14.347  21.883  0.00  0.00    +0.000 NA
ATOM     32  N   UNL     1       2.906  14.673  22.252  0.00  0.00    +0.000 NA
ATOM     33  S   UNL     1       4.009  14.586  21.001  0.00  0.00    +0.000 S 
ATOM     34  C   UNL     1       2.827  14.097  19.860  0.00  0.00    +0.000 A 
ATOM     35  C   UNL     1       3.177  13.819  18.441  0.00  0.00    +0.000 C 
ENDBRANCH  20  30
ENDBRANCH   1  19
TORSDOF 7
ENDMDL
MODEL 3
REMARK VINA RESULT:      -7.8      2.665      5.478
REMARK  Name = 
REMARK  11 active torsions:
REMARK  status: ('A' for Active; 'I' for Inactive)
REMARK    1  A    between atoms: C_1  and  C_2
REMARK    2  A    between atoms: C_5  and  N_6
REMARK    3  A    between atoms: N_6  and  C_15
REMARK    4  A    between atoms: C_7  and  C_9
REMARK    5  A    between atoms: C_13  and  C_14
REMARK    6  A    between atoms: C_15  and  C_16
REMARK    7  A    between atoms: C_15  and  C_22
REMARK    8  A    between atoms: N_18  and  C_19
REMARK    9  A    between atoms: C_19  and  C_20
REMARK   10  A    between atoms: C_19  and  C_21
REMARK   11  A    between atoms: C_25  and  C_26
REMARK                            x       y       z     vdW  Elec       q    Type
REMARK                         _______ _______ _______ _____ _____    ______ ____
ROOT
ATOM      1  C   UNL     1      -0.535  11.446  19.846  0.00  0.00    +0.000 C 
ENDROOT
BRANCH   1   2
ATOM      2  C   UNL     1       0.449  10.307  19.490  0.00  0.00    +0.000 A 
ATOM      3  C   UNL     1       0.995  10.103  18.212  0.00  0.00    +0.000 A 
ATOM      4  C   UNL     1       1.786   8.979  17.931  0.00  0.00    +0.000 A 
ATOM      5  C   UNL     1       2.087   8.042  18.928  0.00  0.00    +0.000 A 
ATOM      6  C   UNL     1       1.641   8.292  20.227  0.00  0.00    +0.000 A 
ATOM      7  C   UNL     1       0.864   9.419  20.503  0.00  0.00    +0.000 A 
BRANCH   5   8
ATOM      8  C   UNL     1       2.856   6.780  18.632  0.00  0.00    +0.000 C 
ATOM      9  F   UNL     1       2.140   5.851  17.940  0.00  0.00    +0.000 F 
ATOM     10  F   UNL     1       3.980   7.010  17.895  0.00  0.00    +0.000 F 
ATOM     11  F   UNL     1       3.279   6.152  19.765  0.00  0.00    +0.000 F 
ENDBRANCH   5   8
ENDBRANCH   1   2
BRANCH   1  12
ATOM     12  C   UNL     1      -1.511  11.819  18.666  0.00  0.00    +0.000 C 
ATOM     13  O   UNL     1      -1.250  12.669  17.814  0.00  0.00    +0.000 OA
ATOM     14  N   UNL     1      -2.657  11.047  18.540  0.00  0.00    +0.000 N 
ATOM     15  H   UNL     1      -2.994  10.568  19.366  0.00  0.00    +0.000 HD
BRANCH  14  16
ATOM     16  C   UNL     1      -3.638  11.375  17.511  0.00  0.00    +0.000 C 
ATOM     17  C   UNL     1      -3.464  10.465  16.306  0.00  0.00    +0.000 C 
ATOM     18  C   UNL     1      -5.058  11.291  18.071  0.00  0.00    +0.000 C 
ENDBRANCH  14  16
ENDBRANCH   1  12
BRANCH   1  19
ATOM     19  N   UNL     1       0.073  12.662  20.480  0.00  0.00    +0.000 N 
ATOM     20  C   UNL     1      -0.686  13.512  21.332  0.00  0.00    +0.000 C 
ATOM     21  O   UNL     1      -0.405  14.707  21.460  0.00  0.00    +0.000 OA
BRANCH  19  26
ATOM     22  C   UNL     1       4.876  15.257  18.579  0.00  0.00    +0.000 C 
ATOM     23  C   UNL     1       3.676  14.483  19.027  0.00  0.00    +0.000 A 
ATOM     24  C   UNL     1       2.598  14.273  18.167  0.00  0.00    +0.000 A 
ATOM     25  C   UNL     1       1.448  13.607  18.608  0.00  0.00    +0.000 A 
ATOM     26  C   UNL     1       1.310  13.212  19.947  0.00  0.00    +0.000 A 
ATOM     27  C   UNL     1       2.422  13.383  20.789  0.00  0.00    +0.000 A 
ATOM     28  C   UNL     1       3.579  14.011  20.331  0.00  0.00    +0.000 A 
ATOM     29  F   UNL     1       4.607  14.167  21.179  0.00  0.00    +0.000 F 
ENDBRANCH  19  26
BRANCH  20  30
ATOM     30  C   UNL     1      -1.893  13.018  22.002  0.00  0.00    +0.000 A 
ATOM     31  N   UNL     1      -1.839  12.158  23.097  0.00  0.00    +0.000 NA
ATOM     32  N   UNL     1      -3.043  11.862  23.554  0.00  0.00    +0.000 NA
ATOM     33  S   UNL     1      -4.266  12.640  22.726  0.00  0.00    +0.000 S 
ATOM     34  C   UNL     1      -3.179  13.430  21.662  0.00  0.00    +0.000 A 
ATOM     35  C   UNL     1      -3.657  14.355  20.599  0.00  0.00    +0.000 C 
ENDBRANCH  20  30
ENDBRANCH   1  19
TORSDOF 7
ENDMDL
MODEL 4
REMARK VINA RESULT:      -7.7      3.411      6.721
REMARK  Name = 
REMARK  11 active torsions:
REMARK  status: ('A' for Active; 'I' for Inactive)
REMARK    1  A    between atoms: C_1  and  C_2
REMARK    2  A    between atoms: C_5  and  N_6
REMARK    3  A    between atoms: N_6  and  C_15
REMARK    4  A    between atoms: C_7  and  C_9
REMARK    5  A    between atoms: C_13  and  C_14
REMARK    6  A    between atoms: C_15  and  C_16
REMARK    7  A    between atoms: C_15  and  C_22
REMARK    8  A    between atoms: N_18  and  C_19
REMARK    9  A    between atoms: C_19  and  C_20
REMARK   10  A    between atoms: C_19  and  C_21
REMARK   11  A    between atoms: C_25  and  C_26
REMARK                            x       y       z     vdW  Elec       q    Type
REMARK                         _______ _______ _______ _____ _____    ______ ____
ROOT
ATOM      1  C   UNL     1      -1.451  12.349  19.239  0.00  0.00    +0.000 C 
ENDROOT
BRANCH   1   2
ATOM      2  C   UNL     1      -2.275  12.447  20.545  0.00  0.00    +0.000 A 
ATOM      3  C   UNL     1      -3.629  12.812  20.600  0.00  0.00    +0.000 A 
ATOM      4  C   UNL     1      -4.282  12.998  21.829  0.00  0.00    +0.000 A 
ATOM      5  C   UNL     1      -3.611  12.790  23.040  0.00  0.00    +0.000 A 
ATOM      6  C   UNL     1      -2.296  12.322  22.995  0.00  0.00    +0.000 A 
ATOM      7  C   UNL     1      -1.656  12.127  21.770  0.00  0.00    +0.000 A 
BRANCH   5   8
ATOM      8  C   UNL     1      -4.259  13.072  24.371  0.00  0.00    +0.000 C 
ATOM      9  F   UNL     1      -5.433  13.757  24.275  0.00  0.00    +0.000 F 
ATOM     10  F   UNL     1      -4.545  11.936  25.067  0.00  0.00    +0.000 F 
ATOM     11  F   UNL     1      -3.463  13.816  25.189  0.00  0.00    +0.000 F 
ENDBRANCH   5   8
ENDBRANCH   1   2
BRANCH   1  12
ATOM     12  C   UNL     1      -2.081  11.370  18.176  0.00  0.00    +0.000 C 
ATOM     13  O   UNL     1      -2.606  10.296  18.472  0.00  0.00    +0.000 OA
ATOM     14  N   UNL     1      -2.139  11.828  16.868  0.00  0.00    +0.000 N 
ATOM     15  H   UNL     1      -1.481  12.547  16.592  0.00  0.00    +0.000 HD
BRANCH  14  16
ATOM     16  C   UNL     1      -2.649  10.952  15.819  0.00  0.00    +0.000 C 
ATOM     17  C   UNL     1      -2.120   9.539  16.006  0.00  0.00    +0.000 C 
ATOM     18  C   UNL     1      -4.177  10.975  15.790  0.00  0.00    +0.000 C 
ENDBRANCH  14  16
ENDBRANCH   1  12
BRANCH   1  19
ATOM     19  N   UNL     1       0.022  12.124  19.410  0.00  0.00    +0.000 N 
ATOM     20  C   UNL     1       0.953  13.196  19.309  0.00  0.00    +0.000 C 
ATOM     21  O   UNL     1       2.120  13.000  18.961  0.00  0.00    +0.000 OA
BRANCH  19  26
ATOM     22  C   UNL     1       2.578   6.945  19.154  0.00  0.00    +0.000 C 
ATOM     23  C   UNL     1       1.816   8.233  19.185  0.00  0.00    +0.000 A 
ATOM     24  C   UNL     1       1.676   9.010  18.035  0.00  0.00    +0.000 A 
ATOM     25  C   UNL     1       1.019  10.246  18.081  0.00  0.00    +0.000 A 
ATOM     26  C   UNL     1       0.564  10.779  19.296  0.00  0.00    +0.000 A 
ATOM     27  C   UNL     1       0.665   9.964  20.437  0.00  0.00    +0.000 A 
ATOM     28  C   UNL     1       1.284   8.717  20.375  0.00  0.00    +0.000 A 
ATOM     29  F   UNL     1       1.372   7.984  21.495  0.00  0.00    +0.000 F 
ENDBRANCH  19  26
BRANCH  20  30
ATOM     30  C   UNL     1       0.524  14.583  19.514  0.00  0.00    +0.000 A 
ATOM     31  N   UNL     1      -0.003  15.360  18.485  0.00  0.00    +0.000 NA
ATOM     32  N   UNL     1      -0.345  16.567  18.901  0.00  0.00    +0.000 NA
ATOM     33  S   UNL     1      -0.094  16.790  20.536  0.00  0.00    +0.000 S 
ATOM     34  C   UNL     1       0.524  15.207  20.760  0.00  0.00    +0.000 A 
ATOM     35  C   UNL     1       0.961  14.718  22.094  0.00  0.00    +0.000 C 
ENDBRANCH  20  30
ENDBRANCH   1  19
TORSDOF 7
ENDMDL
MODEL 5
REMARK VINA RESULT:      -7.7      3.336      6.608
REMARK  Name = 
REMARK  11 active torsions:
REMARK  status: ('A' for Active; 'I' for Inactive)
REMARK    1  A    between atoms: C_1  and  C_2
REMARK    2  A    between atoms: C_5  and  N_6
REMARK    3  A    between atoms: N_6  and  C_15
REMARK    4  A    between atoms: C_7  and  C_9
REMARK    5  A    between atoms: C_13  and  C_14
REMARK    6  A    between atoms: C_15  and  C_16
REMARK    7  A    between atoms: C_15  and  C_22
REMARK    8  A    between atoms: N_18  and  C_19
REMARK    9  A    between atoms: C_19  and  C_20
REMARK   10  A    between atoms: C_19  and  C_21
REMARK   11  A    between atoms: C_25  and  C_26
REMARK                            x       y       z     vdW  Elec       q    Type
REMARK                         _______ _______ _______ _____ _____    ______ ____
ROOT
ATOM      1  C   UNL     1      -1.144  12.544  19.352  0.00  0.00    +0.000 C 
ENDROOT
BRANCH   1   2
ATOM      2  C   UNL     1      -1.822  12.713  20.732  0.00  0.00    +0.000 A 
ATOM      3  C   UNL     1      -1.513  11.942  21.864  0.00  0.00    +0.000 A 
ATOM      4  C   UNL     1      -2.251  12.067  23.051  0.00  0.00    +0.000 A 
ATOM      5  C   UNL     1      -3.296  12.993  23.156  0.00  0.00    +0.000 A 
ATOM      6  C   UNL     1      -3.540  13.840  22.073  0.00  0.00    +0.000 A 
ATOM      7  C   UNL     1      -2.795  13.720  20.899  0.00  0.00    +0.000 A 
BRANCH   5   8
ATOM      8  C   UNL     1      -4.164  13.083  24.386  0.00  0.00    +0.000 C 
ATOM      9  F   UNL     1      -4.464  11.873  24.934  0.00  0.00    +0.000 F 
ATOM     10  F   UNL     1      -3.587  13.812  25.382  0.00  0.00    +0.000 F 
ATOM     11  F   UNL     1      -5.361  13.683  24.133  0.00  0.00    +0.000 F 
ENDBRANCH   5   8
ENDBRANCH   1   2
BRANCH   1  12
ATOM     12  C   UNL     1      -1.933  11.584  18.382  0.00  0.00    +0.000 C 
ATOM     13  O   UNL     1      -2.582  10.612  18.772  0.00  0.00    +0.000 OA
ATOM     14  N   UNL     1      -1.979  11.951  17.046  0.00  0.00    +0.000 N 
ATOM     15  H   UNL     1      -1.243  12.556  16.698  0.00  0.00    +0.000 HD
BRANCH  14  16
ATOM     16  C   UNL     1      -2.635  11.077  16.079  0.00  0.00    +0.000 C 
ATOM     17  C   UNL     1      -2.142   9.648  16.238  0.00  0.00    +0.000 C 
ATOM     18  C   UNL     1      -4.155  11.160  16.219  0.00  0.00    +0.000 C 
ENDBRANCH  14  16
ENDBRANCH   1  12
BRANCH   1  19
ATOM     19  N   UNL     1       0.324  12.239  19.376  0.00  0.00    +0.000 N 
ATOM     20  C   UNL     1       1.297  13.258  19.175  0.00  0.00    +0.000 C 
ATOM     21  O   UNL     1       2.411  12.996  18.714  0.00  0.00    +0.000 OA
BRANCH  19  26
ATOM     22  C   UNL     1       2.539   6.916  18.951  0.00  0.00    +0.000 C 
ATOM     23  C   UNL     1       1.862   8.248  19.025  0.00  0.00    +0.000 A 
ATOM     24  C   UNL     1       1.771   9.068  17.900  0.00  0.00    +0.000 A 
ATOM     25  C   UNL     1       1.196  10.342  17.986  0.00  0.00    +0.000 A 
ATOM     26  C   UNL     1       0.778  10.865  19.219  0.00  0.00    +0.000 A 
ATOM     27  C   UNL     1       0.827  10.011  20.333  0.00  0.00    +0.000 A 
ATOM     28  C   UNL     1       1.364   8.729  20.231  0.00  0.00    +0.000 A 
ATOM     29  F   UNL     1       1.406   7.957  21.328  0.00  0.00    +0.000 F 
ENDBRANCH  19  26
BRANCH  20  30
ATOM     30  C   UNL     1       0.967  14.666  19.411  0.00  0.00    +0.000 A 
ATOM     31  N   UNL     1       0.636  15.538  18.377  0.00  0.00    +0.000 NA
ATOM     32  N   UNL     1       0.352  16.749  18.822  0.00  0.00    +0.000 NA
ATOM     33  S   UNL     1       0.423  16.868  20.485  0.00  0.00    +0.000 S 
ATOM     34  C   UNL     1       0.872  15.226  20.684  0.00  0.00    +0.000 A 
ATOM     35  C   UNL     1       1.102  14.634  22.028  0.00  0.00    +0.000 C 
ENDBRANCH  20  30
ENDBRANCH   1  19
TORSDOF 7
ENDMDL
MODEL 6
REMARK VINA RESULT:      -7.6      0.825      1.164
REMARK  Name = 
REMARK  11 active torsions:
REMARK  status: ('A' for Active; 'I' for Inactive)
REMARK    1  A    between atoms: C_1  and  C_2
REMARK    2  A    between atoms: C_5  and  N_6
REMARK    3  A    between atoms: N_6  and  C_15
REMARK    4  A    between atoms: C_7  and  C_9
REMARK    5  A    between atoms: C_13  and  C_14
REMARK    6  A    between atoms: C_15  and  C_16
REMARK    7  A    between atoms: C_15  and  C_22
REMARK    8  A    between atoms: N_18  and  C_19
REMARK    9  A    between atoms: C_19  and  C_20
REMARK   10  A    between atoms: C_19  and  C_21
REMARK   11  A    between atoms: C_25  and  C_26
REMARK                            x       y       z     vdW  Elec       q    Type
REMARK                         _______ _______ _______ _____ _____    ______ ____
ROOT
ATOM      1  C   UNL     1       0.769  11.448  20.069  0.00  0.00    +0.000 C 
ENDROOT
BRANCH   1   2
ATOM      2  C   UNL     1       1.222  10.042  19.610  0.00  0.00    +0.000 A 
ATOM      3  C   UNL     1       1.236   8.907  20.436  0.00  0.00    +0.000 A 
ATOM      4  C   UNL     1       1.774   7.690  19.989  0.00  0.00    +0.000 A 
ATOM      5  C   UNL     1       2.281   7.560  18.689  0.00  0.00    +0.000 A 
ATOM      6  C   UNL     1       2.172   8.652  17.825  0.00  0.00    +0.000 A 
ATOM      7  C   UNL     1       1.625   9.856  18.272  0.00  0.00    +0.000 A 
BRANCH   5   8
ATOM      8  C   UNL     1       2.947   6.294  18.215  0.00  0.00    +0.000 C 
ATOM      9  F   UNL     1       2.075   5.357  17.749  0.00  0.00    +0.000 F 
ATOM     10  F   UNL     1       3.835   6.515  17.205  0.00  0.00    +0.000 F 
ATOM     11  F   UNL     1       3.657   5.680  19.203  0.00  0.00    +0.000 F 
ENDBRANCH   5   8
ENDBRANCH   1   2
BRANCH   1  12
ATOM     12  C   UNL     1       0.073  11.449  21.483  0.00  0.00    +0.000 C 
ATOM     13  O   UNL     1       0.149  10.510  22.276  0.00  0.00    +0.000 OA
ATOM     14  N   UNL     1      -0.546  12.628  21.870  0.00  0.00    +0.000 N 
ATOM     15  H   UNL     1      -0.844  13.265  21.141  0.00  0.00    +0.000 HD
BRANCH  14  16
ATOM     16  C   UNL     1      -1.267  12.683  23.138  0.00  0.00    +0.000 C 
ATOM     17  C   UNL     1      -1.265  14.101  23.686  0.00  0.00    +0.000 C 
ATOM     18  C   UNL     1      -2.690  12.150  22.976  0.00  0.00    +0.000 C 
ENDBRANCH  14  16
ENDBRANCH   1  12
BRANCH   1  19
ATOM     19  N   UNL     1      -0.002  12.249  19.062  0.00  0.00    +0.000 N 
ATOM     20  C   UNL     1       0.402  13.563  18.693  0.00  0.00    +0.000 C 
ATOM     21  O   UNL     1      -0.416  14.393  18.286  0.00  0.00    +0.000 OA
BRANCH  19  26
ATOM     22  C   UNL     1      -5.439  10.507  18.158  0.00  0.00    +0.000 C 
ATOM     23  C   UNL     1      -4.043  11.027  18.296  0.00  0.00    +0.000 A 
ATOM     24  C   UNL     1      -2.986  10.429  17.611  0.00  0.00    +0.000 A 
ATOM     25  C   UNL     1      -1.671  10.874  17.791  0.00  0.00    +0.000 A 
ATOM     26  C   UNL     1      -1.367  11.871  18.731  0.00  0.00    +0.000 A 
ATOM     27  C   UNL     1      -2.446  12.500  19.376  0.00  0.00    +0.000 A 
ATOM     28  C   UNL     1      -3.756  12.078  19.160  0.00  0.00    +0.000 A 
ATOM     29  F   UNL     1      -4.750  12.698  19.814  0.00  0.00    +0.000 F 
ENDBRANCH  19  26
BRANCH  20  30
ATOM     30  C   UNL     1       1.786  14.004  18.888  0.00  0.00    +0.000 A 
ATOM     31  N   UNL     1       2.807  13.671  18.001  0.00  0.00    +0.000 NA
ATOM     32  N   UNL     1       3.966  14.196  18.359  0.00  0.00    +0.000 NA
ATOM     33  S   UNL     1       3.859  15.141  19.731  0.00  0.00    +0.000 S 
ATOM     34  C   UNL     1       2.178  14.859  19.916  0.00  0.00    +0.000 A 
ATOM     35  C   UNL     1       1.399  15.467  21.028  0.00  0.00    +0.000 C 
ENDBRANCH  20  30
ENDBRANCH   1  19
TORSDOF 7
ENDMDL
MODEL 7
REMARK VINA RESULT:      -7.6      2.746      5.533
REMARK  Name = 
REMARK  11 active torsions:
REMARK  status: ('A' for Active; 'I' for Inactive)
REMARK    1  A    between atoms: C_1  and  C_2
REMARK    2  A    between atoms: C_5  and  N_6
REMARK    3  A    between atoms: N_6  and  C_15
REMARK    4  A    between atoms: C_7  and  C_9
REMARK    5  A    between atoms: C_13  and  C_14
REMARK    6  A    between atoms: C_15  and  C_16
REMARK    7  A    between atoms: C_15  and  C_22
REMARK    8  A    between atoms: N_18  and  C_19
REMARK    9  A    between atoms: C_19  and  C_20
REMARK   10  A    between atoms: C_19  and  C_21
REMARK   11  A    between atoms: C_25  and  C_26
REMARK                            x       y       z     vdW  Elec       q    Type
REMARK                         _______ _______ _______ _____ _____    ______ ____
ROOT
ATOM      1  C   UNL     1      -0.879  11.588  19.512  0.00  0.00    +0.000 C 
ENDROOT
BRANCH   1   2
ATOM      2  C   UNL     1       0.154  10.462  19.277  0.00  0.00    +0.000 A 
ATOM      3  C   UNL     1       0.731  10.165  18.032  0.00  0.00    +0.000 A 
ATOM      4  C   UNL     1       1.570   9.052  17.868  0.00  0.00    +0.000 A 
ATOM      5  C   UNL     1       1.888   8.223  18.951  0.00  0.00    +0.000 A 
ATOM      6  C   UNL     1       1.408   8.572  20.214  0.00  0.00    +0.000 A 
ATOM      7  C   UNL     1       0.583   9.687  20.374  0.00  0.00    +0.000 A 
BRANCH   5   8
ATOM      8  C   UNL     1       2.711   6.970  18.783  0.00  0.00    +0.000 C 
ATOM      9  F   UNL     1       3.065   6.386  19.961  0.00  0.00    +0.000 F 
ATOM     10  F   UNL     1       2.063   6.008  18.068  0.00  0.00    +0.000 F 
ATOM     11  F   UNL     1       3.878   7.202  18.119  0.00  0.00    +0.000 F 
ENDBRANCH   5   8
ENDBRANCH   1   2
BRANCH   1  12
ATOM     12  C   UNL     1      -1.815  11.846  18.270  0.00  0.00    +0.000 C 
ATOM     13  O   UNL     1      -1.461  12.480  17.275  0.00  0.00    +0.000 OA
ATOM     14  N   UNL     1      -3.047  11.211  18.278  0.00  0.00    +0.000 N 
ATOM     15  H   UNL     1      -3.432  10.942  19.176  0.00  0.00    +0.000 HD
BRANCH  14  16
ATOM     16  C   UNL     1      -3.992  11.453  17.193  0.00  0.00    +0.000 C 
ATOM     17  C   UNL     1      -3.796  10.433  16.084  0.00  0.00    +0.000 C 
ATOM     18  C   UNL     1      -5.429  11.441  17.713  0.00  0.00    +0.000 C 
ENDBRANCH  14  16
ENDBRANCH   1  12
BRANCH   1  19
ATOM     19  N   UNL     1      -0.338  12.865  20.084  0.00  0.00    +0.000 N 
ATOM     20  C   UNL     1      -1.199  13.857  20.632  0.00  0.00    +0.000 C 
ATOM     21  O   UNL     1      -0.875  15.047  20.648  0.00  0.00    +0.000 OA
BRANCH  19  26
ATOM     22  C   UNL     1       4.933  14.965  18.974  0.00  0.00    +0.000 C 
ATOM     23  C   UNL     1       3.607  14.317  19.219  0.00  0.00    +0.000 A 
ATOM     24  C   UNL     1       2.646  14.249  18.211  0.00  0.00    +0.000 A 
ATOM     25  C   UNL     1       1.381  13.701  18.461  0.00  0.00    +0.000 A 
ATOM     26  C   UNL     1       1.013  13.289  19.750  0.00  0.00    +0.000 A 
ATOM     27  C   UNL     1       2.007  13.316  20.744  0.00  0.00    +0.000 A 
ATOM     28  C   UNL     1       3.276  13.824  20.477  0.00  0.00    +0.000 A 
ATOM     29  F   UNL     1       4.184  13.845  21.464  0.00  0.00    +0.000 F 
ENDBRANCH  19  26
BRANCH  20  30
ATOM     30  C   UNL     1      -2.544  13.507  21.097  0.00  0.00    +0.000 A 
ATOM     31  N   UNL     1      -3.684  13.752  20.335  0.00  0.00    +0.000 NA
ATOM     32  N   UNL     1      -4.783  13.333  20.938  0.00  0.00    +0.000 NA
ATOM     33  S   UNL     1      -4.482  12.592  22.403  0.00  0.00    +0.000 S 
ATOM     34  C   UNL     1      -2.788  12.827  22.288  0.00  0.00    +0.000 A 
ATOM     35  C   UNL     1      -1.858  12.353  23.348  0.00  0.00    +0.000 C 
ENDBRANCH  20  30
ENDBRANCH   1  19
TORSDOF 7
ENDMDL
MODEL 8
REMARK VINA RESULT:      -7.5      3.242      6.721
REMARK  Name = 
REMARK  11 active torsions:
REMARK  status: ('A' for Active; 'I' for Inactive)
REMARK    1  A    between atoms: C_1  and  C_2
REMARK    2  A    between atoms: C_5  and  N_6
REMARK    3  A    between atoms: N_6  and  C_15
REMARK    4  A    between atoms: C_7  and  C_9
REMARK    5  A    between atoms: C_13  and  C_14
REMARK    6  A    between atoms: C_15  and  C_16
REMARK    7  A    between atoms: C_15  and  C_22
REMARK    8  A    between atoms: N_18  and  C_19
REMARK    9  A    between atoms: C_19  and  C_20
REMARK   10  A    between atoms: C_19  and  C_21
REMARK   11  A    between atoms: C_25  and  C_26
REMARK                            x       y       z     vdW  Elec       q    Type
REMARK                         _______ _______ _______ _____ _____    ______ ____
ROOT
ATOM      1  C   UNL     1      -0.849  13.098  19.986  0.00  0.00    +0.000 C 
ENDROOT
BRANCH   1   2
ATOM      2  C   UNL     1      -1.888  13.075  21.132  0.00  0.00    +0.000 A 
ATOM      3  C   UNL     1      -1.807  12.237  22.256  0.00  0.00    +0.000 A 
ATOM      4  C   UNL     1      -2.846  12.183  23.197  0.00  0.00    +0.000 A 
ATOM      5  C   UNL     1      -3.982  12.991  23.065  0.00  0.00    +0.000 A 
ATOM      6  C   UNL     1      -4.022  13.906  22.011  0.00  0.00    +0.000 A 
ATOM      7  C   UNL     1      -2.980  13.965  21.084  0.00  0.00    +0.000 A 
BRANCH   5   8
ATOM      8  C   UNL     1      -5.152  12.886  24.009  0.00  0.00    +0.000 C 
ATOM      9  F   UNL     1      -6.253  12.305  23.456  0.00  0.00    +0.000 F 
ATOM     10  F   UNL     1      -4.864  12.155  25.122  0.00  0.00    +0.000 F 
ATOM     11  F   UNL     1      -5.564  14.103  24.462  0.00  0.00    +0.000 F 
ENDBRANCH   5   8
ENDBRANCH   1   2
BRANCH   1  12
ATOM     12  C   UNL     1      -1.409  12.537  18.624  0.00  0.00    +0.000 C 
ATOM     13  O   UNL     1      -0.966  12.864  17.523  0.00  0.00    +0.000 OA
ATOM     14  N   UNL     1      -2.365  11.535  18.712  0.00  0.00    +0.000 N 
ATOM     15  H   UNL     1      -2.908  11.476  19.565  0.00  0.00    +0.000 HD
BRANCH  14  16
ATOM     16  C   UNL     1      -2.976  11.012  17.494  0.00  0.00    +0.000 C 
ATOM     17  C   UNL     1      -3.032   9.494  17.542  0.00  0.00    +0.000 C 
ATOM     18  C   UNL     1      -4.365  11.614  17.283  0.00  0.00    +0.000 C 
ENDBRANCH  14  16
ENDBRANCH   1  12
BRANCH   1  19
ATOM     19  N   UNL     1       0.501  12.535  20.315  0.00  0.00    +0.000 N 
ATOM     20  C   UNL     1       1.564  13.368  20.764  0.00  0.00    +0.000 C 
ATOM     21  O   UNL     1       2.744  13.060  20.574  0.00  0.00    +0.000 OA
BRANCH  19  26
ATOM     22  C   UNL     1       2.364   7.325  18.638  0.00  0.00    +0.000 C 
ATOM     23  C   UNL     1       1.781   8.651  19.014  0.00  0.00    +0.000 A 
ATOM     24  C   UNL     1       1.899   9.751  18.165  0.00  0.00    +0.000 A 
ATOM     25  C   UNL     1       1.411  11.007  18.547  0.00  0.00    +0.000 A 
ATOM     26  C   UNL     1       0.872  11.216  19.825  0.00  0.00    +0.000 A 
ATOM     27  C   UNL     1       0.712  10.090  20.650  0.00  0.00    +0.000 A 
ATOM     28  C   UNL     1       1.164   8.835  20.247  0.00  0.00    +0.000 A 
ATOM     29  F   UNL     1       1.004   7.794  21.078  0.00  0.00    +0.000 F 
ENDBRANCH  19  26
BRANCH  20  30
ATOM     30  C   UNL     1       1.287  14.673  21.373  0.00  0.00    +0.000 A 
ATOM     31  N   UNL     1       1.005  14.819  22.729  0.00  0.00    +0.000 NA
ATOM     32  N   UNL     1       0.813  16.083  23.062  0.00  0.00    +0.000 NA
ATOM     33  S   UNL     1       1.013  17.134  21.780  0.00  0.00    +0.000 S 
ATOM     34  C   UNL     1       1.369  15.875  20.672  0.00  0.00    +0.000 A 
ATOM     35  C   UNL     1       1.677  16.152  19.244  0.00  0.00    +0.000 C 
ENDBRANCH  20  30
ENDBRANCH   1  19
TORSDOF 7
ENDMDL
MODEL 9
REMARK VINA RESULT:      -7.5      2.699      5.465
REMARK  Name = 
REMARK  11 active torsions:
REMARK  status: ('A' for Active; 'I' for Inactive)
REMARK    1  A    between atoms: C_1  and  C_2
REMARK    2  A    between atoms: C_5  and  N_6
REMARK    3  A    between atoms: N_6  and  C_15
REMARK    4  A    between atoms: C_7  and  C_9
REMARK    5  A    between atoms: C_13  and  C_14
REMARK    6  A    between atoms: C_15  and  C_16
REMARK    7  A    between atoms: C_15  and  C_22
REMARK    8  A    between atoms: N_18  and  C_19
REMARK    9  A    between atoms: C_19  and  C_20
REMARK   10  A    between atoms: C_19  and  C_21
REMARK   11  A    between atoms: C_25  and  C_26
REMARK                            x       y       z     vdW  Elec       q    Type
REMARK                         _______ _______ _______ _____ _____    ______ ____
ROOT
ATOM      1  C   UNL     1      -0.680  11.357  19.828  0.00  0.00    +0.000 C 
ENDROOT
BRANCH   1   2
ATOM      2  C   UNL     1       0.222  10.140  19.518  0.00  0.00    +0.000 A 
ATOM      3  C   UNL     1       0.717   9.255  20.490  0.00  0.00    +0.000 A 
ATOM      4  C   UNL     1       1.628   8.243  20.153  0.00  0.00    +0.000 A 
ATOM      5  C   UNL     1       2.045   8.060  18.828  0.00  0.00    +0.000 A 
ATOM      6  C   UNL     1       1.476   8.864  17.839  0.00  0.00    +0.000 A 
ATOM      7  C   UNL     1       0.560   9.862  18.178  0.00  0.00    +0.000 A 
BRANCH   5   8
ATOM      8  C   UNL     1       3.092   7.042  18.454  0.00  0.00    +0.000 C 
ATOM      9  F   UNL     1       4.124   7.557  17.729  0.00  0.00    +0.000 F 
ATOM     10  F   UNL     1       3.659   6.447  19.541  0.00  0.00    +0.000 F 
ATOM     11  F   UNL     1       2.582   6.026  17.701  0.00  0.00    +0.000 F 
ENDBRANCH   5   8
ENDBRANCH   1   2
BRANCH   1  12
ATOM     12  C   UNL     1      -1.597  11.779  18.617  0.00  0.00    +0.000 C 
ATOM     13  O   UNL     1      -1.375  12.763  17.910  0.00  0.00    +0.000 OA
ATOM     14  N   UNL     1      -2.625  10.911  18.283  0.00  0.00    +0.000 N 
ATOM     15  H   UNL     1      -2.967  10.287  19.005  0.00  0.00    +0.000 HD
BRANCH  14  16
ATOM     16  C   UNL     1      -3.553  11.266  17.215  0.00  0.00    +0.000 C 
ATOM     17  C   UNL     1      -3.365  10.343  16.023  0.00  0.00    +0.000 C 
ATOM     18  C   UNL     1      -4.996  11.238  17.719  0.00  0.00    +0.000 C 
ENDBRANCH  14  16
ENDBRANCH   1  12
BRANCH   1  19
ATOM     19  N   UNL     1       0.003  12.536  20.454  0.00  0.00    +0.000 N 
ATOM     20  C   UNL     1      -0.691  13.416  21.333  0.00  0.00    +0.000 C 
ATOM     21  O   UNL     1      -0.348  14.594  21.462  0.00  0.00    +0.000 OA
BRANCH  19  26
ATOM     22  C   UNL     1       4.839  14.928  18.379  0.00  0.00    +0.000 C 
ATOM     23  C   UNL     1       3.633  14.203  18.888  0.00  0.00    +0.000 A 
ATOM     24  C   UNL     1       2.591  13.857  18.029  0.00  0.00    +0.000 A 
ATOM     25  C   UNL     1       1.434  13.238  18.518  0.00  0.00    +0.000 A 
ATOM     26  C   UNL     1       1.252  13.029  19.893  0.00  0.00    +0.000 A 
ATOM     27  C   UNL     1       2.330  13.335  20.741  0.00  0.00    +0.000 A 
ATOM     28  C   UNL     1       3.494  13.914  20.241  0.00  0.00    +0.000 A 
ATOM     29  F   UNL     1       4.489  14.204  21.094  0.00  0.00    +0.000 F 
ENDBRANCH  19  26
BRANCH  20  30
ATOM     30  C   UNL     1      -1.903  12.976  22.030  0.00  0.00    +0.000 A 
ATOM     31  N   UNL     1      -1.869  12.056  23.075  0.00  0.00    +0.000 NA
ATOM     32  N   UNL     1      -3.072  11.825  23.571  0.00  0.00    +0.000 NA
ATOM     33  S   UNL     1      -4.265  12.735  22.841  0.00  0.00    +0.000 S 
ATOM     34  C   UNL     1      -3.167  13.501  21.771  0.00  0.00    +0.000 A 
ATOM     35  C   UNL     1      -3.616  14.515  20.781  0.00  0.00    +0.000 C 
ENDBRANCH  20  30
ENDBRANCH   1  19
TORSDOF 7
ENDMDL
