MODEL 1
REMARK VINA RESULT:      -8.3      0.000      0.000
REMARK  Name = 
REMARK  5 active torsions:
REMARK  status: ('A' for Active; 'I' for Inactive)
REMARK    1  A    between atoms: C_1  and  N_2
REMARK    2  A    between atoms: C_6  and  C_7
REMARK    3  A    between atoms: C_10  and  C_11
REMARK    4  A    between atoms: N_13  and  C_14
REMARK    5  A    between atoms: C_19  and  C_20
REMARK                            x       y       z     vdW  Elec       q    Type
REMARK                         _______ _______ _______ _____ _____    ______ ____
ROOT
ATOM      1  C   UNL     1       3.561   6.583  18.930  0.00  0.00    +0.000 C 
ATOM      2  O   UNL     1       4.008   5.818  19.779  0.00  0.00    +0.000 OA
ATOM      3  N   UNL     1       4.011   6.564  17.627  0.00  0.00    +0.000 N 
ATOM      4  H   UNL     1       3.646   7.287  17.020  0.00  0.00    +0.000 HD
ENDROOT
BRANCH   3   5
ATOM      5  C   UNL     1       5.035   5.683  17.066  0.00  0.00    +0.000 C 
ATOM      6  C   UNL     1       6.005   6.404  16.108  0.00  0.00    +0.000 C 
ATOM      7  N   UNL     1       7.110   5.529  15.686  0.00  0.00    +0.000 NA
ATOM      8  C   UNL     1       6.588   4.360  14.976  0.00  0.00    +0.000 C 
ATOM      9  C   UNL     1       5.638   3.537  15.844  0.00  0.00    +0.000 C 
ATOM     10  C   UNL     1       4.482   4.382  16.427  0.00  0.00    +0.000 C 
ATOM     11  H   UNL     1       7.636   5.225  16.502  0.00  0.00    +0.000 HD
BRANCH  10  12
ATOM     12  C   UNL     1       3.682   3.572  17.443  0.00  0.00    +0.000 A 
ATOM     13  C   UNL     1       4.324   2.869  18.480  0.00  0.00    +0.000 A 
ATOM     14  C   UNL     1       3.592   2.179  19.447  0.00  0.00    +0.000 A 
ATOM     15  C   UNL     1       2.201   2.174  19.385  0.00  0.00    +0.000 A 
ATOM     16  C   UNL     1       1.560   2.850  18.355  0.00  0.00    +0.000 A 
ATOM     17  F   UNL     1       0.222   2.840  18.299  0.00  0.00    +0.000 F 
ATOM     18  C   UNL     1       2.282   3.544  17.386  0.00  0.00    +0.000 A 
ENDBRANCH  10  12
ENDBRANCH   3   5
BRANCH   1  22
ATOM     19  C   UNL     1       0.782   9.362  19.024  0.00  0.00    +0.000 A 
ATOM     20  C   UNL     1       0.790   8.751  20.266  0.00  0.00    +0.000 A 
ATOM     21  C   UNL     1       1.801   7.743  20.382  0.00  0.00    +0.000 A 
ATOM     22  C   UNL     1       2.502   7.556  19.207  0.00  0.00    +0.000 A 
ATOM     23  S   UNL     1       1.973   8.660  18.016  0.00  0.00    +0.000 S 
BRANCH  19  29
ATOM     24  C   UNL     1       1.481  12.451  19.196  0.00  0.00    +0.000 C 
ATOM     25  N   UNL     1       0.266  11.827  18.724  0.00  0.00    +0.000 N 
ATOM     26  N   UNL     1      -0.735  12.637  18.314  0.00  0.00    +0.000 NA
ATOM     27  C   UNL     1      -1.688  11.795  17.921  0.00  0.00    +0.000 A 
ATOM     28  C   UNL     1      -1.302  10.453  18.061  0.00  0.00    +0.000 A 
ATOM     29  C   UNL     1      -0.033  10.483  18.618  0.00  0.00    +0.000 A 
ENDBRANCH  19  29
ENDBRANCH   1  22
TORSDOF 4
ENDMDL
MODEL 2
REMARK VINA RESULT:      -8.2      0.920      1.304
REMARK  Name = 
REMARK  5 active torsions:
REMARK  status: ('A' for Active; 'I' for Inactive)
REMARK    1  A    between atoms: C_1  and  N_2
REMARK    2  A    between atoms: C_6  and  C_7
REMARK    3  A    between atoms: C_10  and  C_11
REMARK    4  A    between atoms: N_13  and  C_14
REMARK    5  A    between atoms: C_19  and  C_20
REMARK                            x       y       z     vdW  Elec       q    Type
REMARK                         _______ _______ _______ _____ _____    ______ ____
ROOT
ATOM      1  C   UNL     1       3.486   6.704  18.949  0.00  0.00    +0.000 C 
ATOM      2  O   UNL     1       3.888   5.905  19.789  0.00  0.00    +0.000 OA
ATOM      3  N   UNL     1       3.993   6.726  17.666  0.00  0.00    +0.000 N 
ATOM      4  H   UNL     1       3.661   7.472  17.069  0.00  0.00    +0.000 HD
ENDROOT
BRANCH   3   5
ATOM      5  C   UNL     1       5.033   5.854  17.121  0.00  0.00    +0.000 C 
ATOM      6  C   UNL     1       6.003   6.581  16.168  0.00  0.00    +0.000 C 
ATOM      7  N   UNL     1       7.123   5.718  15.762  0.00  0.00    +0.000 NA
ATOM      8  C   UNL     1       6.623   4.539  15.053  0.00  0.00    +0.000 C 
ATOM      9  C   UNL     1       5.674   3.708  15.917  0.00  0.00    +0.000 C 
ATOM     10  C   UNL     1       4.503   4.543  16.484  0.00  0.00    +0.000 C 
ATOM     11  H   UNL     1       7.645   5.425  16.585  0.00  0.00    +0.000 HD
BRANCH  10  12
ATOM     12  C   UNL     1       3.702   3.728  17.497  0.00  0.00    +0.000 A 
ATOM     13  C   UNL     1       2.312   3.557  17.357  0.00  0.00    +0.000 A 
ATOM     14  C   UNL     1       1.588   2.761  18.245  0.00  0.00    +0.000 A 
ATOM     15  C   UNL     1       2.246   2.129  19.298  0.00  0.00    +0.000 A 
ATOM     16  C   UNL     1       3.615   2.306  19.453  0.00  0.00    +0.000 A 
ATOM     17  F   UNL     1       4.242   1.697  20.467  0.00  0.00    +0.000 F 
ATOM     18  C   UNL     1       4.347   3.096  18.569  0.00  0.00    +0.000 A 
ENDBRANCH  10  12
ENDBRANCH   3   5
BRANCH   1  22
ATOM     19  C   UNL     1       0.693   9.470  19.003  0.00  0.00    +0.000 A 
ATOM     20  C   UNL     1       0.714   8.887  20.259  0.00  0.00    +0.000 A 
ATOM     21  C   UNL     1       1.732   7.887  20.388  0.00  0.00    +0.000 A 
ATOM     22  C   UNL     1       2.424   7.677  19.213  0.00  0.00    +0.000 A 
ATOM     23  S   UNL     1       1.880   8.752  18.002  0.00  0.00    +0.000 S 
BRANCH  19  29
ATOM     24  C   UNL     1       1.341  12.570  19.180  0.00  0.00    +0.000 C 
ATOM     25  N   UNL     1       0.146  11.927  18.687  0.00  0.00    +0.000 N 
ATOM     26  N   UNL     1      -0.860  12.720  18.257  0.00  0.00    +0.000 NA
ATOM     27  C   UNL     1      -1.793  11.863  17.848  0.00  0.00    +0.000 A 
ATOM     28  C   UNL     1      -1.390  10.527  17.999  0.00  0.00    +0.000 A 
ATOM     29  C   UNL     1      -0.132  10.578  18.580  0.00  0.00    +0.000 A 
ENDBRANCH  19  29
ENDBRANCH   1  22
TORSDOF 4
ENDMDL
MODEL 3
REMARK VINA RESULT:      -8.1      1.843      2.069
REMARK  Name = 
REMARK  5 active torsions:
REMARK  status: ('A' for Active; 'I' for Inactive)
REMARK    1  A    between atoms: C_1  and  N_2
REMARK    2  A    between atoms: C_6  and  C_7
REMARK    3  A    between atoms: C_10  and  C_11
REMARK    4  A    between atoms: N_13  and  C_14
REMARK    5  A    between atoms: C_19  and  C_20
REMARK                            x       y       z     vdW  Elec       q    Type
REMARK                         _______ _______ _______ _____ _____    ______ ____
ROOT
ATOM      1  C   UNL     1       2.703   7.755  18.288  0.00  0.00    +0.000 C 
ATOM      2  O   UNL     1       2.658   8.173  17.135  0.00  0.00    +0.000 OA
ATOM      3  N   UNL     1       3.585   6.766  18.669  0.00  0.00    +0.000 N 
ATOM      4  H   UNL     1       3.492   6.428  19.618  0.00  0.00    +0.000 HD
ENDROOT
BRANCH   3   5
ATOM      5  C   UNL     1       4.558   6.085  17.816  0.00  0.00    +0.000 C 
ATOM      6  C   UNL     1       5.362   7.045  16.917  0.00  0.00    +0.000 C 
ATOM      7  N   UNL     1       6.434   6.347  16.189  0.00  0.00    +0.000 NA
ATOM      8  C   UNL     1       5.868   5.313  15.321  0.00  0.00    +0.000 C 
ATOM      9  C   UNL     1       5.074   4.272  16.110  0.00  0.00    +0.000 C 
ATOM     10  C   UNL     1       3.975   4.905  16.992  0.00  0.00    +0.000 C 
ATOM     11  H   UNL     1       7.076   5.920  16.853  0.00  0.00    +0.000 HD
BRANCH  10  12
ATOM     12  C   UNL     1       3.350   3.856  17.908  0.00  0.00    +0.000 A 
ATOM     13  C   UNL     1       4.105   3.230  18.918  0.00  0.00    +0.000 A 
ATOM     14  C   UNL     1       3.520   2.318  19.797  0.00  0.00    +0.000 A 
ATOM     15  C   UNL     1       2.168   2.009  19.673  0.00  0.00    +0.000 A 
ATOM     16  C   UNL     1       1.420   2.610  18.668  0.00  0.00    +0.000 A 
ATOM     17  F   UNL     1       0.120   2.308  18.551  0.00  0.00    +0.000 F 
ATOM     18  C   UNL     1       1.994   3.525  17.787  0.00  0.00    +0.000 A 
ENDBRANCH  10  12
ENDBRANCH   3   5
BRANCH   1  22
ATOM     19  C   UNL     1       0.295   9.665  20.740  0.00  0.00    +0.000 A 
ATOM     20  C   UNL     1       0.670   8.491  21.369  0.00  0.00    +0.000 A 
ATOM     21  C   UNL     1       1.595   7.718  20.595  0.00  0.00    +0.000 A 
ATOM     22  C   UNL     1       1.859   8.282  19.363  0.00  0.00    +0.000 A 
ATOM     23  S   UNL     1       1.042   9.774  19.204  0.00  0.00    +0.000 S 
BRANCH  19  29
ATOM     24  C   UNL     1      -1.668  11.619  19.195  0.00  0.00    +0.000 C 
ATOM     25  N   UNL     1      -1.364  11.580  20.607  0.00  0.00    +0.000 N 
ATOM     26  N   UNL     1      -1.958  12.496  21.401  0.00  0.00    +0.000 NA
ATOM     27  C   UNL     1      -1.515  12.200  22.621  0.00  0.00    +0.000 A 
ATOM     28  C   UNL     1      -0.652  11.093  22.618  0.00  0.00    +0.000 A 
ATOM     29  C   UNL     1      -0.533  10.713  21.290  0.00  0.00    +0.000 A 
ENDBRANCH  19  29
ENDBRANCH   1  22
TORSDOF 4
ENDMDL
MODEL 4
REMARK VINA RESULT:      -8.1      1.095      1.735
REMARK  Name = 
REMARK  5 active torsions:
REMARK  status: ('A' for Active; 'I' for Inactive)
REMARK    1  A    between atoms: C_1  and  N_2
REMARK    2  A    between atoms: C_6  and  C_7
REMARK    3  A    between atoms: C_10  and  C_11
REMARK    4  A    between atoms: N_13  and  C_14
REMARK    5  A    between atoms: C_19  and  C_20
REMARK                            x       y       z     vdW  Elec       q    Type
REMARK                         _______ _______ _______ _____ _____    ______ ____
ROOT
ATOM      1  C   UNL     1       3.348   6.772  19.055  0.00  0.00    +0.000 C 
ATOM      2  O   UNL     1       3.684   5.923  19.876  0.00  0.00    +0.000 OA
ATOM      3  N   UNL     1       3.901   6.820  17.793  0.00  0.00    +0.000 N 
ATOM      4  H   UNL     1       3.624   7.604  17.215  0.00  0.00    +0.000 HD
ENDROOT
BRANCH   3   5
ATOM      5  C   UNL     1       4.920   5.924  17.247  0.00  0.00    +0.000 C 
ATOM      6  C   UNL     1       5.922   6.632  16.315  0.00  0.00    +0.000 C 
ATOM      7  N   UNL     1       7.019   5.740  15.909  0.00  0.00    +0.000 NA
ATOM      8  C   UNL     1       6.492   4.586  15.181  0.00  0.00    +0.000 C 
ATOM      9  C   UNL     1       5.508   3.774  16.024  0.00  0.00    +0.000 C 
ATOM     10  C   UNL     1       4.356   4.637  16.588  0.00  0.00    +0.000 C 
ATOM     11  H   UNL     1       7.523   5.421  16.734  0.00  0.00    +0.000 HD
BRANCH  10  12
ATOM     12  C   UNL     1       3.520   3.835  17.581  0.00  0.00    +0.000 A 
ATOM     13  C   UNL     1       2.122   3.740  17.446  0.00  0.00    +0.000 A 
ATOM     14  C   UNL     1       1.363   2.957  18.315  0.00  0.00    +0.000 A 
ATOM     15  C   UNL     1       1.992   2.261  19.344  0.00  0.00    +0.000 A 
ATOM     16  C   UNL     1       3.369   2.363  19.496  0.00  0.00    +0.000 A 
ATOM     17  F   UNL     1       3.969   1.693  20.489  0.00  0.00    +0.000 F 
ATOM     18  C   UNL     1       4.137   3.140  18.631  0.00  0.00    +0.000 A 
ENDBRANCH  10  12
ENDBRANCH   3   5
BRANCH   1  22
ATOM     19  C   UNL     1       0.697   9.673  19.135  0.00  0.00    +0.000 A 
ATOM     20  C   UNL     1       0.615   9.013  20.349  0.00  0.00    +0.000 A 
ATOM     21  C   UNL     1       1.573   7.954  20.469  0.00  0.00    +0.000 A 
ATOM     22  C   UNL     1       2.322   7.781  19.323  0.00  0.00    +0.000 A 
ATOM     23  S   UNL     1       1.904   8.958  18.156  0.00  0.00    +0.000 S 
BRANCH  19  29
ATOM     24  C   UNL     1      -2.068   9.810  17.587  0.00  0.00    +0.000 C 
ATOM     25  N   UNL     1      -1.235  10.900  18.039  0.00  0.00    +0.000 N 
ATOM     26  N   UNL     1      -1.644  12.157  17.764  0.00  0.00    +0.000 NA
ATOM     27  C   UNL     1      -0.709  12.928  18.315  0.00  0.00    +0.000 A 
ATOM     28  C   UNL     1       0.290  12.176  18.953  0.00  0.00    +0.000 A 
ATOM     29  C   UNL     1      -0.045  10.848  18.739  0.00  0.00    +0.000 A 
ENDBRANCH  19  29
ENDBRANCH   1  22
TORSDOF 4
ENDMDL
MODEL 5
REMARK VINA RESULT:      -8.1      2.396      4.063
REMARK  Name = 
REMARK  5 active torsions:
REMARK  status: ('A' for Active; 'I' for Inactive)
REMARK    1  A    between atoms: C_1  and  N_2
REMARK    2  A    between atoms: C_6  and  C_7
REMARK    3  A    between atoms: C_10  and  C_11
REMARK    4  A    between atoms: N_13  and  C_14
REMARK    5  A    between atoms: C_19  and  C_20
REMARK                            x       y       z     vdW  Elec       q    Type
REMARK                         _______ _______ _______ _____ _____    ______ ____
ROOT
ATOM      1  C   UNL     1       2.236   6.669  19.097  0.00  0.00    +0.000 C 
ATOM      2  O   UNL     1       2.353   6.165  20.210  0.00  0.00    +0.000 OA
ATOM      3  N   UNL     1       2.340   5.920  17.945  0.00  0.00    +0.000 N 
ATOM      4  H   UNL     1       2.313   6.435  17.075  0.00  0.00    +0.000 HD
ENDROOT
BRANCH   3   5
ATOM      5  C   UNL     1       2.595   4.482  17.855  0.00  0.00    +0.000 C 
ATOM      6  C   UNL     1       1.389   3.620  18.279  0.00  0.00    +0.000 C 
ATOM      7  N   UNL     1       1.624   2.189  18.030  0.00  0.00    +0.000 NA
ATOM      8  C   UNL     1       2.780   1.723  18.797  0.00  0.00    +0.000 C 
ATOM      9  C   UNL     1       4.055   2.483  18.433  0.00  0.00    +0.000 C 
ATOM     10  C   UNL     1       3.893   4.014  18.565  0.00  0.00    +0.000 C 
ATOM     11  H   UNL     1       1.790   2.037  17.038  0.00  0.00    +0.000 HD
BRANCH  10  12
ATOM     12  C   UNL     1       5.114   4.735  18.000  0.00  0.00    +0.000 A 
ATOM     13  C   UNL     1       5.300   4.872  16.612  0.00  0.00    +0.000 A 
ATOM     14  C   UNL     1       6.382   5.585  16.094  0.00  0.00    +0.000 A 
ATOM     15  C   UNL     1       7.304   6.166  16.961  0.00  0.00    +0.000 A 
ATOM     16  C   UNL     1       7.137   6.021  18.332  0.00  0.00    +0.000 A 
ATOM     17  F   UNL     1       8.028   6.580  19.162  0.00  0.00    +0.000 F 
ATOM     18  C   UNL     1       6.058   5.314  18.859  0.00  0.00    +0.000 A 
ENDBRANCH  10  12
ENDBRANCH   3   5
BRANCH   1  22
ATOM     19  C   UNL     1       1.201  10.461  19.164  0.00  0.00    +0.000 A 
ATOM     20  C   UNL     1       1.882  10.245  17.977  0.00  0.00    +0.000 A 
ATOM     21  C   UNL     1       2.274   8.878  17.805  0.00  0.00    +0.000 A 
ATOM     22  C   UNL     1       1.947   8.090  18.890  0.00  0.00    +0.000 A 
ATOM     23  S   UNL     1       1.100   9.006  20.057  0.00  0.00    +0.000 S 
BRANCH  19  29
ATOM     24  C   UNL     1      -1.502  11.749  18.117  0.00  0.00    +0.000 C 
ATOM     25  N   UNL     1      -0.584  12.263  19.108  0.00  0.00    +0.000 N 
ATOM     26  N   UNL     1      -0.871  13.458  19.668  0.00  0.00    +0.000 NA
ATOM     27  C   UNL     1       0.116  13.651  20.540  0.00  0.00    +0.000 A 
ATOM     28  C   UNL     1       1.027  12.583  20.554  0.00  0.00    +0.000 A 
ATOM     29  C   UNL     1       0.579  11.693  19.589  0.00  0.00    +0.000 A 
ENDBRANCH  19  29
ENDBRANCH   1  22
TORSDOF 4
ENDMDL
MODEL 6
REMARK VINA RESULT:      -8.1      0.719      1.171
REMARK  Name = 
REMARK  5 active torsions:
REMARK  status: ('A' for Active; 'I' for Inactive)
REMARK    1  A    between atoms: C_1  and  N_2
REMARK    2  A    between atoms: C_6  and  C_7
REMARK    3  A    between atoms: C_10  and  C_11
REMARK    4  A    between atoms: N_13  and  C_14
REMARK    5  A    between atoms: C_19  and  C_20
REMARK                            x       y       z     vdW  Elec       q    Type
REMARK                         _______ _______ _______ _____ _____    ______ ____
ROOT
ATOM      1  C   UNL     1       3.326   6.650  19.124  0.00  0.00    +0.000 C 
ATOM      2  O   UNL     1       3.773   5.839  19.930  0.00  0.00    +0.000 OA
ATOM      3  N   UNL     1       3.757   6.688  17.815  0.00  0.00    +0.000 N 
ATOM      4  H   UNL     1       3.394   7.443  17.249  0.00  0.00    +0.000 HD
ENDROOT
BRANCH   3   5
ATOM      5  C   UNL     1       4.762   5.822  17.199  0.00  0.00    +0.000 C 
ATOM      6  C   UNL     1       5.681   6.561  16.207  0.00  0.00    +0.000 C 
ATOM      7  N   UNL     1       6.773   5.700  15.724  0.00  0.00    +0.000 NA
ATOM      8  C   UNL     1       6.229   4.535  15.025  0.00  0.00    +0.000 C 
ATOM      9  C   UNL     1       5.325   3.694  15.927  0.00  0.00    +0.000 C 
ATOM     10  C   UNL     1       4.191   4.523  16.570  0.00  0.00    +0.000 C 
ATOM     11  H   UNL     1       7.338   5.392  16.512  0.00  0.00    +0.000 HD
BRANCH  10  12
ATOM     12  C   UNL     1       3.444   3.695  17.612  0.00  0.00    +0.000 A 
ATOM     13  C   UNL     1       4.132   3.047  18.656  0.00  0.00    +0.000 A 
ATOM     14  C   UNL     1       3.447   2.341  19.645  0.00  0.00    +0.000 A 
ATOM     15  C   UNL     1       2.057   2.265  19.600  0.00  0.00    +0.000 A 
ATOM     16  C   UNL     1       1.371   2.887  18.564  0.00  0.00    +0.000 A 
ATOM     17  F   UNL     1       0.035   2.809  18.525  0.00  0.00    +0.000 F 
ATOM     18  C   UNL     1       2.046   3.597  17.574  0.00  0.00    +0.000 A 
ENDBRANCH  10  12
ENDBRANCH   3   5
BRANCH   1  22
ATOM     19  C   UNL     1       0.618   9.486  19.404  0.00  0.00    +0.000 A 
ATOM     20  C   UNL     1       0.569   8.759  20.581  0.00  0.00    +0.000 A 
ATOM     21  C   UNL     1       1.550   7.715  20.628  0.00  0.00    +0.000 A 
ATOM     22  C   UNL     1       2.283   7.621  19.463  0.00  0.00    +0.000 A 
ATOM     23  S   UNL     1       1.823   8.851  18.369  0.00  0.00    +0.000 S 
BRANCH  19  29
ATOM     24  C   UNL     1      -1.684   9.789  17.242  0.00  0.00    +0.000 C 
ATOM     25  N   UNL     1      -1.136  10.796  18.121  0.00  0.00    +0.000 N 
ATOM     26  N   UNL     1      -1.629  12.050  18.021  0.00  0.00    +0.000 NA
ATOM     27  C   UNL     1      -0.964  12.732  18.951  0.00  0.00    +0.000 A 
ATOM     28  C   UNL     1      -0.059  11.923  19.657  0.00  0.00    +0.000 A 
ATOM     29  C   UNL     1      -0.155  10.664  19.084  0.00  0.00    +0.000 A 
ENDBRANCH  19  29
ENDBRANCH   1  22
TORSDOF 4
ENDMDL
MODEL 7
REMARK VINA RESULT:      -8.0      1.758      2.150
REMARK  Name = 
REMARK  5 active torsions:
REMARK  status: ('A' for Active; 'I' for Inactive)
REMARK    1  A    between atoms: C_1  and  N_2
REMARK    2  A    between atoms: C_6  and  C_7
REMARK    3  A    between atoms: C_10  and  C_11
REMARK    4  A    between atoms: N_13  and  C_14
REMARK    5  A    between atoms: C_19  and  C_20
REMARK                            x       y       z     vdW  Elec       q    Type
REMARK                         _______ _______ _______ _____ _____    ______ ____
ROOT
ATOM      1  C   UNL     1       3.080   7.668  17.906  0.00  0.00    +0.000 C 
ATOM      2  O   UNL     1       3.077   7.946  16.711  0.00  0.00    +0.000 OA
ATOM      3  N   UNL     1       3.971   6.761  18.439  0.00  0.00    +0.000 N 
ATOM      4  H   UNL     1       3.844   6.533  19.416  0.00  0.00    +0.000 HD
ENDROOT
BRANCH   3   5
ATOM      5  C   UNL     1       5.003   6.018  17.715  0.00  0.00    +0.000 C 
ATOM      6  C   UNL     1       6.068   6.924  17.066  0.00  0.00    +0.000 C 
ATOM      7  N   UNL     1       7.169   6.144  16.481  0.00  0.00    +0.000 NA
ATOM      8  C   UNL     1       6.662   5.255  15.435  0.00  0.00    +0.000 C 
ATOM      9  C   UNL     1       5.619   4.274  15.970  0.00  0.00    +0.000 C 
ATOM     10  C   UNL     1       4.454   4.984  16.696  0.00  0.00    +0.000 C 
ATOM     11  H   UNL     1       7.621   5.593  17.207  0.00  0.00    +0.000 HD
BRANCH  10  12
ATOM     12  C   UNL     1       3.550   3.965  17.386  0.00  0.00    +0.000 A 
ATOM     13  C   UNL     1       2.185   4.234  17.603  0.00  0.00    +0.000 A 
ATOM     14  C   UNL     1       1.343   3.280  18.176  0.00  0.00    +0.000 A 
ATOM     15  C   UNL     1       1.857   2.042  18.551  0.00  0.00    +0.000 A 
ATOM     16  C   UNL     1       3.206   1.775  18.356  0.00  0.00    +0.000 A 
ATOM     17  F   UNL     1       3.696   0.583  18.720  0.00  0.00    +0.000 F 
ATOM     18  C   UNL     1       4.055   2.719  17.781  0.00  0.00    +0.000 A 
ENDBRANCH  10  12
ENDBRANCH   3   5
BRANCH   1  22
ATOM     19  C   UNL     1       0.525   9.783  20.017  0.00  0.00    +0.000 A 
ATOM     20  C   UNL     1       0.863   8.675  20.776  0.00  0.00    +0.000 A 
ATOM     21  C   UNL     1       1.835   7.840  20.135  0.00  0.00    +0.000 A 
ATOM     22  C   UNL     1       2.172   8.287  18.874  0.00  0.00    +0.000 A 
ATOM     23  S   UNL     1       1.363   9.752  18.525  0.00  0.00    +0.000 S 
BRANCH  19  29
ATOM     24  C   UNL     1      -2.047  10.886  18.524  0.00  0.00    +0.000 C 
ATOM     25  N   UNL     1      -1.439  11.365  19.743  0.00  0.00    +0.000 N 
ATOM     26  N   UNL     1      -1.999  12.438  20.343  0.00  0.00    +0.000 NA
ATOM     27  C   UNL     1      -1.254  12.625  21.430  0.00  0.00    +0.000 A 
ATOM     28  C   UNL     1      -0.229  11.673  21.541  0.00  0.00    +0.000 A 
ATOM     29  C   UNL     1      -0.337  10.871  20.414  0.00  0.00    +0.000 A 
ENDBRANCH  19  29
ENDBRANCH   1  22
TORSDOF 4
ENDMDL
MODEL 8
REMARK VINA RESULT:      -8.0      2.437      3.991
REMARK  Name = 
REMARK  5 active torsions:
REMARK  status: ('A' for Active; 'I' for Inactive)
REMARK    1  A    between atoms: C_1  and  N_2
REMARK    2  A    between atoms: C_6  and  C_7
REMARK    3  A    between atoms: C_10  and  C_11
REMARK    4  A    between atoms: N_13  and  C_14
REMARK    5  A    between atoms: C_19  and  C_20
REMARK                            x       y       z     vdW  Elec       q    Type
REMARK                         _______ _______ _______ _____ _____    ______ ____
ROOT
ATOM      1  C   UNL     1       2.064   6.281  19.937  0.00  0.00    +0.000 C 
ATOM      2  O   UNL     1       2.224   5.499  20.870  0.00  0.00    +0.000 OA
ATOM      3  N   UNL     1       2.227   5.891  18.625  0.00  0.00    +0.000 N 
ATOM      4  H   UNL     1       2.156   6.623  17.931  0.00  0.00    +0.000 HD
ENDROOT
BRANCH   3   5
ATOM      5  C   UNL     1       2.596   4.559  18.147  0.00  0.00    +0.000 C 
ATOM      6  C   UNL     1       1.529   3.486  18.439  0.00  0.00    +0.000 C 
ATOM      7  N   UNL     1       1.860   2.197  17.811  0.00  0.00    +0.000 NA
ATOM      8  C   UNL     1       3.133   1.693  18.329  0.00  0.00    +0.000 C 
ATOM      9  C   UNL     1       4.286   2.661  18.062  0.00  0.00    +0.000 C 
ATOM     10  C   UNL     1       4.003   4.083  18.596  0.00  0.00    +0.000 C 
ATOM     11  H   UNL     1       1.925   2.315  16.803  0.00  0.00    +0.000 HD
BRANCH  10  12
ATOM     12  C   UNL     1       5.083   5.056  18.131  0.00  0.00    +0.000 A 
ATOM     13  C   UNL     1       4.910   5.834  16.971  0.00  0.00    +0.000 A 
ATOM     14  C   UNL     1       5.867   6.770  16.578  0.00  0.00    +0.000 A 
ATOM     15  C   UNL     1       7.022   6.936  17.338  0.00  0.00    +0.000 A 
ATOM     16  C   UNL     1       7.209   6.160  18.475  0.00  0.00    +0.000 A 
ATOM     17  F   UNL     1       8.322   6.322  19.202  0.00  0.00    +0.000 F 
ATOM     18  C   UNL     1       6.257   5.225  18.878  0.00  0.00    +0.000 A 
ENDBRANCH  10  12
ENDBRANCH   3   5
BRANCH   1  22
ATOM     19  C   UNL     1       1.044  10.074  19.769  0.00  0.00    +0.000 A 
ATOM     20  C   UNL     1       0.895   9.670  21.085  0.00  0.00    +0.000 A 
ATOM     21  C   UNL     1       1.286   8.307  21.293  0.00  0.00    +0.000 A 
ATOM     22  C   UNL     1       1.661   7.677  20.124  0.00  0.00    +0.000 A 
ATOM     23  S   UNL     1       1.609   8.772  18.814  0.00  0.00    +0.000 S 
BRANCH  19  29
ATOM     24  C   UNL     1      -1.612  11.327  18.571  0.00  0.00    +0.000 C 
ATOM     25  N   UNL     1      -0.308  11.936  18.700  0.00  0.00    +0.000 N 
ATOM     26  N   UNL     1      -0.156  13.196  18.239  0.00  0.00    +0.000 NA
ATOM     27  C   UNL     1       1.113  13.489  18.513  0.00  0.00    +0.000 A 
ATOM     28  C   UNL     1       1.774  12.432  19.158  0.00  0.00    +0.000 A 
ATOM     29  C   UNL     1       0.845  11.406  19.247  0.00  0.00    +0.000 A 
ENDBRANCH  19  29
ENDBRANCH   1  22
TORSDOF 4
ENDMDL
MODEL 9
REMARK VINA RESULT:      -8.0      1.839      1.988
REMARK  Name = 
REMARK  5 active torsions:
REMARK  status: ('A' for Active; 'I' for Inactive)
REMARK    1  A    between atoms: C_1  and  N_2
REMARK    2  A    between atoms: C_6  and  C_7
REMARK    3  A    between atoms: C_10  and  C_11
REMARK    4  A    between atoms: N_13  and  C_14
REMARK    5  A    between atoms: C_19  and  C_20
REMARK                            x       y       z     vdW  Elec       q    Type
REMARK                         _______ _______ _______ _____ _____    ______ ____
ROOT
ATOM      1  C   UNL     1       2.825   7.740  18.080  0.00  0.00    +0.000 C 
ATOM      2  O   UNL     1       2.839   8.103  16.908  0.00  0.00    +0.000 OA
ATOM      3  N   UNL     1       3.665   6.750  18.544  0.00  0.00    +0.000 N 
ATOM      4  H   UNL     1       3.525   6.460  19.502  0.00  0.00    +0.000 HD
ENDROOT
BRANCH   3   5
ATOM      5  C   UNL     1       4.656   6.007  17.766  0.00  0.00    +0.000 C 
ATOM      6  C   UNL     1       5.510   6.903  16.847  0.00  0.00    +0.000 C 
ATOM      7  N   UNL     1       6.594   6.148  16.199  0.00  0.00    +0.000 NA
ATOM      8  C   UNL     1       6.042   5.078  15.367  0.00  0.00    +0.000 C 
ATOM      9  C   UNL     1       5.201   4.095  16.181  0.00  0.00    +0.000 C 
ATOM     10  C   UNL     1       4.082   4.794  16.986  0.00  0.00    +0.000 C 
ATOM     11  H   UNL     1       7.204   5.748  16.908  0.00  0.00    +0.000 HD
BRANCH  10  12
ATOM     12  C   UNL     1       3.405   3.807  17.933  0.00  0.00    +0.000 A 
ATOM     13  C   UNL     1       4.101   3.249  19.022  0.00  0.00    +0.000 A 
ATOM     14  C   UNL     1       3.467   2.396  19.926  0.00  0.00    +0.000 A 
ATOM     15  C   UNL     1       2.122   2.080  19.748  0.00  0.00    +0.000 A 
ATOM     16  C   UNL     1       1.432   2.613  18.667  0.00  0.00    +0.000 A 
ATOM     17  F   UNL     1       0.140   2.304  18.500  0.00  0.00    +0.000 F 
ATOM     18  C   UNL     1       2.056   3.468  17.761  0.00  0.00    +0.000 A 
ENDBRANCH  10  12
ENDBRANCH   3   5
BRANCH   1  22
ATOM     19  C   UNL     1       0.312   9.780  20.311  0.00  0.00    +0.000 A 
ATOM     20  C   UNL     1       0.740   8.699  21.063  0.00  0.00    +0.000 A 
ATOM     21  C   UNL     1       1.707   7.895  20.377  0.00  0.00    +0.000 A 
ATOM     22  C   UNL     1       1.950   8.336  19.092  0.00  0.00    +0.000 A 
ATOM     23  S   UNL     1       1.062   9.761  18.773  0.00  0.00    +0.000 S 
BRANCH  19  29
ATOM     24  C   UNL     1      -0.810  10.316  23.229  0.00  0.00    +0.000 C 
ATOM     25  N   UNL     1      -1.078  11.049  22.012  0.00  0.00    +0.000 N 
ATOM     26  N   UNL     1      -1.932  12.093  22.085  0.00  0.00    +0.000 NA
ATOM     27  C   UNL     1      -1.958  12.574  20.844  0.00  0.00    +0.000 A 
ATOM     28  C   UNL     1      -1.117  11.856  19.979  0.00  0.00    +0.000 A 
ATOM     29  C   UNL     1      -0.569  10.839  20.745  0.00  0.00    +0.000 A 
ENDBRANCH  19  29
ENDBRANCH   1  22
TORSDOF 4
ENDMDL
