MODEL 1
REMARK VINA RESULT:      -8.7      0.000      0.000
REMARK  Name = 
REMARK  6 active torsions:
REMARK  status: ('A' for Active; 'I' for Inactive)
REMARK    1  A    between atoms: C_6  and  N_7
REMARK    2  A    between atoms: N_7  and  C_8
REMARK    3  A    between atoms: C_8  and  C_9
REMARK    4  A    between atoms: C_9  and  O_10
REMARK    5  A    between atoms: C_16  and  C_17
REMARK    6  A    between atoms: C_17  and  C_18
REMARK                            x       y       z     vdW  Elec       q    Type
REMARK                         _______ _______ _______ _____ _____    ______ ____
ROOT
ATOM      1  N   UNL     1       2.137   2.920  22.135  0.00  0.00    +0.000 N 
ATOM      2  C   UNL     1       2.352   3.793  21.156  0.00  0.00    +0.000 A 
ATOM      3  N   UNL     1       1.830   5.051  21.251  0.00  0.00    +0.000 NA
ATOM      4  C   UNL     1       2.222   5.614  20.123  0.00  0.00    +0.000 A 
ATOM      5  C   UNL     1       2.051   6.956  19.567  0.00  0.00    +0.000 A 
ATOM      6  C   UNL     1       1.423   8.048  20.223  0.00  0.00    +0.000 A 
ATOM      7  C   UNL     1       1.451   9.290  19.558  0.00  0.00    +0.000 A 
ATOM      8  C   UNL     1       1.974   9.445  18.275  0.00  0.00    +0.000 A 
ATOM      9  C   UNL     1       2.532   8.359  17.622  0.00  0.00    +0.000 A 
ATOM     10  C   UNL     1       2.594   7.121  18.253  0.00  0.00    +0.000 A 
ATOM     11  N   UNL     1       3.224   6.076  17.524  0.00  0.00    +0.000 NA
ATOM     12  C   UNL     1       3.369   4.911  18.089  0.00  0.00    +0.000 A 
ATOM     13  N   UNL     1       2.904   4.677  19.379  0.00  0.00    +0.000 N 
ATOM     14  N   UNL     1       3.064   3.536  20.069  0.00  0.00    +0.000 NA
ATOM     15  H   UNL     1       1.769   3.255  23.012  0.00  0.00    +0.000 HD
ATOM     16  H   UNL     1       2.743   2.108  22.195  0.00  0.00    +0.000 HD
ENDROOT
BRANCH   6  17
ATOM     17  N   UNL     1       0.906   7.960  21.549  0.00  0.00    +0.000 N 
ATOM     18  H   UNL     1       0.976   6.994  21.888  0.00  0.00    +0.000 HD
BRANCH  17  19
ATOM     19  C   UNL     1      -0.428   8.573  21.752  0.00  0.00    +0.000 C 
BRANCH  19  20
ATOM     20  C   UNL     1      -0.431   9.664  22.828  0.00  0.00    +0.000 C 
BRANCH  20  21
ATOM     21  O   UNL     1       0.790   9.664  23.561  0.00  0.00    +0.000 OA
ATOM     22  H   UNL     1       0.844  10.543  23.987  0.00  0.00    +0.000 HD
ENDBRANCH  20  21
ENDBRANCH  19  20
ENDBRANCH  17  19
ENDBRANCH   6  17
BRANCH  12  23
ATOM     23  C   UNL     1       4.009   3.741  17.378  0.00  0.00    +0.000 C 
BRANCH  23  24
ATOM     24  C   UNL     1       5.192   4.157  16.528  0.00  0.00    +0.000 A 
ATOM     25  C   UNL     1       6.218   4.967  17.066  0.00  0.00    +0.000 A 
ATOM     26  C   UNL     1       7.262   5.439  16.259  0.00  0.00    +0.000 A 
ATOM     27  C   UNL     1       7.249   5.098  14.925  0.00  0.00    +0.000 A 
ATOM     28  C   UNL     1       6.271   4.289  14.399  0.00  0.00    +0.000 A 
ATOM     29  C   UNL     1       5.246   3.791  15.172  0.00  0.00    +0.000 A 
ATOM     30  O   UNL     1       6.431   4.077  13.065  0.00  0.00    +0.000 OA
ATOM     31  C   UNL     1       7.587   4.896  12.801  0.00  0.00    +0.000 C 
ATOM     32  O   UNL     1       8.145   5.503  13.986  0.00  0.00    +0.000 OA
ENDBRANCH  23  24
ENDBRANCH  12  23
TORSDOF 6
ENDMDL
MODEL 2
REMARK VINA RESULT:      -7.9      3.992      7.836
REMARK  Name = 
REMARK  6 active torsions:
REMARK  status: ('A' for Active; 'I' for Inactive)
REMARK    1  A    between atoms: C_6  and  N_7
REMARK    2  A    between atoms: N_7  and  C_8
REMARK    3  A    between atoms: C_8  and  C_9
REMARK    4  A    between atoms: C_9  and  O_10
REMARK    5  A    between atoms: C_16  and  C_17
REMARK    6  A    between atoms: C_17  and  C_18
REMARK                            x       y       z     vdW  Elec       q    Type
REMARK                         _______ _______ _______ _____ _____    ______ ____
ROOT
ATOM      1  N   UNL     1      -0.770   9.258  23.093  0.00  0.00    +0.000 N 
ATOM      2  C   UNL     1      -0.109   9.178  21.942  0.00  0.00    +0.000 A 
ATOM      3  N   UNL     1       0.684   8.093  21.698  0.00  0.00    +0.000 NA
ATOM      4  C   UNL     1       1.180   8.358  20.504  0.00  0.00    +0.000 A 
ATOM      5  C   UNL     1       2.078   7.625  19.612  0.00  0.00    +0.000 A 
ATOM      6  C   UNL     1       2.596   6.325  19.849  0.00  0.00    +0.000 A 
ATOM      7  C   UNL     1       3.365   5.749  18.817  0.00  0.00    +0.000 A 
ATOM      8  C   UNL     1       3.698   6.439  17.653  0.00  0.00    +0.000 A 
ATOM      9  C   UNL     1       3.234   7.730  17.459  0.00  0.00    +0.000 A 
ATOM     10  C   UNL     1       2.416   8.327  18.412  0.00  0.00    +0.000 A 
ATOM     11  N   UNL     1       1.952   9.637  18.107  0.00  0.00    +0.000 NA
ATOM     12  C   UNL     1       1.131  10.222  18.931  0.00  0.00    +0.000 A 
ATOM     13  N   UNL     1       0.721   9.593  20.102  0.00  0.00    +0.000 N 
ATOM     14  N   UNL     1      -0.170  10.085  20.980  0.00  0.00    +0.000 NA
ATOM     15  H   UNL     1      -0.835   8.438  23.674  0.00  0.00    +0.000 HD
ATOM     16  H   UNL     1      -1.554   9.900  23.151  0.00  0.00    +0.000 HD
ENDROOT
BRANCH   6  17
ATOM     17  N   UNL     1       2.259   5.555  21.001  0.00  0.00    +0.000 N 
ATOM     18  H   UNL     1       3.074   5.480  21.621  0.00  0.00    +0.000 HD
BRANCH  17  19
ATOM     19  C   UNL     1       1.590   4.262  20.728  0.00  0.00    +0.000 C 
BRANCH  19  20
ATOM     20  C   UNL     1       2.293   3.070  21.386  0.00  0.00    +0.000 C 
BRANCH  20  21
ATOM     21  O   UNL     1       1.413   2.379  22.268  0.00  0.00    +0.000 OA
ATOM     22  H   UNL     1       1.911   1.596  22.579  0.00  0.00    +0.000 HD
ENDBRANCH  20  21
ENDBRANCH  19  20
ENDBRANCH  17  19
ENDBRANCH   6  17
BRANCH  12  23
ATOM     23  C   UNL     1       0.605  11.619  18.694  0.00  0.00    +0.000 C 
BRANCH  23  24
ATOM     24  C   UNL     1       1.586  12.688  19.131  0.00  0.00    +0.000 A 
ATOM     25  C   UNL     1       2.470  13.280  18.199  0.00  0.00    +0.000 A 
ATOM     26  C   UNL     1       3.447  14.195  18.614  0.00  0.00    +0.000 A 
ATOM     27  C   UNL     1       3.526  14.488  19.957  0.00  0.00    +0.000 A 
ATOM     28  C   UNL     1       2.654  13.939  20.866  0.00  0.00    +0.000 A 
ATOM     29  C   UNL     1       1.668  13.055  20.485  0.00  0.00    +0.000 A 
ATOM     30  O   UNL     1       2.900  14.348  22.138  0.00  0.00    +0.000 OA
ATOM     31  C   UNL     1       4.067  15.169  21.935  0.00  0.00    +0.000 C 
ATOM     32  O   UNL     1       4.437  15.307  20.546  0.00  0.00    +0.000 OA
ENDBRANCH  23  24
ENDBRANCH  12  23
TORSDOF 6
ENDMDL
MODEL 3
REMARK VINA RESULT:      -7.9      3.892      8.388
REMARK  Name = 
REMARK  6 active torsions:
REMARK  status: ('A' for Active; 'I' for Inactive)
REMARK    1  A    between atoms: C_6  and  N_7
REMARK    2  A    between atoms: N_7  and  C_8
REMARK    3  A    between atoms: C_8  and  C_9
REMARK    4  A    between atoms: C_9  and  O_10
REMARK    5  A    between atoms: C_16  and  C_17
REMARK    6  A    between atoms: C_17  and  C_18
REMARK                            x       y       z     vdW  Elec       q    Type
REMARK                         _______ _______ _______ _____ _____    ______ ____
ROOT
ATOM      1  N   UNL     1      -0.668   8.861  23.076  0.00  0.00    +0.000 N 
ATOM      2  C   UNL     1      -0.060   8.843  21.894  0.00  0.00    +0.000 A 
ATOM      3  N   UNL     1       0.832   7.846  21.614  0.00  0.00    +0.000 NA
ATOM      4  C   UNL     1       1.237   8.154  20.396  0.00  0.00    +0.000 A 
ATOM      5  C   UNL     1       2.163   7.513  19.462  0.00  0.00    +0.000 A 
ATOM      6  C   UNL     1       2.829   6.277  19.676  0.00  0.00    +0.000 A 
ATOM      7  C   UNL     1       3.603   5.779  18.609  0.00  0.00    +0.000 A 
ATOM      8  C   UNL     1       3.803   6.491  17.428  0.00  0.00    +0.000 A 
ATOM      9  C   UNL     1       3.195   7.723  17.254  0.00  0.00    +0.000 A 
ATOM     10  C   UNL     1       2.366   8.238  18.244  0.00  0.00    +0.000 A 
ATOM     11  N   UNL     1       1.750   9.488  17.960  0.00  0.00    +0.000 NA
ATOM     12  C   UNL     1       0.913   9.989  18.823  0.00  0.00    +0.000 A 
ATOM     13  N   UNL     1       0.630   9.330  20.014  0.00  0.00    +0.000 N 
ATOM     14  N   UNL     1      -0.263   9.731  20.933  0.00  0.00    +0.000 NA
ATOM     15  H   UNL     1      -0.617   8.043  23.661  0.00  0.00    +0.000 HD
ATOM     16  H   UNL     1      -1.512   9.417  23.171  0.00  0.00    +0.000 HD
ENDROOT
BRANCH   6  17
ATOM     17  N   UNL     1       2.633   5.485  20.846  0.00  0.00    +0.000 N 
ATOM     18  H   UNL     1       3.525   5.074  21.142  0.00  0.00    +0.000 HD
BRANCH  17  19
ATOM     19  C   UNL     1       1.517   4.513  20.775  0.00  0.00    +0.000 C 
BRANCH  19  20
ATOM     20  C   UNL     1       1.970   3.062  20.965  0.00  0.00    +0.000 C 
BRANCH  20  21
ATOM     21  O   UNL     1       2.617   2.887  22.221  0.00  0.00    +0.000 OA
ATOM     22  H   UNL     1       2.367   3.666  22.759  0.00  0.00    +0.000 HD
ENDBRANCH  20  21
ENDBRANCH  19  20
ENDBRANCH  17  19
ENDBRANCH   6  17
BRANCH  12  23
ATOM     23  C   UNL     1       0.230  11.321  18.608  0.00  0.00    +0.000 C 
BRANCH  23  24
ATOM     24  C   UNL     1      -1.252  11.173  18.330  0.00  0.00    +0.000 A 
ATOM     25  C   UNL     1      -1.711  10.330  17.292  0.00  0.00    +0.000 A 
ATOM     26  C   UNL     1      -3.072  10.266  16.964  0.00  0.00    +0.000 A 
ATOM     27  C   UNL     1      -3.944  11.059  17.676  0.00  0.00    +0.000 A 
ATOM     28  C   UNL     1      -3.511  11.861  18.704  0.00  0.00    +0.000 A 
ATOM     29  C   UNL     1      -2.183  11.927  19.065  0.00  0.00    +0.000 A 
ATOM     30  O   UNL     1      -4.521  12.569  19.275  0.00  0.00    +0.000 OA
ATOM     31  C   UNL     1      -5.631  12.168  18.447  0.00  0.00    +0.000 C 
ATOM     32  O   UNL     1      -5.282  11.167  17.466  0.00  0.00    +0.000 OA
ENDBRANCH  23  24
ENDBRANCH  12  23
TORSDOF 6
ENDMDL
MODEL 4
REMARK VINA RESULT:      -7.8      3.864      7.492
REMARK  Name = 
REMARK  6 active torsions:
REMARK  status: ('A' for Active; 'I' for Inactive)
REMARK    1  A    between atoms: C_6  and  N_7
REMARK    2  A    between atoms: N_7  and  C_8
REMARK    3  A    between atoms: C_8  and  C_9
REMARK    4  A    between atoms: C_9  and  O_10
REMARK    5  A    between atoms: C_16  and  C_17
REMARK    6  A    between atoms: C_17  and  C_18
REMARK                            x       y       z     vdW  Elec       q    Type
REMARK                         _______ _______ _______ _____ _____    ______ ____
ROOT
ATOM      1  N   UNL     1      -0.709   9.041  22.970  0.00  0.00    +0.000 N 
ATOM      2  C   UNL     1      -0.027   8.983  21.831  0.00  0.00    +0.000 A 
ATOM      3  N   UNL     1       0.752   7.892  21.570  0.00  0.00    +0.000 NA
ATOM      4  C   UNL     1       1.276   8.184  20.395  0.00  0.00    +0.000 A 
ATOM      5  C   UNL     1       2.179   7.461  19.498  0.00  0.00    +0.000 A 
ATOM      6  C   UNL     1       2.669   6.144  19.706  0.00  0.00    +0.000 A 
ATOM      7  C   UNL     1       3.448   5.586  18.673  0.00  0.00    +0.000 A 
ATOM      8  C   UNL     1       3.817   6.304  17.536  0.00  0.00    +0.000 A 
ATOM      9  C   UNL     1       3.380   7.608  17.372  0.00  0.00    +0.000 A 
ATOM     10  C   UNL     1       2.553   8.192  18.327  0.00  0.00    +0.000 A 
ATOM     11  N   UNL     1       2.119   9.518  18.053  0.00  0.00    +0.000 NA
ATOM     12  C   UNL     1       1.292  10.094  18.878  0.00  0.00    +0.000 A 
ATOM     13  N   UNL     1       0.847   9.438  20.021  0.00  0.00    +0.000 N 
ATOM     14  N   UNL     1      -0.052   9.920  20.895  0.00  0.00    +0.000 NA
ATOM     15  H   UNL     1      -0.801   8.206  23.525  0.00  0.00    +0.000 HD
ATOM     16  H   UNL     1      -1.483   9.696  23.032  0.00  0.00    +0.000 HD
ENDROOT
BRANCH   6  17
ATOM     17  N   UNL     1       2.295   5.347  20.828  0.00  0.00    +0.000 N 
ATOM     18  H   UNL     1       3.131   4.929  21.252  0.00  0.00    +0.000 HD
BRANCH  17  19
ATOM     19  C   UNL     1       1.197   4.383  20.584  0.00  0.00    +0.000 C 
BRANCH  19  20
ATOM     20  C   UNL     1       1.396   3.049  21.312  0.00  0.00    +0.000 C 
BRANCH  20  21
ATOM     21  O   UNL     1       2.487   3.120  22.223  0.00  0.00    +0.000 OA
ATOM     22  H   UNL     1       2.467   4.027  22.591  0.00  0.00    +0.000 HD
ENDBRANCH  20  21
ENDBRANCH  19  20
ENDBRANCH  17  19
ENDBRANCH   6  17
BRANCH  12  23
ATOM     23  C   UNL     1       0.796  11.507  18.673  0.00  0.00    +0.000 C 
BRANCH  23  24
ATOM     24  C   UNL     1       1.815  12.545  19.097  0.00  0.00    +0.000 A 
ATOM     25  C   UNL     1       1.916  12.946  20.449  0.00  0.00    +0.000 A 
ATOM     26  C   UNL     1       2.785  13.976  20.832  0.00  0.00    +0.000 A 
ATOM     27  C   UNL     1       3.526  14.593  19.848  0.00  0.00    +0.000 A 
ATOM     28  C   UNL     1       3.454  14.192  18.536  0.00  0.00    +0.000 A 
ATOM     29  C   UNL     1       2.627  13.167  18.133  0.00  0.00    +0.000 A 
ATOM     30  O   UNL     1       4.255  14.929  17.721  0.00  0.00    +0.000 OA
ATOM     31  C   UNL     1       4.791  15.880  18.661  0.00  0.00    +0.000 C 
ATOM     32  O   UNL     1       4.377  15.638  20.023  0.00  0.00    +0.000 OA
ENDBRANCH  23  24
ENDBRANCH  12  23
TORSDOF 6
ENDMDL
MODEL 5
REMARK VINA RESULT:      -7.8      3.162      7.854
REMARK  Name = 
REMARK  6 active torsions:
REMARK  status: ('A' for Active; 'I' for Inactive)
REMARK    1  A    between atoms: C_6  and  N_7
REMARK    2  A    between atoms: N_7  and  C_8
REMARK    3  A    between atoms: C_8  and  C_9
REMARK    4  A    between atoms: C_9  and  O_10
REMARK    5  A    between atoms: C_16  and  C_17
REMARK    6  A    between atoms: C_17  and  C_18
REMARK                            x       y       z     vdW  Elec       q    Type
REMARK                         _______ _______ _______ _____ _____    ______ ____
ROOT
ATOM      1  N   UNL     1       5.842   6.002  15.233  0.00  0.00    +0.000 N 
ATOM      2  C   UNL     1       5.026   6.128  16.274  0.00  0.00    +0.000 A 
ATOM      3  N   UNL     1       4.773   5.042  17.063  0.00  0.00    +0.000 NA
ATOM      4  C   UNL     1       3.933   5.524  17.959  0.00  0.00    +0.000 A 
ATOM      5  C   UNL     1       3.271   4.935  19.124  0.00  0.00    +0.000 A 
ATOM      6  C   UNL     1       3.470   3.614  19.606  0.00  0.00    +0.000 A 
ATOM      7  C   UNL     1       2.814   3.270  20.805  0.00  0.00    +0.000 A 
ATOM      8  C   UNL     1       1.928   4.131  21.452  0.00  0.00    +0.000 A 
ATOM      9  C   UNL     1       1.698   5.397  20.939  0.00  0.00    +0.000 A 
ATOM     10  C   UNL     1       2.367   5.818  19.795  0.00  0.00    +0.000 A 
ATOM     11  N   UNL     1       2.101   7.148  19.367  0.00  0.00    +0.000 NA
ATOM     12  C   UNL     1       2.746   7.621  18.340  0.00  0.00    +0.000 A 
ATOM     13  N   UNL     1       3.671   6.841  17.653  0.00  0.00    +0.000 N 
ATOM     14  N   UNL     1       4.431   7.257  16.626  0.00  0.00    +0.000 NA
ATOM     15  H   UNL     1       6.411   5.174  15.158  0.00  0.00    +0.000 HD
ATOM     16  H   UNL     1       6.240   6.846  14.832  0.00  0.00    +0.000 HD
ENDROOT
BRANCH   6  17
ATOM     17  N   UNL     1       4.391   2.703  19.011  0.00  0.00    +0.000 N 
ATOM     18  H   UNL     1       5.117   3.223  18.504  0.00  0.00    +0.000 HD
BRANCH  17  19
ATOM     19  C   UNL     1       3.780   1.604  18.227  0.00  0.00    +0.000 C 
BRANCH  19  20
ATOM     20  C   UNL     1       2.528   2.038  17.457  0.00  0.00    +0.000 C 
BRANCH  20  21
ATOM     21  O   UNL     1       1.344   1.614  18.125  0.00  0.00    +0.000 OA
ATOM     22  H   UNL     1       1.646   1.065  18.877  0.00  0.00    +0.000 HD
ENDBRANCH  20  21
ENDBRANCH  19  20
ENDBRANCH  17  19
ENDBRANCH   6  17
BRANCH  12  23
ATOM     23  C   UNL     1       2.509   9.015  17.807  0.00  0.00    +0.000 C 
BRANCH  23  24
ATOM     24  C   UNL     1       1.237   9.634  18.349  0.00  0.00    +0.000 A 
ATOM     25  C   UNL     1       0.010   9.478  17.662  0.00  0.00    +0.000 A 
ATOM     26  C   UNL     1      -1.150  10.129  18.102  0.00  0.00    +0.000 A 
ATOM     27  C   UNL     1      -1.053  10.935  19.215  0.00  0.00    +0.000 A 
ATOM     28  C   UNL     1       0.128  11.071  19.904  0.00  0.00    +0.000 A 
ATOM     29  C   UNL     1       1.279  10.425  19.509  0.00  0.00    +0.000 A 
ATOM     30  O   UNL     1       0.019  11.914  20.965  0.00  0.00    +0.000 OA
ATOM     31  C   UNL     1      -1.351  12.341  20.828  0.00  0.00    +0.000 C 
ATOM     32  O   UNL     1      -2.053  11.681  19.753  0.00  0.00    +0.000 OA
ENDBRANCH  23  24
ENDBRANCH  12  23
TORSDOF 6
ENDMDL
MODEL 6
REMARK VINA RESULT:      -7.8      3.916      7.494
REMARK  Name = 
REMARK  6 active torsions:
REMARK  status: ('A' for Active; 'I' for Inactive)
REMARK    1  A    between atoms: C_6  and  N_7
REMARK    2  A    between atoms: N_7  and  C_8
REMARK    3  A    between atoms: C_8  and  C_9
REMARK    4  A    between atoms: C_9  and  O_10
REMARK    5  A    between atoms: C_16  and  C_17
REMARK    6  A    between atoms: C_17  and  C_18
REMARK                            x       y       z     vdW  Elec       q    Type
REMARK                         _______ _______ _______ _____ _____    ______ ____
ROOT
ATOM      1  N   UNL     1       7.746   5.752  18.822  0.00  0.00    +0.000 N 
ATOM      2  C   UNL     1       6.438   5.532  18.733  0.00  0.00    +0.000 A 
ATOM      3  N   UNL     1       5.958   4.265  18.910  0.00  0.00    +0.000 NA
ATOM      4  C   UNL     1       4.659   4.422  18.737  0.00  0.00    +0.000 A 
ATOM      5  C   UNL     1       3.525   3.499  18.809  0.00  0.00    +0.000 A 
ATOM      6  C   UNL     1       3.598   2.130  19.177  0.00  0.00    +0.000 A 
ATOM      7  C   UNL     1       2.376   1.436  19.285  0.00  0.00    +0.000 A 
ATOM      8  C   UNL     1       1.150   2.013  18.955  0.00  0.00    +0.000 A 
ATOM      9  C   UNL     1       1.099   3.333  18.541  0.00  0.00    +0.000 A 
ATOM     10  C   UNL     1       2.264   4.090  18.479  0.00  0.00    +0.000 A 
ATOM     11  N   UNL     1       2.110   5.448  18.086  0.00  0.00    +0.000 NA
ATOM     12  C   UNL     1       3.156   6.223  18.071  0.00  0.00    +0.000 A 
ATOM     13  N   UNL     1       4.413   5.738  18.415  0.00  0.00    +0.000 N 
ATOM     14  N   UNL     1       5.536   6.471  18.493  0.00  0.00    +0.000 NA
ATOM     15  H   UNL     1       8.335   5.033  19.211  0.00  0.00    +0.000 HD
ATOM     16  H   UNL     1       8.062   6.705  18.971  0.00  0.00    +0.000 HD
ENDROOT
BRANCH   6  17
ATOM     17  N   UNL     1       4.815   1.495  19.562  0.00  0.00    +0.000 N 
ATOM     18  H   UNL     1       4.925   0.612  19.051  0.00  0.00    +0.000 HD
BRANCH  17  19
ATOM     19  C   UNL     1       5.034   1.376  21.023  0.00  0.00    +0.000 C 
BRANCH  19  20
ATOM     20  C   UNL     1       5.911   0.178  21.403  0.00  0.00    +0.000 C 
BRANCH  20  21
ATOM     21  O   UNL     1       5.917  -0.026  22.813  0.00  0.00    +0.000 OA
ATOM     22  H   UNL     1       6.771   0.332  23.129  0.00  0.00    +0.000 HD
ENDBRANCH  20  21
ENDBRANCH  19  20
ENDBRANCH  17  19
ENDBRANCH   6  17
BRANCH  12  23
ATOM     23  C   UNL     1       3.083   7.673  17.647  0.00  0.00    +0.000 C 
BRANCH  23  24
ATOM     24  C   UNL     1       2.140   8.482  18.513  0.00  0.00    +0.000 A 
ATOM     25  C   UNL     1       1.968   8.169  19.881  0.00  0.00    +0.000 A 
ATOM     26  C   UNL     1       1.024   8.847  20.664  0.00  0.00    +0.000 A 
ATOM     27  C   UNL     1       0.261   9.818  20.053  0.00  0.00    +0.000 A 
ATOM     28  C   UNL     1       0.439  10.148  18.732  0.00  0.00    +0.000 A 
ATOM     29  C   UNL     1       1.375   9.515  17.944  0.00  0.00    +0.000 A 
ATOM     30  O   UNL     1      -0.414  11.122  18.318  0.00  0.00    +0.000 OA
ATOM     31  C   UNL     1      -1.192  11.323  19.514  0.00  0.00    +0.000 C 
ATOM     32  O   UNL     1      -0.732  10.539  20.636  0.00  0.00    +0.000 OA
ENDBRANCH  23  24
ENDBRANCH  12  23
TORSDOF 6
ENDMDL
MODEL 7
REMARK VINA RESULT:      -7.7      3.526      7.633
REMARK  Name = 
REMARK  6 active torsions:
REMARK  status: ('A' for Active; 'I' for Inactive)
REMARK    1  A    between atoms: C_6  and  N_7
REMARK    2  A    between atoms: N_7  and  C_8
REMARK    3  A    between atoms: C_8  and  C_9
REMARK    4  A    between atoms: C_9  and  O_10
REMARK    5  A    between atoms: C_16  and  C_17
REMARK    6  A    between atoms: C_17  and  C_18
REMARK                            x       y       z     vdW  Elec       q    Type
REMARK                         _______ _______ _______ _____ _____    ______ ____
ROOT
ATOM      1  N   UNL     1       7.780   5.737  18.923  0.00  0.00    +0.000 N 
ATOM      2  C   UNL     1       6.471   5.529  18.815  0.00  0.00    +0.000 A 
ATOM      3  N   UNL     1       5.980   4.263  18.962  0.00  0.00    +0.000 NA
ATOM      4  C   UNL     1       4.684   4.432  18.778  0.00  0.00    +0.000 A 
ATOM      5  C   UNL     1       3.543   3.518  18.819  0.00  0.00    +0.000 A 
ATOM      6  C   UNL     1       3.601   2.140  19.161  0.00  0.00    +0.000 A 
ATOM      7  C   UNL     1       2.373   1.454  19.242  0.00  0.00    +0.000 A 
ATOM      8  C   UNL     1       1.155   2.047  18.911  0.00  0.00    +0.000 A 
ATOM      9  C   UNL     1       1.119   3.375  18.522  0.00  0.00    +0.000 A 
ATOM     10  C   UNL     1       2.290   4.125  18.487  0.00  0.00    +0.000 A 
ATOM     11  N   UNL     1       2.150   5.491  18.119  0.00  0.00    +0.000 NA
ATOM     12  C   UNL     1       3.202   6.258  18.131  0.00  0.00    +0.000 A 
ATOM     13  N   UNL     1       4.451   5.757  18.479  0.00  0.00    +0.000 N 
ATOM     14  N   UNL     1       5.579   6.479  18.584  0.00  0.00    +0.000 NA
ATOM     15  H   UNL     1       8.359   5.006  19.304  0.00  0.00    +0.000 HD
ATOM     16  H   UNL     1       8.101   6.685  19.093  0.00  0.00    +0.000 HD
ENDROOT
BRANCH   6  17
ATOM     17  N   UNL     1       4.809   1.489  19.547  0.00  0.00    +0.000 N 
ATOM     18  H   UNL     1       4.922   0.620  19.014  0.00  0.00    +0.000 HD
BRANCH  17  19
ATOM     19  C   UNL     1       5.006   1.329  21.007  0.00  0.00    +0.000 C 
BRANCH  19  20
ATOM     20  C   UNL     1       5.840   0.096  21.370  0.00  0.00    +0.000 C 
BRANCH  20  21
ATOM     21  O   UNL     1       6.025  -0.748  20.238  0.00  0.00    +0.000 OA
ATOM     22  H   UNL     1       6.734  -0.330  19.708  0.00  0.00    +0.000 HD
ENDBRANCH  20  21
ENDBRANCH  19  20
ENDBRANCH  17  19
ENDBRANCH   6  17
BRANCH  12  23
ATOM     23  C   UNL     1       3.145   7.716  17.735  0.00  0.00    +0.000 C 
BRANCH  23  24
ATOM     24  C   UNL     1       2.072   8.478  18.486  0.00  0.00    +0.000 A 
ATOM     25  C   UNL     1       1.304   9.472  17.837  0.00  0.00    +0.000 A 
ATOM     26  C   UNL     1       0.381  10.250  18.548  0.00  0.00    +0.000 A 
ATOM     27  C   UNL     1       0.257  10.024  19.901  0.00  0.00    +0.000 A 
ATOM     28  C   UNL     1       0.979   9.042  20.536  0.00  0.00    +0.000 A 
ATOM     29  C   UNL     1       1.876   8.246  19.858  0.00  0.00    +0.000 A 
ATOM     30  O   UNL     1       0.719   8.983  21.869  0.00  0.00    +0.000 OA
ATOM     31  C   UNL     1      -0.203  10.081  22.012  0.00  0.00    +0.000 C 
ATOM     32  O   UNL     1      -0.544  10.711  20.758  0.00  0.00    +0.000 OA
ENDBRANCH  23  24
ENDBRANCH  12  23
TORSDOF 6
ENDMDL
MODEL 8
REMARK VINA RESULT:      -7.7      3.243      7.663
REMARK  Name = 
REMARK  6 active torsions:
REMARK  status: ('A' for Active; 'I' for Inactive)
REMARK    1  A    between atoms: C_6  and  N_7
REMARK    2  A    between atoms: N_7  and  C_8
REMARK    3  A    between atoms: C_8  and  C_9
REMARK    4  A    between atoms: C_9  and  O_10
REMARK    5  A    between atoms: C_16  and  C_17
REMARK    6  A    between atoms: C_17  and  C_18
REMARK                            x       y       z     vdW  Elec       q    Type
REMARK                         _______ _______ _______ _____ _____    ______ ____
ROOT
ATOM      1  N   UNL     1       7.444   5.097  17.166  0.00  0.00    +0.000 N 
ATOM      2  C   UNL     1       6.272   5.107  17.792  0.00  0.00    +0.000 A 
ATOM      3  N   UNL     1       5.890   4.016  18.520  0.00  0.00    +0.000 NA
ATOM      4  C   UNL     1       4.700   4.368  18.968  0.00  0.00    +0.000 A 
ATOM      5  C   UNL     1       3.725   3.706  19.834  0.00  0.00    +0.000 A 
ATOM      6  C   UNL     1       3.910   2.454  20.479  0.00  0.00    +0.000 A 
ATOM      7  C   UNL     1       2.889   2.034  21.356  0.00  0.00    +0.000 A 
ATOM      8  C   UNL     1       1.701   2.745  21.523  0.00  0.00    +0.000 A 
ATOM      9  C   UNL     1       1.508   3.936  20.843  0.00  0.00    +0.000 A 
ATOM     10  C   UNL     1       2.507   4.436  20.014  0.00  0.00    +0.000 A 
ATOM     11  N   UNL     1       2.239   5.686  19.392  0.00  0.00    +0.000 NA
ATOM     12  C   UNL     1       3.162   6.235  18.656  0.00  0.00    +0.000 A 
ATOM     13  N   UNL     1       4.389   5.610  18.460  0.00  0.00    +0.000 N 
ATOM     14  N   UNL     1       5.424   6.124  17.775  0.00  0.00    +0.000 NA
ATOM     15  H   UNL     1       8.113   4.380  17.398  0.00  0.00    +0.000 HD
ATOM     16  H   UNL     1       7.838   5.985  16.873  0.00  0.00    +0.000 HD
ENDROOT
BRANCH   6  17
ATOM     17  N   UNL     1       5.116   1.702  20.378  0.00  0.00    +0.000 N 
ATOM     18  H   UNL     1       5.058   1.054  19.584  0.00  0.00    +0.000 HD
BRANCH  17  19
ATOM     19  C   UNL     1       5.579   1.071  21.636  0.00  0.00    +0.000 C 
BRANCH  19  20
ATOM     20  C   UNL     1       6.045  -0.377  21.447  0.00  0.00    +0.000 C 
BRANCH  20  21
ATOM     21  O   UNL     1       5.983  -0.760  20.077  0.00  0.00    +0.000 OA
ATOM     22  H   UNL     1       6.477  -0.072  19.587  0.00  0.00    +0.000 HD
ENDBRANCH  20  21
ENDBRANCH  19  20
ENDBRANCH  17  19
ENDBRANCH   6  17
BRANCH  12  23
ATOM     23  C   UNL     1       2.952   7.552  17.943  0.00  0.00    +0.000 C 
BRANCH  23  24
ATOM     24  C   UNL     1       1.985   8.459  18.676  0.00  0.00    +0.000 A 
ATOM     25  C   UNL     1       1.795   8.333  20.072  0.00  0.00    +0.000 A 
ATOM     26  C   UNL     1       0.830   9.099  20.740  0.00  0.00    +0.000 A 
ATOM     27  C   UNL     1       0.066   9.967  19.992  0.00  0.00    +0.000 A 
ATOM     28  C   UNL     1       0.262  10.116  18.640  0.00  0.00    +0.000 A 
ATOM     29  C   UNL     1       1.218   9.394  17.960  0.00  0.00    +0.000 A 
ATOM     30  O   UNL     1      -0.595  11.012  18.084  0.00  0.00    +0.000 OA
ATOM     31  C   UNL     1      -1.395  11.365  19.230  0.00  0.00    +0.000 C 
ATOM     32  O   UNL     1      -0.945  10.748  20.456  0.00  0.00    +0.000 OA
ENDBRANCH  23  24
ENDBRANCH  12  23
TORSDOF 6
ENDMDL
MODEL 9
REMARK VINA RESULT:      -7.6      3.240      7.830
REMARK  Name = 
REMARK  6 active torsions:
REMARK  status: ('A' for Active; 'I' for Inactive)
REMARK    1  A    between atoms: C_6  and  N_7
REMARK    2  A    between atoms: N_7  and  C_8
REMARK    3  A    between atoms: C_8  and  C_9
REMARK    4  A    between atoms: C_9  and  O_10
REMARK    5  A    between atoms: C_16  and  C_17
REMARK    6  A    between atoms: C_17  and  C_18
REMARK                            x       y       z     vdW  Elec       q    Type
REMARK                         _______ _______ _______ _____ _____    ______ ____
ROOT
ATOM      1  N   UNL     1       6.793   5.878  16.309  0.00  0.00    +0.000 N 
ATOM      2  C   UNL     1       5.727   5.874  17.103  0.00  0.00    +0.000 A 
ATOM      3  N   UNL     1       5.447   4.762  17.845  0.00  0.00    +0.000 NA
ATOM      4  C   UNL     1       4.341   5.107  18.478  0.00  0.00    +0.000 A 
ATOM      5  C   UNL     1       3.499   4.422  19.459  0.00  0.00    +0.000 A 
ATOM      6  C   UNL     1       3.764   3.148  20.028  0.00  0.00    +0.000 A 
ATOM      7  C   UNL     1       2.881   2.706  21.034  0.00  0.00    +0.000 A 
ATOM      8  C   UNL     1       1.740   3.418  21.400  0.00  0.00    +0.000 A 
ATOM      9  C   UNL     1       1.461   4.632  20.795  0.00  0.00    +0.000 A 
ATOM     10  C   UNL     1       2.330   5.153  19.843  0.00  0.00    +0.000 A 
ATOM     11  N   UNL     1       1.986   6.425  19.308  0.00  0.00    +0.000 NA
ATOM     12  C   UNL     1       2.794   6.992  18.460  0.00  0.00    +0.000 A 
ATOM     13  N   UNL     1       3.971   6.367  18.063  0.00  0.00    +0.000 N 
ATOM     14  N   UNL     1       4.898   6.897  17.247  0.00  0.00    +0.000 NA
ATOM     15  H   UNL     1       7.480   5.149  16.415  0.00  0.00    +0.000 HD
ATOM     16  H   UNL     1       7.149   6.773  15.989  0.00  0.00    +0.000 HD
ENDROOT
BRANCH   6  17
ATOM     17  N   UNL     1       4.934   2.392  19.723  0.00  0.00    +0.000 N 
ATOM     18  H   UNL     1       5.385   2.772  18.883  0.00  0.00    +0.000 HD
BRANCH  17  19
ATOM     19  C   UNL     1       4.751   0.922  19.697  0.00  0.00    +0.000 C 
BRANCH  19  20
ATOM     20  C   UNL     1       5.583   0.193  20.757  0.00  0.00    +0.000 C 
BRANCH  20  21
ATOM     21  O   UNL     1       5.775   1.009  21.908  0.00  0.00    +0.000 OA
ATOM     22  H   UNL     1       6.691   0.836  22.206  0.00  0.00    +0.000 HD
ENDBRANCH  20  21
ENDBRANCH  19  20
ENDBRANCH  17  19
ENDBRANCH   6  17
BRANCH  12  23
ATOM     23  C   UNL     1       2.495   8.333  17.829  0.00  0.00    +0.000 C 
BRANCH  23  24
ATOM     24  C   UNL     1       1.429   9.102  18.582  0.00  0.00    +0.000 A 
ATOM     25  C   UNL     1       0.297   9.615  17.907  0.00  0.00    +0.000 A 
ATOM     26  C   UNL     1      -0.642  10.411  18.577  0.00  0.00    +0.000 A 
ATOM     27  C   UNL     1      -0.419  10.689  19.907  0.00  0.00    +0.000 A 
ATOM     28  C   UNL     1       0.664  10.173  20.578  0.00  0.00    +0.000 A 
ATOM     29  C   UNL     1       1.590   9.368  19.953  0.00  0.00    +0.000 A 
ATOM     30  O   UNL     1       0.709  10.569  21.877  0.00  0.00    +0.000 OA
ATOM     31  C   UNL     1      -0.435  11.444  21.931  0.00  0.00    +0.000 C 
ATOM     32  O   UNL     1      -1.188  11.481  20.700  0.00  0.00    +0.000 OA
ENDBRANCH  23  24
ENDBRANCH  12  23
TORSDOF 6
ENDMDL
