MODEL 1
REMARK VINA RESULT:      -8.2      0.000      0.000
REMARK  Name = 
REMARK  4 active torsions:
REMARK  status: ('A' for Active; 'I' for Inactive)
REMARK    1  A    between atoms: N_3  and  N_4
REMARK    2  A    between atoms: C_5  and  C_6
REMARK    3  A    between atoms: C_9  and  O_10
REMARK    4  A    between atoms: C_12  and  O_13
REMARK                            x       y       z     vdW  Elec       q    Type
REMARK                         _______ _______ _______ _____ _____    ______ ____
ROOT
ATOM      1  O   UNL     1       7.857   7.347  16.528  0.00  0.00    +0.000 OA
ATOM      2  C   UNL     1       7.591   7.059  17.695  0.00  0.00    +0.000 C 
ATOM      3  N   UNL     1       8.186   7.685  18.775  0.00  0.00    +0.000 N 
ATOM      4  N   UNL     1       6.634   6.104  18.006  0.00  0.00    +0.000 N 
ATOM      5  C   UNL     1       6.189   5.679  19.353  0.00  0.00    +0.000 C 
ATOM      6  C   UNL     1       4.648   5.552  19.458  0.00  0.00    +0.000 C 
ATOM      7  N   UNL     1       4.201   4.705  18.352  0.00  0.00    +0.000 N 
ATOM      8  C   UNL     1       3.100   3.888  18.504  0.00  0.00    +0.000 A 
ATOM      9  C   UNL     1       2.990   2.749  17.705  0.00  0.00    +0.000 A 
ATOM     10  C   UNL     1       1.939   1.856  17.885  0.00  0.00    +0.000 A 
ATOM     11  C   UNL     1       0.993   2.129  18.859  0.00  0.00    +0.000 A 
ATOM     12  C   UNL     1       1.163   3.275  19.617  0.00  0.00    +0.000 A 
ATOM     13  N   UNL     1       2.194   4.141  19.475  0.00  0.00    +0.000 NA
ATOM     14  C   UNL     1       4.498   5.267  17.029  0.00  0.00    +0.000 C 
ATOM     15  C   UNL     1       6.026   5.354  16.891  0.00  0.00    +0.000 C 
ATOM     16  H   UNL     1       8.194   7.233  19.677  0.00  0.00    +0.000 HD
ENDROOT
BRANCH   3  17
ATOM     17  N   UNL     1       9.084   8.688  18.558  0.00  0.00    +0.000 NA
ATOM     18  C   UNL     1       8.911   9.761  19.264  0.00  0.00    +0.000 C 
BRANCH  18  19
ATOM     19  C   UNL     1       9.818  10.919  19.132  0.00  0.00    +0.000 A 
ATOM     20  C   UNL     1      10.304  11.285  17.869  0.00  0.00    +0.000 A 
ATOM     21  C   UNL     1      11.155  12.383  17.736  0.00  0.00    +0.000 A 
ATOM     22  C   UNL     1      11.512  13.109  18.868  0.00  0.00    +0.000 A 
ATOM     23  C   UNL     1      11.041  12.755  20.130  0.00  0.00    +0.000 A 
ATOM     24  C   UNL     1      10.194  11.655  20.260  0.00  0.00    +0.000 A 
BRANCH  22  25
ATOM     25  O   UNL     1      12.333  14.195  18.783  0.00  0.00    +0.000 OA
ATOM     26  H   UNL     1      11.865  14.903  18.309  0.00  0.00    +0.000 HD
ENDBRANCH  22  25
BRANCH  24  27
ATOM     27  O   UNL     1       9.729  11.298  21.497  0.00  0.00    +0.000 OA
ATOM     28  H   UNL     1      10.484  11.015  22.043  0.00  0.00    +0.000 HD
ENDBRANCH  24  27
ENDBRANCH  18  19
ENDBRANCH   3  17
TORSDOF 4
ENDMDL
MODEL 2
REMARK VINA RESULT:      -7.6      1.816      2.190
REMARK  Name = 
REMARK  4 active torsions:
REMARK  status: ('A' for Active; 'I' for Inactive)
REMARK    1  A    between atoms: N_3  and  N_4
REMARK    2  A    between atoms: C_5  and  C_6
REMARK    3  A    between atoms: C_9  and  O_10
REMARK    4  A    between atoms: C_12  and  O_13
REMARK                            x       y       z     vdW  Elec       q    Type
REMARK                         _______ _______ _______ _____ _____    ______ ____
ROOT
ATOM      1  O   UNL     1       7.288   9.473  17.159  0.00  0.00    +0.000 OA
ATOM      2  C   UNL     1       7.790   8.603  17.870  0.00  0.00    +0.000 C 
ATOM      3  N   UNL     1       8.876   8.842  18.692  0.00  0.00    +0.000 N 
ATOM      4  N   UNL     1       7.265   7.320  17.926  0.00  0.00    +0.000 N 
ATOM      5  C   UNL     1       7.740   6.187  18.753  0.00  0.00    +0.000 C 
ATOM      6  C   UNL     1       6.577   5.422  19.437  0.00  0.00    +0.000 C 
ATOM      7  N   UNL     1       5.607   5.078  18.399  0.00  0.00    +0.000 N 
ATOM      8  C   UNL     1       4.864   3.920  18.497  0.00  0.00    +0.000 A 
ATOM      9  C   UNL     1       4.363   3.339  17.332  0.00  0.00    +0.000 A 
ATOM     10  C   UNL     1       3.681   2.128  17.381  0.00  0.00    +0.000 A 
ATOM     11  C   UNL     1       3.492   1.520  18.611  0.00  0.00    +0.000 A 
ATOM     12  C   UNL     1       4.016   2.150  19.727  0.00  0.00    +0.000 A 
ATOM     13  N   UNL     1       4.706   3.315  19.695  0.00  0.00    +0.000 NA
ATOM     14  C   UNL     1       5.021   6.250  17.736  0.00  0.00    +0.000 C 
ATOM     15  C   UNL     1       6.155   6.993  17.012  0.00  0.00    +0.000 C 
ATOM     16  H   UNL     1       9.448   8.073  19.007  0.00  0.00    +0.000 HD
ENDROOT
BRANCH   3  17
ATOM     17  N   UNL     1       9.407  10.097  18.755  0.00  0.00    +0.000 NA
ATOM     18  C   UNL     1       9.465  10.626  19.936  0.00  0.00    +0.000 C 
BRANCH  18  19
ATOM     19  C   UNL     1      10.026  11.976  20.143  0.00  0.00    +0.000 A 
ATOM     20  C   UNL     1       9.360  12.889  20.972  0.00  0.00    +0.000 A 
ATOM     21  C   UNL     1       9.889  14.165  21.180  0.00  0.00    +0.000 A 
ATOM     22  C   UNL     1      11.083  14.516  20.557  0.00  0.00    +0.000 A 
ATOM     23  C   UNL     1      11.753  13.622  19.726  0.00  0.00    +0.000 A 
ATOM     24  C   UNL     1      11.220  12.349  19.518  0.00  0.00    +0.000 A 
BRANCH  22  25
ATOM     25  O   UNL     1      11.641  15.748  20.739  0.00  0.00    +0.000 OA
ATOM     26  H   UNL     1      11.938  16.085  19.878  0.00  0.00    +0.000 HD
ENDBRANCH  22  25
BRANCH  24  27
ATOM     27  O   UNL     1      11.871  11.466  18.700  0.00  0.00    +0.000 OA
ATOM     28  H   UNL     1      11.736  11.740  17.776  0.00  0.00    +0.000 HD
ENDBRANCH  24  27
ENDBRANCH  18  19
ENDBRANCH   3  17
TORSDOF 4
ENDMDL
MODEL 3
REMARK VINA RESULT:      -7.5      1.302      1.466
REMARK  Name = 
REMARK  4 active torsions:
REMARK  status: ('A' for Active; 'I' for Inactive)
REMARK    1  A    between atoms: N_3  and  N_4
REMARK    2  A    between atoms: C_5  and  C_6
REMARK    3  A    between atoms: C_9  and  O_10
REMARK    4  A    between atoms: C_12  and  O_13
REMARK                            x       y       z     vdW  Elec       q    Type
REMARK                         _______ _______ _______ _____ _____    ______ ____
ROOT
ATOM      1  O   UNL     1       8.026   6.859  16.330  0.00  0.00    +0.000 OA
ATOM      2  C   UNL     1       7.393   7.046  17.369  0.00  0.00    +0.000 C 
ATOM      3  N   UNL     1       7.569   8.165  18.162  0.00  0.00    +0.000 N 
ATOM      4  N   UNL     1       6.419   6.154  17.796  0.00  0.00    +0.000 N 
ATOM      5  C   UNL     1       5.562   6.263  18.999  0.00  0.00    +0.000 C 
ATOM      6  C   UNL     1       4.081   5.913  18.706  0.00  0.00    +0.000 C 
ATOM      7  N   UNL     1       4.060   4.614  18.036  0.00  0.00    +0.000 N 
ATOM      8  C   UNL     1       3.000   3.751  18.224  0.00  0.00    +0.000 A 
ATOM      9  C   UNL     1       3.204   2.383  18.041  0.00  0.00    +0.000 A 
ATOM     10  C   UNL     1       2.184   1.474  18.302  0.00  0.00    +0.000 A 
ATOM     11  C   UNL     1       0.957   1.954  18.729  0.00  0.00    +0.000 A 
ATOM     12  C   UNL     1       0.823   3.323  18.891  0.00  0.00    +0.000 A 
ATOM     13  N   UNL     1       1.813   4.220  18.668  0.00  0.00    +0.000 NA
ATOM     14  C   UNL     1       4.765   4.610  16.749  0.00  0.00    +0.000 C 
ATOM     15  C   UNL     1       6.248   4.907  17.027  0.00  0.00    +0.000 C 
ATOM     16  H   UNL     1       7.289   8.145  19.131  0.00  0.00    +0.000 HD
ENDROOT
BRANCH   3  17
ATOM     17  N   UNL     1       8.453   9.129  17.776  0.00  0.00    +0.000 NA
ATOM     18  C   UNL     1       8.730  10.029  18.666  0.00  0.00    +0.000 C 
BRANCH  18  19
ATOM     19  C   UNL     1       9.679  11.123  18.379  0.00  0.00    +0.000 A 
ATOM     20  C   UNL     1      11.000  11.041  18.840  0.00  0.00    +0.000 A 
ATOM     21  C   UNL     1      11.904  12.068  18.565  0.00  0.00    +0.000 A 
ATOM     22  C   UNL     1      11.480  13.170  17.828  0.00  0.00    +0.000 A 
ATOM     23  C   UNL     1      10.170  13.267  17.367  0.00  0.00    +0.000 A 
ATOM     24  C   UNL     1       9.267  12.241  17.647  0.00  0.00    +0.000 A 
BRANCH  22  25
ATOM     25  O   UNL     1      12.333  14.191  17.527  0.00  0.00    +0.000 OA
ATOM     26  H   UNL     1      12.149  14.494  16.622  0.00  0.00    +0.000 HD
ENDBRANCH  22  25
BRANCH  24  27
ATOM     27  O   UNL     1       7.976  12.332  17.200  0.00  0.00    +0.000 OA
ATOM     28  H   UNL     1       7.666  11.441  16.965  0.00  0.00    +0.000 HD
ENDBRANCH  24  27
ENDBRANCH  18  19
ENDBRANCH   3  17
TORSDOF 4
ENDMDL
MODEL 4
REMARK VINA RESULT:      -7.5      1.197      1.551
REMARK  Name = 
REMARK  4 active torsions:
REMARK  status: ('A' for Active; 'I' for Inactive)
REMARK    1  A    between atoms: N_3  and  N_4
REMARK    2  A    between atoms: C_5  and  C_6
REMARK    3  A    between atoms: C_9  and  O_10
REMARK    4  A    between atoms: C_12  and  O_13
REMARK                            x       y       z     vdW  Elec       q    Type
REMARK                         _______ _______ _______ _____ _____    ______ ____
ROOT
ATOM      1  O   UNL     1       7.626   8.526  16.858  0.00  0.00    +0.000 OA
ATOM      2  C   UNL     1       7.737   7.788  17.836  0.00  0.00    +0.000 C 
ATOM      3  N   UNL     1       8.624   8.039  18.867  0.00  0.00    +0.000 N 
ATOM      4  N   UNL     1       6.939   6.664  17.991  0.00  0.00    +0.000 N 
ATOM      5  C   UNL     1       6.939   5.706  19.121  0.00  0.00    +0.000 C 
ATOM      6  C   UNL     1       5.507   5.337  19.586  0.00  0.00    +0.000 C 
ATOM      7  N   UNL     1       4.757   4.913  18.404  0.00  0.00    +0.000 N 
ATOM      8  C   UNL     1       3.771   3.955  18.513  0.00  0.00    +0.000 A 
ATOM      9  C   UNL     1       3.441   3.196  17.390  0.00  0.00    +0.000 A 
ATOM     10  C   UNL     1       2.513   2.164  17.479  0.00  0.00    +0.000 A 
ATOM     11  C   UNL     1       1.908   1.917  18.700  0.00  0.00    +0.000 A 
ATOM     12  C   UNL     1       2.281   2.707  19.775  0.00  0.00    +0.000 A 
ATOM     13  N   UNL     1       3.203   3.698  19.712  0.00  0.00    +0.000 NA
ATOM     14  C   UNL     1       4.622   5.966  17.390  0.00  0.00    +0.000 C 
ATOM     15  C   UNL     1       6.032   6.309  16.883  0.00  0.00    +0.000 C 
ATOM     16  H   UNL     1       8.918   7.288  19.473  0.00  0.00    +0.000 HD
ENDROOT
BRANCH   3  17
ATOM     17  N   UNL     1       9.394   9.164  18.832  0.00  0.00    +0.000 NA
ATOM     18  C   UNL     1       9.022  10.126  19.616  0.00  0.00    +0.000 C 
BRANCH  18  19
ATOM     19  C   UNL     1       9.773  11.396  19.680  0.00  0.00    +0.000 A 
ATOM     20  C   UNL     1       9.756  12.160  20.855  0.00  0.00    +0.000 A 
ATOM     21  C   UNL     1      10.471  13.357  20.925  0.00  0.00    +0.000 A 
ATOM     22  C   UNL     1      11.201  13.780  19.818  0.00  0.00    +0.000 A 
ATOM     23  C   UNL     1      11.224  13.034  18.643  0.00  0.00    +0.000 A 
ATOM     24  C   UNL     1      10.505  11.840  18.574  0.00  0.00    +0.000 A 
BRANCH  22  25
ATOM     25  O   UNL     1      11.922  14.937  19.846  0.00  0.00    +0.000 OA
ATOM     26  H   UNL     1      12.863  14.720  19.738  0.00  0.00    +0.000 HD
ENDBRANCH  22  25
BRANCH  24  27
ATOM     27  O   UNL     1      10.520  11.104  17.420  0.00  0.00    +0.000 OA
ATOM     28  H   UNL     1      11.118  11.534  16.785  0.00  0.00    +0.000 HD
ENDBRANCH  24  27
ENDBRANCH  18  19
ENDBRANCH   3  17
TORSDOF 4
ENDMDL
MODEL 5
REMARK VINA RESULT:      -7.3      1.957      2.228
REMARK  Name = 
REMARK  4 active torsions:
REMARK  status: ('A' for Active; 'I' for Inactive)
REMARK    1  A    between atoms: N_3  and  N_4
REMARK    2  A    between atoms: C_5  and  C_6
REMARK    3  A    between atoms: C_9  and  O_10
REMARK    4  A    between atoms: C_12  and  O_13
REMARK                            x       y       z     vdW  Elec       q    Type
REMARK                         _______ _______ _______ _____ _____    ______ ____
ROOT
ATOM      1  O   UNL     1       7.366   9.549  17.371  0.00  0.00    +0.000 OA
ATOM      2  C   UNL     1       7.859   8.645  18.045  0.00  0.00    +0.000 C 
ATOM      3  N   UNL     1       8.947   8.839  18.877  0.00  0.00    +0.000 N 
ATOM      4  N   UNL     1       7.324   7.365  18.047  0.00  0.00    +0.000 N 
ATOM      5  C   UNL     1       7.788   6.194  18.825  0.00  0.00    +0.000 C 
ATOM      6  C   UNL     1       6.619   5.411  19.475  0.00  0.00    +0.000 C 
ATOM      7  N   UNL     1       5.646   5.120  18.423  0.00  0.00    +0.000 N 
ATOM      8  C   UNL     1       4.893   3.965  18.472  0.00  0.00    +0.000 A 
ATOM      9  C   UNL     1       4.387   3.438  17.283  0.00  0.00    +0.000 A 
ATOM     10  C   UNL     1       3.695   2.232  17.281  0.00  0.00    +0.000 A 
ATOM     11  C   UNL     1       3.501   1.574  18.483  0.00  0.00    +0.000 A 
ATOM     12  C   UNL     1       4.029   2.151  19.626  0.00  0.00    +0.000 A 
ATOM     13  N   UNL     1       4.730   3.311  19.643  0.00  0.00    +0.000 NA
ATOM     14  C   UNL     1       5.071   6.324  17.811  0.00  0.00    +0.000 C 
ATOM     15  C   UNL     1       6.211   7.087  17.119  0.00  0.00    +0.000 C 
ATOM     16  H   UNL     1       9.513   8.053  19.159  0.00  0.00    +0.000 HD
ENDROOT
BRANCH   3  17
ATOM     17  N   UNL     1       9.490  10.085  18.992  0.00  0.00    +0.000 NA
ATOM     18  C   UNL     1       9.440  10.822  17.928  0.00  0.00    +0.000 C 
BRANCH  18  19
ATOM     19  C   UNL     1       9.984  12.195  17.921  0.00  0.00    +0.000 A 
ATOM     20  C   UNL     1       9.113  13.292  17.979  0.00  0.00    +0.000 A 
ATOM     21  C   UNL     1       9.621  14.592  17.982  0.00  0.00    +0.000 A 
ATOM     22  C   UNL     1      10.998  14.786  17.929  0.00  0.00    +0.000 A 
ATOM     23  C   UNL     1      11.875  13.706  17.866  0.00  0.00    +0.000 A 
ATOM     24  C   UNL     1      11.365  12.408  17.860  0.00  0.00    +0.000 A 
BRANCH  22  25
ATOM     25  O   UNL     1      11.538  16.038  17.940  0.00  0.00    +0.000 OA
ATOM     26  H   UNL     1      10.833  16.679  18.130  0.00  0.00    +0.000 HD
ENDBRANCH  22  25
BRANCH  24  27
ATOM     27  O   UNL     1      12.221  11.342  17.794  0.00  0.00    +0.000 OA
ATOM     28  H   UNL     1      11.705  10.523  17.893  0.00  0.00    +0.000 HD
ENDBRANCH  24  27
ENDBRANCH  18  19
ENDBRANCH   3  17
TORSDOF 4
ENDMDL
MODEL 6
REMARK VINA RESULT:      -7.3      1.713      1.960
REMARK  Name = 
REMARK  4 active torsions:
REMARK  status: ('A' for Active; 'I' for Inactive)
REMARK    1  A    between atoms: N_3  and  N_4
REMARK    2  A    between atoms: C_5  and  C_6
REMARK    3  A    between atoms: C_9  and  O_10
REMARK    4  A    between atoms: C_12  and  O_13
REMARK                            x       y       z     vdW  Elec       q    Type
REMARK                         _______ _______ _______ _____ _____    ______ ____
ROOT
ATOM      1  O   UNL     1       7.347   9.456  17.264  0.00  0.00    +0.000 OA
ATOM      2  C   UNL     1       7.838   8.566  17.958  0.00  0.00    +0.000 C 
ATOM      3  N   UNL     1       8.926   8.778  18.786  0.00  0.00    +0.000 N 
ATOM      4  N   UNL     1       7.300   7.289  17.988  0.00  0.00    +0.000 N 
ATOM      5  C   UNL     1       7.762   6.134  18.793  0.00  0.00    +0.000 C 
ATOM      6  C   UNL     1       6.590   5.368  19.459  0.00  0.00    +0.000 C 
ATOM      7  N   UNL     1       5.617   5.056  18.413  0.00  0.00    +0.000 N 
ATOM      8  C   UNL     1       4.862   3.904  18.488  0.00  0.00    +0.000 A 
ATOM      9  C   UNL     1       4.356   3.352  17.311  0.00  0.00    +0.000 A 
ATOM     10  C   UNL     1       3.661   2.147  17.335  0.00  0.00    +0.000 A 
ATOM     11  C   UNL     1       3.464   1.516  18.552  0.00  0.00    +0.000 A 
ATOM     12  C   UNL     1       3.994   2.118  19.681  0.00  0.00    +0.000 A 
ATOM     13  N   UNL     1       4.696   3.276  19.673  0.00  0.00    +0.000 NA
ATOM     14  C   UNL     1       5.045   6.247  17.774  0.00  0.00    +0.000 C 
ATOM     15  C   UNL     1       6.188   6.992  17.066  0.00  0.00    +0.000 C 
ATOM     16  H   UNL     1       9.490   7.997  19.086  0.00  0.00    +0.000 HD
ENDROOT
BRANCH   3  17
ATOM     17  N   UNL     1       9.471  10.025  18.874  0.00  0.00    +0.000 NA
ATOM     18  C   UNL     1       9.389  10.595  20.035  0.00  0.00    +0.000 C 
BRANCH  18  19
ATOM     19  C   UNL     1       9.947  11.942  20.267  0.00  0.00    +0.000 A 
ATOM     20  C   UNL     1      10.992  12.414  19.461  0.00  0.00    +0.000 A 
ATOM     21  C   UNL     1      11.518  13.690  19.669  0.00  0.00    +0.000 A 
ATOM     22  C   UNL     1      10.992  14.487  20.682  0.00  0.00    +0.000 A 
ATOM     23  C   UNL     1       9.956  14.031  21.493  0.00  0.00    +0.000 A 
ATOM     24  C   UNL     1       9.435  12.753  21.285  0.00  0.00    +0.000 A 
BRANCH  22  25
ATOM     25  O   UNL     1      11.468  15.744  20.914  0.00  0.00    +0.000 OA
ATOM     26  H   UNL     1      12.023  15.724  21.712  0.00  0.00    +0.000 HD
ENDBRANCH  22  25
BRANCH  24  27
ATOM     27  O   UNL     1       8.419  12.296  22.081  0.00  0.00    +0.000 OA
ATOM     28  H   UNL     1       8.196  12.988  22.727  0.00  0.00    +0.000 HD
ENDBRANCH  24  27
ENDBRANCH  18  19
ENDBRANCH   3  17
TORSDOF 4
ENDMDL
MODEL 7
REMARK VINA RESULT:      -7.2      7.118      9.740
REMARK  Name = 
REMARK  4 active torsions:
REMARK  status: ('A' for Active; 'I' for Inactive)
REMARK    1  A    between atoms: N_3  and  N_4
REMARK    2  A    between atoms: C_5  and  C_6
REMARK    3  A    between atoms: C_9  and  O_10
REMARK    4  A    between atoms: C_12  and  O_13
REMARK                            x       y       z     vdW  Elec       q    Type
REMARK                         _______ _______ _______ _____ _____    ______ ____
ROOT
ATOM      1  O   UNL     1       1.796   7.739  20.814  0.00  0.00    +0.000 OA
ATOM      2  C   UNL     1       1.507   8.655  20.043  0.00  0.00    +0.000 C 
ATOM      3  N   UNL     1       1.730   8.585  18.680  0.00  0.00    +0.000 N 
ATOM      4  N   UNL     1       0.892   9.813  20.493  0.00  0.00    +0.000 N 
ATOM      5  C   UNL     1       0.460  10.977  19.685  0.00  0.00    +0.000 C 
ATOM      6  C   UNL     1      -0.953  11.481  20.077  0.00  0.00    +0.000 C 
ATOM      7  N   UNL     1      -0.962  11.684  21.525  0.00  0.00    +0.000 N 
ATOM      8  C   UNL     1      -1.738  12.678  22.083  0.00  0.00    +0.000 A 
ATOM      9  C   UNL     1      -1.370  13.207  23.320  0.00  0.00    +0.000 A 
ATOM     10  C   UNL     1      -2.078  14.267  23.877  0.00  0.00    +0.000 A 
ATOM     11  C   UNL     1      -3.168  14.774  23.188  0.00  0.00    +0.000 A 
ATOM     12  C   UNL     1      -3.478  14.203  21.965  0.00  0.00    +0.000 A 
ATOM     13  N   UNL     1      -2.783  13.189  21.396  0.00  0.00    +0.000 NA
ATOM     14  C   UNL     1      -0.716  10.455  22.288  0.00  0.00    +0.000 C 
ATOM     15  C   UNL     1       0.702   9.969  21.948  0.00  0.00    +0.000 C 
ATOM     16  H   UNL     1       1.783   9.432  18.135  0.00  0.00    +0.000 HD
ENDROOT
BRANCH   3  17
ATOM     17  N   UNL     1       2.263   7.450  18.144  0.00  0.00    +0.000 NA
ATOM     18  C   UNL     1       3.503   7.529  17.776  0.00  0.00    +0.000 C 
BRANCH  18  19
ATOM     19  C   UNL     1       4.202   6.369  17.188  0.00  0.00    +0.000 A 
ATOM     20  C   UNL     1       5.026   6.545  16.068  0.00  0.00    +0.000 A 
ATOM     21  C   UNL     1       5.698   5.455  15.512  0.00  0.00    +0.000 A 
ATOM     22  C   UNL     1       5.540   4.195  16.083  0.00  0.00    +0.000 A 
ATOM     23  C   UNL     1       4.721   4.004  17.192  0.00  0.00    +0.000 A 
ATOM     24  C   UNL     1       4.049   5.095  17.744  0.00  0.00    +0.000 A 
BRANCH  22  25
ATOM     25  O   UNL     1       6.185   3.104  15.579  0.00  0.00    +0.000 OA
ATOM     26  H   UNL     1       6.657   2.659  16.302  0.00  0.00    +0.000 HD
ENDBRANCH  22  25
BRANCH  24  27
ATOM     27  O   UNL     1       3.239   4.914  18.832  0.00  0.00    +0.000 OA
ATOM     28  H   UNL     1       3.798   4.799  19.620  0.00  0.00    +0.000 HD
ENDBRANCH  24  27
ENDBRANCH  18  19
ENDBRANCH   3  17
TORSDOF 4
ENDMDL
MODEL 8
REMARK VINA RESULT:      -7.1      7.615      9.730
REMARK  Name = 
REMARK  4 active torsions:
REMARK  status: ('A' for Active; 'I' for Inactive)
REMARK    1  A    between atoms: N_3  and  N_4
REMARK    2  A    between atoms: C_5  and  C_6
REMARK    3  A    between atoms: C_9  and  O_10
REMARK    4  A    between atoms: C_12  and  O_13
REMARK                            x       y       z     vdW  Elec       q    Type
REMARK                         _______ _______ _______ _____ _____    ______ ____
ROOT
ATOM      1  O   UNL     1       1.335  10.687  19.258  0.00  0.00    +0.000 OA
ATOM      2  C   UNL     1       0.612  10.261  18.357  0.00  0.00    +0.000 C 
ATOM      3  N   UNL     1       1.018   9.278  17.473  0.00  0.00    +0.000 N 
ATOM      4  N   UNL     1      -0.687  10.717  18.193  0.00  0.00    +0.000 N 
ATOM      5  C   UNL     1      -1.676  10.278  17.181  0.00  0.00    +0.000 C 
ATOM      6  C   UNL     1      -3.085  10.052  17.786  0.00  0.00    +0.000 C 
ATOM      7  N   UNL     1      -3.442  11.258  18.531  0.00  0.00    +0.000 N 
ATOM      8  C   UNL     1      -4.760  11.659  18.615  0.00  0.00    +0.000 A 
ATOM      9  C   UNL     1      -5.042  13.006  18.843  0.00  0.00    +0.000 A 
ATOM     10  C   UNL     1      -6.355  13.463  18.851  0.00  0.00    +0.000 A 
ATOM     11  C   UNL     1      -7.378  12.553  18.648  0.00  0.00    +0.000 A 
ATOM     12  C   UNL     1      -7.029  11.231  18.427  0.00  0.00    +0.000 A 
ATOM     13  N   UNL     1      -5.754  10.773  18.388  0.00  0.00    +0.000 NA
ATOM     14  C   UNL     1      -2.535  11.545  19.648  0.00  0.00    +0.000 C 
ATOM     15  C   UNL     1      -1.142  11.820  19.060  0.00  0.00    +0.000 C 
ATOM     16  H   UNL     1       0.554   9.177  16.583  0.00  0.00    +0.000 HD
ENDROOT
BRANCH   3  17
ATOM     17  N   UNL     1       2.256   8.721  17.611  0.00  0.00    +0.000 NA
ATOM     18  C   UNL     1       2.276   7.465  17.928  0.00  0.00    +0.000 C 
BRANCH  18  19
ATOM     19  C   UNL     1       3.551   6.739  18.099  0.00  0.00    +0.000 A 
ATOM     20  C   UNL     1       4.558   6.859  17.132  0.00  0.00    +0.000 A 
ATOM     21  C   UNL     1       5.769   6.183  17.292  0.00  0.00    +0.000 A 
ATOM     22  C   UNL     1       5.964   5.393  18.421  0.00  0.00    +0.000 A 
ATOM     23  C   UNL     1       4.971   5.261  19.388  0.00  0.00    +0.000 A 
ATOM     24  C   UNL     1       3.760   5.934  19.223  0.00  0.00    +0.000 A 
BRANCH  22  25
ATOM     25  O   UNL     1       7.135   4.723  18.622  0.00  0.00    +0.000 OA
ATOM     26  H   UNL     1       7.005   4.078  19.337  0.00  0.00    +0.000 HD
ENDBRANCH  22  25
BRANCH  24  27
ATOM     27  O   UNL     1       2.778   5.806  20.168  0.00  0.00    +0.000 OA
ATOM     28  H   UNL     1       2.436   4.896  20.138  0.00  0.00    +0.000 HD
ENDBRANCH  24  27
ENDBRANCH  18  19
ENDBRANCH   3  17
TORSDOF 4
ENDMDL
MODEL 9
REMARK VINA RESULT:      -7.1      7.070     10.722
REMARK  Name = 
REMARK  4 active torsions:
REMARK  status: ('A' for Active; 'I' for Inactive)
REMARK    1  A    between atoms: N_3  and  N_4
REMARK    2  A    between atoms: C_5  and  C_6
REMARK    3  A    between atoms: C_9  and  O_10
REMARK    4  A    between atoms: C_12  and  O_13
REMARK                            x       y       z     vdW  Elec       q    Type
REMARK                         _______ _______ _______ _____ _____    ______ ____
ROOT
ATOM      1  O   UNL     1       2.062   8.571  18.794  0.00  0.00    +0.000 OA
ATOM      2  C   UNL     1       1.419   8.429  19.835  0.00  0.00    +0.000 C 
ATOM      3  N   UNL     1       1.441   7.261  20.574  0.00  0.00    +0.000 N 
ATOM      4  N   UNL     1       0.655   9.460  20.361  0.00  0.00    +0.000 N 
ATOM      5  C   UNL     1      -0.141   9.445  21.611  0.00  0.00    +0.000 C 
ATOM      6  C   UNL     1       0.046  10.736  22.448  0.00  0.00    +0.000 C 
ATOM      7  N   UNL     1      -0.197  11.874  21.563  0.00  0.00    +0.000 N 
ATOM      8  C   UNL     1      -0.746  13.037  22.060  0.00  0.00    +0.000 A 
ATOM      9  C   UNL     1      -1.442  13.879  21.193  0.00  0.00    +0.000 A 
ATOM     10  C   UNL     1      -2.081  15.018  21.671  0.00  0.00    +0.000 A 
ATOM     11  C   UNL     1      -1.997  15.311  23.022  0.00  0.00    +0.000 A 
ATOM     12  C   UNL     1      -1.291  14.432  23.828  0.00  0.00    +0.000 A 
ATOM     13  N   UNL     1      -0.687  13.304  23.384  0.00  0.00    +0.000 NA
ATOM     14  C   UNL     1       0.744  11.950  20.439  0.00  0.00    +0.000 C 
ATOM     15  C   UNL     1       0.537  10.699  19.570  0.00  0.00    +0.000 C 
ATOM     16  H   UNL     1       0.691   7.058  21.218  0.00  0.00    +0.000 HD
ENDROOT
BRANCH   3  17
ATOM     17  N   UNL     1       2.226   6.223  20.168  0.00  0.00    +0.000 NA
ATOM     18  C   UNL     1       1.614   5.100  19.962  0.00  0.00    +0.000 C 
BRANCH  18  19
ATOM     19  C   UNL     1       2.346   3.899  19.511  0.00  0.00    +0.000 A 
ATOM     20  C   UNL     1       3.308   3.313  20.346  0.00  0.00    +0.000 A 
ATOM     21  C   UNL     1       3.998   2.173  19.930  0.00  0.00    +0.000 A 
ATOM     22  C   UNL     1       3.719   1.626  18.681  0.00  0.00    +0.000 A 
ATOM     23  C   UNL     1       2.770   2.200  17.839  0.00  0.00    +0.000 A 
ATOM     24  C   UNL     1       2.085   3.341  18.256  0.00  0.00    +0.000 A 
BRANCH  22  25
ATOM     25  O   UNL     1       4.362   0.508  18.239  0.00  0.00    +0.000 OA
ATOM     26  H   UNL     1       4.904   0.745  17.467  0.00  0.00    +0.000 HD
ENDBRANCH  22  25
BRANCH  24  27
ATOM     27  O   UNL     1       1.153   3.913  17.432  0.00  0.00    +0.000 OA
ATOM     28  H   UNL     1       1.214   4.880  17.518  0.00  0.00    +0.000 HD
ENDBRANCH  24  27
ENDBRANCH  18  19
ENDBRANCH   3  17
TORSDOF 4
ENDMDL
