MODEL 1
REMARK VINA RESULT:      -8.8      0.000      0.000
REMARK  Name = 
REMARK  3 active torsions:
REMARK  status: ('A' for Active; 'I' for Inactive)
REMARK    1  A    between atoms: C_2  and  C_3
REMARK    2  A    between atoms: C_13  and  C_14
REMARK    3  A    between atoms: C_16  and  C_17
REMARK                            x       y       z     vdW  Elec       q    Type
REMARK                         _______ _______ _______ _____ _____    ______ ____
ROOT
ATOM      1  C   UNL     1      -1.897  13.107  20.188  0.00  0.00    +0.000 C 
ATOM      2  C   UNL     1      -1.153  14.354  19.696  0.00  0.00    +0.000 C 
ATOM      3  C   UNL     1       0.249  14.032  19.183  0.00  0.00    +0.000 C 
ATOM      4  C   UNL     1       1.062  13.253  20.208  0.00  0.00    +0.000 C 
ATOM      5  N   UNL     1       0.331  12.099  20.714  0.00  0.00    +0.000 N 
ATOM      6  C   UNL     1       0.745  10.814  20.370  0.00  0.00    +0.000 A 
ATOM      7  C   UNL     1       0.473   9.766  21.273  0.00  0.00    +0.000 A 
ATOM      8  C   UNL     1       0.894   8.458  21.030  0.00  0.00    +0.000 A 
ATOM      9  C   UNL     1       1.606   8.252  19.854  0.00  0.00    +0.000 A 
ATOM     10  N   UNL     1       2.209   7.132  19.360  0.00  0.00    +0.000 NA
ATOM     11  C   UNL     1       2.766   7.505  18.222  0.00  0.00    +0.000 A 
ATOM     12  N   UNL     1       2.477   8.817  17.939  0.00  0.00    +0.000 N 
ATOM     13  C   UNL     1       1.803   9.338  19.015  0.00  0.00    +0.000 A 
ATOM     14  N   UNL     1       1.431  10.618  19.215  0.00  0.00    +0.000 NA
ATOM     15  C   UNL     1      -1.038  12.310  21.178  0.00  0.00    +0.000 C 
ATOM     16  H   UNL     1       2.775   9.346  17.134  0.00  0.00    +0.000 HD
ENDROOT
BRANCH   1  18
ATOM     17  O   UNL     1      -1.696  11.905  18.095  0.00  0.00    +0.000 OA
ATOM     18  C   UNL     1      -2.412  12.232  19.037  0.00  0.00    +0.000 C 
ATOM     19  N   UNL     1      -3.748  11.863  19.092  0.00  0.00    +0.000 N 
ATOM     20  C   UNL     1      -4.316  10.965  18.100  0.00  0.00    +0.000 C 
ATOM     21  C   UNL     1      -5.672  11.580  17.792  0.00  0.00    +0.000 C 
ATOM     22  C   UNL     1      -6.101  12.149  19.138  0.00  0.00    +0.000 C 
ATOM     23  C   UNL     1      -4.796  12.633  19.749  0.00  0.00    +0.000 C 
ENDBRANCH   1  18
BRANCH  11  24
ATOM     24  C   UNL     1       3.609   6.507  17.458  0.00  0.00    +0.000 C 
ATOM     25  C   UNL     1       4.731   5.791  18.146  0.00  0.00    +0.000 C 
ATOM     26  C   UNL     1       3.580   5.000  17.566  0.00  0.00    +0.000 C 
BRANCH  26  27
ATOM     27  C   UNL     1       2.906   4.072  18.545  0.00  0.00    +0.000 A 
ATOM     28  C   UNL     1       3.471   3.643  19.755  0.00  0.00    +0.000 A 
ATOM     29  C   UNL     1       2.768   2.799  20.624  0.00  0.00    +0.000 A 
ATOM     30  C   UNL     1       1.468   2.399  20.326  0.00  0.00    +0.000 A 
ATOM     31  C   UNL     1       0.865   2.844  19.155  0.00  0.00    +0.000 A 
ATOM     32  C   UNL     1       1.575   3.666  18.284  0.00  0.00    +0.000 A 
ENDBRANCH  26  27
ENDBRANCH  11  24
TORSDOF 3
ENDMDL
MODEL 2
REMARK VINA RESULT:      -8.8      1.424      2.991
REMARK  Name = 
REMARK  3 active torsions:
REMARK  status: ('A' for Active; 'I' for Inactive)
REMARK    1  A    between atoms: C_2  and  C_3
REMARK    2  A    between atoms: C_13  and  C_14
REMARK    3  A    between atoms: C_16  and  C_17
REMARK                            x       y       z     vdW  Elec       q    Type
REMARK                         _______ _______ _______ _____ _____    ______ ____
ROOT
ATOM      1  C   UNL     1      -1.206  12.772  19.395  0.00  0.00    +0.000 C 
ATOM      2  C   UNL     1      -0.266  13.684  18.598  0.00  0.00    +0.000 C 
ATOM      3  C   UNL     1       1.054  12.999  18.249  0.00  0.00    +0.000 C 
ATOM      4  C   UNL     1       1.735  12.420  19.481  0.00  0.00    +0.000 C 
ATOM      5  N   UNL     1       0.823  11.597  20.266  0.00  0.00    +0.000 N 
ATOM      6  C   UNL     1       1.007  10.217  20.314  0.00  0.00    +0.000 A 
ATOM      7  C   UNL     1       0.570   9.531  21.466  0.00  0.00    +0.000 A 
ATOM      8  C   UNL     1       0.759   8.157  21.619  0.00  0.00    +0.000 A 
ATOM      9  C   UNL     1       1.410   7.508  20.577  0.00  0.00    +0.000 A 
ATOM     10  N   UNL     1       1.806   6.209  20.442  0.00  0.00    +0.000 NA
ATOM     11  C   UNL     1       2.403   6.144  19.266  0.00  0.00    +0.000 A 
ATOM     12  N   UNL     1       2.340   7.349  18.613  0.00  0.00    +0.000 N 
ATOM     13  C   UNL     1       1.779   8.260  19.472  0.00  0.00    +0.000 A 
ATOM     14  N   UNL     1       1.634   9.588  19.289  0.00  0.00    +0.000 NA
ATOM     15  C   UNL     1      -0.483  12.158  20.600  0.00  0.00    +0.000 C 
ATOM     16  H   UNL     1       2.714   7.569  17.703  0.00  0.00    +0.000 HD
ENDROOT
BRANCH   1  18
ATOM     17  O   UNL     1      -1.269  11.109  17.636  0.00  0.00    +0.000 OA
ATOM     18  C   UNL     1      -1.878  11.704  18.520  0.00  0.00    +0.000 C 
ATOM     19  N   UNL     1      -3.226  11.478  18.750  0.00  0.00    +0.000 N 
ATOM     20  C   UNL     1      -3.939  10.429  18.038  0.00  0.00    +0.000 C 
ATOM     21  C   UNL     1      -5.270  11.074  17.686  0.00  0.00    +0.000 C 
ATOM     22  C   UNL     1      -5.541  11.973  18.885  0.00  0.00    +0.000 C 
ATOM     23  C   UNL     1      -4.157  12.468  19.275  0.00  0.00    +0.000 C 
ENDBRANCH   1  18
BRANCH  11  24
ATOM     24  C   UNL     1       3.053   4.842  18.848  0.00  0.00    +0.000 C 
ATOM     25  C   UNL     1       3.455   4.629  17.420  0.00  0.00    +0.000 C 
ATOM     26  C   UNL     1       4.506   4.602  18.507  0.00  0.00    +0.000 C 
BRANCH  26  27
ATOM     27  C   UNL     1       5.658   5.549  18.283  0.00  0.00    +0.000 A 
ATOM     28  C   UNL     1       5.645   6.619  17.376  0.00  0.00    +0.000 A 
ATOM     29  C   UNL     1       6.750   7.469  17.244  0.00  0.00    +0.000 A 
ATOM     30  C   UNL     1       7.876   7.299  18.046  0.00  0.00    +0.000 A 
ATOM     31  C   UNL     1       7.901   6.274  18.985  0.00  0.00    +0.000 A 
ATOM     32  C   UNL     1       6.808   5.418  19.099  0.00  0.00    +0.000 A 
ENDBRANCH  26  27
ENDBRANCH  11  24
TORSDOF 3
ENDMDL
MODEL 3
REMARK VINA RESULT:      -8.8      0.651      1.019
REMARK  Name = 
REMARK  3 active torsions:
REMARK  status: ('A' for Active; 'I' for Inactive)
REMARK    1  A    between atoms: C_2  and  C_3
REMARK    2  A    between atoms: C_13  and  C_14
REMARK    3  A    between atoms: C_16  and  C_17
REMARK                            x       y       z     vdW  Elec       q    Type
REMARK                         _______ _______ _______ _____ _____    ______ ____
ROOT
ATOM      1  C   UNL     1      -2.074  12.611  20.272  0.00  0.00    +0.000 C 
ATOM      2  C   UNL     1      -1.423  13.938  19.865  0.00  0.00    +0.000 C 
ATOM      3  C   UNL     1       0.007  13.756  19.360  0.00  0.00    +0.000 C 
ATOM      4  C   UNL     1       0.864  12.984  20.353  0.00  0.00    +0.000 C 
ATOM      5  N   UNL     1       0.218  11.748  20.779  0.00  0.00    +0.000 N 
ATOM      6  C   UNL     1       0.736  10.522  20.369  0.00  0.00    +0.000 A 
ATOM      7  C   UNL     1       0.534   9.405  21.206  0.00  0.00    +0.000 A 
ATOM      8  C   UNL     1       1.060   8.150  20.896  0.00  0.00    +0.000 A 
ATOM      9  C   UNL     1       1.802   8.069  19.724  0.00  0.00    +0.000 A 
ATOM     10  N   UNL     1       2.497   7.030  19.177  0.00  0.00    +0.000 NA
ATOM     11  C   UNL     1       3.038   7.511  18.072  0.00  0.00    +0.000 A 
ATOM     12  N   UNL     1       2.651   8.810  17.860  0.00  0.00    +0.000 N 
ATOM     13  C   UNL     1       1.925   9.214  18.951  0.00  0.00    +0.000 A 
ATOM     14  N   UNL     1       1.451  10.447  19.218  0.00  0.00    +0.000 NA
ATOM     15  C   UNL     1      -1.169  11.826  21.229  0.00  0.00    +0.000 C 
ATOM     16  H   UNL     1       2.918   9.407  17.092  0.00  0.00    +0.000 HD
ENDROOT
BRANCH   1  18
ATOM     17  O   UNL     1      -1.688  11.276  18.288  0.00  0.00    +0.000 OA
ATOM     18  C   UNL     1      -2.504  11.767  19.063  0.00  0.00    +0.000 C 
ATOM     19  N   UNL     1      -3.869  11.625  18.864  0.00  0.00    +0.000 N 
ATOM     20  C   UNL     1      -4.384  10.777  17.801  0.00  0.00    +0.000 C 
ATOM     21  C   UNL     1      -5.532  11.585  17.219  0.00  0.00    +0.000 C 
ATOM     22  C   UNL     1      -6.104  12.291  18.441  0.00  0.00    +0.000 C 
ATOM     23  C   UNL     1      -4.875  12.591  19.284  0.00  0.00    +0.000 C 
ENDBRANCH   1  18
BRANCH  11  24
ATOM     24  C   UNL     1       3.967   6.626  17.268  0.00  0.00    +0.000 C 
ATOM     25  C   UNL     1       4.984   5.776  17.966  0.00  0.00    +0.000 C 
ATOM     26  C   UNL     1       3.914   5.123  17.120  0.00  0.00    +0.000 C 
BRANCH  26  27
ATOM     27  C   UNL     1       3.111   4.068  17.838  0.00  0.00    +0.000 A 
ATOM     28  C   UNL     1       1.710   4.036  17.900  0.00  0.00    +0.000 A 
ATOM     29  C   UNL     1       1.038   3.005  18.568  0.00  0.00    +0.000 A 
ATOM     30  C   UNL     1       1.746   1.958  19.151  0.00  0.00    +0.000 A 
ATOM     31  C   UNL     1       3.134   1.938  19.067  0.00  0.00    +0.000 A 
ATOM     32  C   UNL     1       3.800   2.976  18.420  0.00  0.00    +0.000 A 
ENDBRANCH  26  27
ENDBRANCH  11  24
TORSDOF 3
ENDMDL
MODEL 4
REMARK VINA RESULT:      -8.4      0.646      1.021
REMARK  Name = 
REMARK  3 active torsions:
REMARK  status: ('A' for Active; 'I' for Inactive)
REMARK    1  A    between atoms: C_2  and  C_3
REMARK    2  A    between atoms: C_13  and  C_14
REMARK    3  A    between atoms: C_16  and  C_17
REMARK                            x       y       z     vdW  Elec       q    Type
REMARK                         _______ _______ _______ _____ _____    ______ ____
ROOT
ATOM      1  C   UNL     1      -2.206  13.281  20.699  0.00  0.00    +0.000 C 
ATOM      2  C   UNL     1      -1.549  14.530  20.101  0.00  0.00    +0.000 C 
ATOM      3  C   UNL     1      -0.189  14.230  19.473  0.00  0.00    +0.000 C 
ATOM      4  C   UNL     1       0.737  13.511  20.444  0.00  0.00    +0.000 C 
ATOM      5  N   UNL     1       0.090  12.355  21.052  0.00  0.00    +0.000 N 
ATOM      6  C   UNL     1       0.512  11.071  20.714  0.00  0.00    +0.000 A 
ATOM      7  C   UNL     1       0.355  10.049  21.672  0.00  0.00    +0.000 A 
ATOM      8  C   UNL     1       0.793   8.746  21.435  0.00  0.00    +0.000 A 
ATOM      9  C   UNL     1       1.403   8.518  20.207  0.00  0.00    +0.000 A 
ATOM     10  N   UNL     1       1.993   7.399  19.697  0.00  0.00    +0.000 NA
ATOM     11  C   UNL     1       2.433   7.747  18.501  0.00  0.00    +0.000 A 
ATOM     12  N   UNL     1       2.079   9.039  18.203  0.00  0.00    +0.000 N 
ATOM     13  C   UNL     1       1.490   9.578  19.318  0.00  0.00    +0.000 A 
ATOM     14  N   UNL     1       1.097  10.853  19.509  0.00  0.00    +0.000 NA
ATOM     15  C   UNL     1      -1.237  12.544  21.632  0.00  0.00    +0.000 C 
ATOM     16  H   UNL     1       2.287   9.547  17.357  0.00  0.00    +0.000 HD
ENDROOT
BRANCH   1  18
ATOM     17  O   UNL     1      -2.086  11.734  18.840  0.00  0.00    +0.000 OA
ATOM     18  C   UNL     1      -2.795  12.351  19.629  0.00  0.00    +0.000 C 
ATOM     19  N   UNL     1      -4.179  12.279  19.568  0.00  0.00    +0.000 N 
ATOM     20  C   UNL     1      -4.839  11.364  18.651  0.00  0.00    +0.000 C 
ATOM     21  C   UNL     1      -5.991  12.184  18.092  0.00  0.00    +0.000 C 
ATOM     22  C   UNL     1      -6.403  13.044  19.279  0.00  0.00    +0.000 C 
ATOM     23  C   UNL     1      -5.085  13.346  19.973  0.00  0.00    +0.000 C 
ENDBRANCH   1  18
BRANCH  11  24
ATOM     24  C   UNL     1       3.235   6.746  17.697  0.00  0.00    +0.000 C 
ATOM     25  C   UNL     1       4.432   6.081  18.306  0.00  0.00    +0.000 C 
ATOM     26  C   UNL     1       3.258   5.242  17.851  0.00  0.00    +0.000 C 
BRANCH  26  27
ATOM     27  C   UNL     1       2.697   4.330  18.913  0.00  0.00    +0.000 A 
ATOM     28  C   UNL     1       1.334   4.207  19.220  0.00  0.00    +0.000 A 
ATOM     29  C   UNL     1       0.891   3.316  20.206  0.00  0.00    +0.000 A 
ATOM     30  C   UNL     1       1.794   2.495  20.877  0.00  0.00    +0.000 A 
ATOM     31  C   UNL     1       3.147   2.562  20.563  0.00  0.00    +0.000 A 
ATOM     32  C   UNL     1       3.585   3.464  19.596  0.00  0.00    +0.000 A 
ENDBRANCH  26  27
ENDBRANCH  11  24
TORSDOF 3
ENDMDL
MODEL 5
REMARK VINA RESULT:      -8.4      1.305      1.538
REMARK  Name = 
REMARK  3 active torsions:
REMARK  status: ('A' for Active; 'I' for Inactive)
REMARK    1  A    between atoms: C_2  and  C_3
REMARK    2  A    between atoms: C_13  and  C_14
REMARK    3  A    between atoms: C_16  and  C_17
REMARK                            x       y       z     vdW  Elec       q    Type
REMARK                         _______ _______ _______ _____ _____    ______ ____
ROOT
ATOM      1  C   UNL     1      -3.107  13.481  21.441  0.00  0.00    +0.000 C 
ATOM      2  C   UNL     1      -2.548  14.812  20.925  0.00  0.00    +0.000 C 
ATOM      3  C   UNL     1      -1.179  14.654  20.265  0.00  0.00    +0.000 C 
ATOM      4  C   UNL     1      -0.192  13.937  21.175  0.00  0.00    +0.000 C 
ATOM      5  N   UNL     1      -0.746  12.699  21.706  0.00  0.00    +0.000 N 
ATOM      6  C   UNL     1      -0.239  11.475  21.275  0.00  0.00    +0.000 A 
ATOM      7  C   UNL     1      -0.310  10.380  22.160  0.00  0.00    +0.000 A 
ATOM      8  C   UNL     1       0.215   9.131  21.828  0.00  0.00    +0.000 A 
ATOM      9  C   UNL     1       0.821   9.033  20.581  0.00  0.00    +0.000 A 
ATOM     10  N   UNL     1       1.482   7.997  19.988  0.00  0.00    +0.000 NA
ATOM     11  C   UNL     1       1.879   8.457  18.816  0.00  0.00    +0.000 A 
ATOM     12  N   UNL     1       1.430   9.738  18.612  0.00  0.00    +0.000 N 
ATOM     13  C   UNL     1       0.820  10.156  19.768  0.00  0.00    +0.000 A 
ATOM     14  N   UNL     1       0.342  11.383  20.052  0.00  0.00    +0.000 NA
ATOM     15  C   UNL     1      -2.074  12.752  22.310  0.00  0.00    +0.000 C 
ATOM     16  H   UNL     1       1.589  10.317  17.802  0.00  0.00    +0.000 HD
ENDROOT
BRANCH   1  18
ATOM     17  O   UNL     1      -2.912  12.123  19.445  0.00  0.00    +0.000 OA
ATOM     18  C   UNL     1      -3.644  12.588  20.314  0.00  0.00    +0.000 C 
ATOM     19  N   UNL     1      -5.013  12.368  20.301  0.00  0.00    +0.000 N 
ATOM     20  C   UNL     1      -5.616  11.469  19.330  0.00  0.00    +0.000 C 
ATOM     21  C   UNL     1      -6.875  12.202  18.893  0.00  0.00    +0.000 C 
ATOM     22  C   UNL     1      -7.319  12.905  20.169  0.00  0.00    +0.000 C 
ATOM     23  C   UNL     1      -6.008  13.289  20.836  0.00  0.00    +0.000 C 
ENDBRANCH   1  18
BRANCH  11  24
ATOM     24  C   UNL     1       2.737   7.574  17.936  0.00  0.00    +0.000 C 
ATOM     25  C   UNL     1       3.943   6.891  18.506  0.00  0.00    +0.000 C 
ATOM     26  C   UNL     1       2.812   6.064  17.934  0.00  0.00    +0.000 C 
BRANCH  26  27
ATOM     27  C   UNL     1       2.260   5.027  18.879  0.00  0.00    +0.000 A 
ATOM     28  C   UNL     1       2.421   5.051  20.272  0.00  0.00    +0.000 A 
ATOM     29  C   UNL     1       1.854   4.060  21.083  0.00  0.00    +0.000 A 
ATOM     30  C   UNL     1       1.076   3.048  20.528  0.00  0.00    +0.000 A 
ATOM     31  C   UNL     1       0.861   3.023  19.154  0.00  0.00    +0.000 A 
ATOM     32  C   UNL     1       1.443   3.998  18.349  0.00  0.00    +0.000 A 
ENDBRANCH  26  27
ENDBRANCH  11  24
TORSDOF 3
ENDMDL
MODEL 6
REMARK VINA RESULT:      -8.3      2.445      4.905
REMARK  Name = 
REMARK  3 active torsions:
REMARK  status: ('A' for Active; 'I' for Inactive)
REMARK    1  A    between atoms: C_2  and  C_3
REMARK    2  A    between atoms: C_13  and  C_14
REMARK    3  A    between atoms: C_16  and  C_17
REMARK                            x       y       z     vdW  Elec       q    Type
REMARK                         _______ _______ _______ _____ _____    ______ ____
ROOT
ATOM      1  C   UNL     1       0.188  14.029  20.482  0.00  0.00    +0.000 C 
ATOM      2  C   UNL     1      -0.595  14.023  21.800  0.00  0.00    +0.000 C 
ATOM      3  C   UNL     1      -0.768  12.615  22.369  0.00  0.00    +0.000 C 
ATOM      4  C   UNL     1      -1.369  11.662  21.346  0.00  0.00    +0.000 C 
ATOM      5  N   UNL     1      -0.655  11.710  20.077  0.00  0.00    +0.000 N 
ATOM      6  C   UNL     1       0.115  10.621  19.677  0.00  0.00    +0.000 A 
ATOM      7  C   UNL     1       0.286  10.402  18.294  0.00  0.00    +0.000 A 
ATOM      8  C   UNL     1       1.002   9.309  17.805  0.00  0.00    +0.000 A 
ATOM      9  C   UNL     1       1.526   8.444  18.759  0.00  0.00    +0.000 A 
ATOM     10  N   UNL     1       2.204   7.268  18.621  0.00  0.00    +0.000 NA
ATOM     11  C   UNL     1       2.441   6.852  19.852  0.00  0.00    +0.000 A 
ATOM     12  N   UNL     1       1.995   7.765  20.775  0.00  0.00    +0.000 N 
ATOM     13  C   UNL     1       1.330   8.755  20.096  0.00  0.00    +0.000 A 
ATOM     14  N   UNL     1       0.634   9.786  20.612  0.00  0.00    +0.000 NA
ATOM     15  C   UNL     1      -0.403  13.022  19.487  0.00  0.00    +0.000 C 
ATOM     16  H   UNL     1       2.054   7.694  21.779  0.00  0.00    +0.000 HD
ENDROOT
BRANCH   1  18
ATOM     17  O   UNL     1       2.137  12.946  21.427  0.00  0.00    +0.000 OA
ATOM     18  C   UNL     1       1.695  13.820  20.688  0.00  0.00    +0.000 C 
ATOM     19  N   UNL     1       2.536  14.703  20.027  0.00  0.00    +0.000 N 
ATOM     20  C   UNL     1       3.980  14.542  20.083  0.00  0.00    +0.000 C 
ATOM     21  C   UNL     1       4.494  15.962  20.261  0.00  0.00    +0.000 C 
ATOM     22  C   UNL     1       3.508  16.786  19.445  0.00  0.00    +0.000 C 
ATOM     23  C   UNL     1       2.184  16.069  19.660  0.00  0.00    +0.000 C 
ENDBRANCH   1  18
BRANCH  11  24
ATOM     24  C   UNL     1       3.102   5.505  20.054  0.00  0.00    +0.000 C 
ATOM     25  C   UNL     1       2.661   4.324  19.245  0.00  0.00    +0.000 C 
ATOM     26  C   UNL     1       4.089   4.814  19.142  0.00  0.00    +0.000 C 
BRANCH  26  27
ATOM     27  C   UNL     1       4.543   5.115  17.736  0.00  0.00    +0.000 A 
ATOM     28  C   UNL     1       4.845   6.397  17.253  0.00  0.00    +0.000 A 
ATOM     29  C   UNL     1       5.286   6.590  15.938  0.00  0.00    +0.000 A 
ATOM     30  C   UNL     1       5.479   5.504  15.088  0.00  0.00    +0.000 A 
ATOM     31  C   UNL     1       5.231   4.217  15.552  0.00  0.00    +0.000 A 
ATOM     32  C   UNL     1       4.773   4.031  16.854  0.00  0.00    +0.000 A 
ENDBRANCH  26  27
ENDBRANCH  11  24
TORSDOF 3
ENDMDL
MODEL 7
REMARK VINA RESULT:      -8.2      1.750      2.332
REMARK  Name = 
REMARK  3 active torsions:
REMARK  status: ('A' for Active; 'I' for Inactive)
REMARK    1  A    between atoms: C_2  and  C_3
REMARK    2  A    between atoms: C_13  and  C_14
REMARK    3  A    between atoms: C_16  and  C_17
REMARK                            x       y       z     vdW  Elec       q    Type
REMARK                         _______ _______ _______ _____ _____    ______ ____
ROOT
ATOM      1  C   UNL     1      -3.419  13.280  22.480  0.00  0.00    +0.000 C 
ATOM      2  C   UNL     1      -2.809  14.658  22.200  0.00  0.00    +0.000 C 
ATOM      3  C   UNL     1      -1.419  14.564  21.572  0.00  0.00    +0.000 C 
ATOM      4  C   UNL     1      -0.486  13.685  22.393  0.00  0.00    +0.000 C 
ATOM      5  N   UNL     1      -1.091  12.396  22.704  0.00  0.00    +0.000 N 
ATOM      6  C   UNL     1      -0.597  11.240  22.104  0.00  0.00    +0.000 A 
ATOM      7  C   UNL     1      -0.729  10.022  22.803  0.00  0.00    +0.000 A 
ATOM      8  C   UNL     1      -0.221   8.825  22.298  0.00  0.00    +0.000 A 
ATOM      9  C   UNL     1       0.433   8.905  21.074  0.00  0.00    +0.000 A 
ATOM     10  N   UNL     1       1.091   7.955  20.349  0.00  0.00    +0.000 NA
ATOM     11  C   UNL     1       1.546   8.581  19.279  0.00  0.00    +0.000 A 
ATOM     12  N   UNL     1       1.136   9.891  19.263  0.00  0.00    +0.000 N 
ATOM     13  C   UNL     1       0.491  10.141  20.447  0.00  0.00    +0.000 A 
ATOM     14  N   UNL     1       0.031  11.323  20.904  0.00  0.00    +0.000 NA
ATOM     15  C   UNL     1      -2.441  12.394  23.260  0.00  0.00    +0.000 C 
ATOM     16  H   UNL     1       1.342  10.584  18.560  0.00  0.00    +0.000 HD
ENDROOT
BRANCH   1  18
ATOM     17  O   UNL     1      -3.198  12.353  20.253  0.00  0.00    +0.000 OA
ATOM     18  C   UNL     1      -3.933  12.590  21.208  0.00  0.00    +0.000 C 
ATOM     19  N   UNL     1      -5.285  12.287  21.174  0.00  0.00    +0.000 N 
ATOM     20  C   UNL     1      -5.859  11.556  20.054  0.00  0.00    +0.000 C 
ATOM     21  C   UNL     1      -7.172  12.275  19.790  0.00  0.00    +0.000 C 
ATOM     22  C   UNL     1      -7.622  12.684  21.186  0.00  0.00    +0.000 C 
ATOM     23  C   UNL     1      -6.319  13.017  21.895  0.00  0.00    +0.000 C 
ENDBRANCH   1  18
BRANCH  11  24
ATOM     24  C   UNL     1       2.418   7.820  18.302  0.00  0.00    +0.000 C 
ATOM     25  C   UNL     1       3.649   7.116  18.786  0.00  0.00    +0.000 C 
ATOM     26  C   UNL     1       2.534   6.323  18.140  0.00  0.00    +0.000 C 
BRANCH  26  27
ATOM     27  C   UNL     1       2.022   5.176  18.975  0.00  0.00    +0.000 A 
ATOM     28  C   UNL     1       1.314   4.076  18.469  0.00  0.00    +0.000 A 
ATOM     29  C   UNL     1       0.893   3.037  19.310  0.00  0.00    +0.000 A 
ATOM     30  C   UNL     1       1.208   3.051  20.666  0.00  0.00    +0.000 A 
ATOM     31  C   UNL     1       1.948   4.106  21.188  0.00  0.00    +0.000 A 
ATOM     32  C   UNL     1       2.346   5.147  20.353  0.00  0.00    +0.000 A 
ENDBRANCH  26  27
ENDBRANCH  11  24
TORSDOF 3
ENDMDL
MODEL 8
REMARK VINA RESULT:      -8.2      2.471      5.194
REMARK  Name = 
REMARK  3 active torsions:
REMARK  status: ('A' for Active; 'I' for Inactive)
REMARK    1  A    between atoms: C_2  and  C_3
REMARK    2  A    between atoms: C_13  and  C_14
REMARK    3  A    between atoms: C_16  and  C_17
REMARK                            x       y       z     vdW  Elec       q    Type
REMARK                         _______ _______ _______ _____ _____    ______ ____
ROOT
ATOM      1  C   UNL     1       0.476  14.106  20.377  0.00  0.00    +0.000 C 
ATOM      2  C   UNL     1      -0.438  14.135  21.608  0.00  0.00    +0.000 C 
ATOM      3  C   UNL     1      -0.753  12.735  22.133  0.00  0.00    +0.000 C 
ATOM      4  C   UNL     1      -1.301  11.830  21.039  0.00  0.00    +0.000 C 
ATOM      5  N   UNL     1      -0.458  11.847  19.850  0.00  0.00    +0.000 N 
ATOM      6  C   UNL     1       0.283  10.717  19.514  0.00  0.00    +0.000 A 
ATOM      7  C   UNL     1       0.583  10.502  18.153  0.00  0.00    +0.000 A 
ATOM      8  C   UNL     1       1.279   9.372  17.723  0.00  0.00    +0.000 A 
ATOM      9  C   UNL     1       1.649   8.467  18.711  0.00  0.00    +0.000 A 
ATOM     10  N   UNL     1       2.265   7.253  18.625  0.00  0.00    +0.000 NA
ATOM     11  C   UNL     1       2.348   6.811  19.867  0.00  0.00    +0.000 A 
ATOM     12  N   UNL     1       1.865   7.741  20.753  0.00  0.00    +0.000 N 
ATOM     13  C   UNL     1       1.334   8.776  20.026  0.00  0.00    +0.000 A 
ATOM     14  N   UNL     1       0.651   9.843  20.485  0.00  0.00    +0.000 NA
ATOM     15  C   UNL     1      -0.067  13.147  19.311  0.00  0.00    +0.000 C 
ATOM     16  H   UNL     1       1.815   7.656  21.757  0.00  0.00    +0.000 HD
ENDROOT
BRANCH   1  18
ATOM     17  O   UNL     1       2.262  12.798  21.358  0.00  0.00    +0.000 OA
ATOM     18  C   UNL     1       1.939  13.803  20.734  0.00  0.00    +0.000 C 
ATOM     19  N   UNL     1       2.876  14.751  20.350  0.00  0.00    +0.000 N 
ATOM     20  C   UNL     1       4.297  14.524  20.561  0.00  0.00    +0.000 C 
ATOM     21  C   UNL     1       4.808  15.869  21.049  0.00  0.00    +0.000 C 
ATOM     22  C   UNL     1       3.954  16.861  20.271  0.00  0.00    +0.000 C 
ATOM     23  C   UNL     1       2.601  16.172  20.187  0.00  0.00    +0.000 C 
ENDBRANCH   1  18
BRANCH  11  24
ATOM     24  C   UNL     1       2.903   5.425  20.114  0.00  0.00    +0.000 C 
ATOM     25  C   UNL     1       2.969   4.432  18.994  0.00  0.00    +0.000 C 
ATOM     26  C   UNL     1       4.242   4.874  19.682  0.00  0.00    +0.000 C 
BRANCH  26  27
ATOM     27  C   UNL     1       5.299   5.411  18.749  0.00  0.00    +0.000 A 
ATOM     28  C   UNL     1       5.054   5.869  17.446  0.00  0.00    +0.000 A 
ATOM     29  C   UNL     1       6.090   6.377  16.651  0.00  0.00    +0.000 A 
ATOM     30  C   UNL     1       7.384   6.482  17.154  0.00  0.00    +0.000 A 
ATOM     31  C   UNL     1       7.648   6.078  18.458  0.00  0.00    +0.000 A 
ATOM     32  C   UNL     1       6.620   5.554  19.238  0.00  0.00    +0.000 A 
ENDBRANCH  26  27
ENDBRANCH  11  24
TORSDOF 3
ENDMDL
MODEL 9
REMARK VINA RESULT:      -8.1      2.327      5.038
REMARK  Name = 
REMARK  3 active torsions:
REMARK  status: ('A' for Active; 'I' for Inactive)
REMARK    1  A    between atoms: C_2  and  C_3
REMARK    2  A    between atoms: C_13  and  C_14
REMARK    3  A    between atoms: C_16  and  C_17
REMARK                            x       y       z     vdW  Elec       q    Type
REMARK                         _______ _______ _______ _____ _____    ______ ____
ROOT
ATOM      1  C   UNL     1       0.961  14.074  19.786  0.00  0.00    +0.000 C 
ATOM      2  C   UNL     1      -0.345  14.299  20.556  0.00  0.00    +0.000 C 
ATOM      3  C   UNL     1      -1.007  12.988  20.977  0.00  0.00    +0.000 C 
ATOM      4  C   UNL     1      -1.198  12.046  19.796  0.00  0.00    +0.000 C 
ATOM      5  N   UNL     1       0.033  11.877  19.035  0.00  0.00    +0.000 N 
ATOM      6  C   UNL     1       0.702  10.656  19.067  0.00  0.00    +0.000 A 
ATOM      7  C   UNL     1       1.474  10.294  17.944  0.00  0.00    +0.000 A 
ATOM      8  C   UNL     1       2.137   9.068  17.872  0.00  0.00    +0.000 A 
ATOM      9  C   UNL     1       1.984   8.224  18.965  0.00  0.00    +0.000 A 
ATOM     10  N   UNL     1       2.433   6.953  19.182  0.00  0.00    +0.000 NA
ATOM     11  C   UNL     1       1.976   6.617  20.374  0.00  0.00    +0.000 A 
ATOM     12  N   UNL     1       1.306   7.664  20.958  0.00  0.00    +0.000 N 
ATOM     13  C   UNL     1       1.229   8.676  20.035  0.00  0.00    +0.000 A 
ATOM     14  N   UNL     1       0.557   9.840  20.141  0.00  0.00    +0.000 NA
ATOM     15  C   UNL     1       0.757  13.081  18.636  0.00  0.00    +0.000 C 
ATOM     16  H   UNL     1       0.864   7.673  21.864  0.00  0.00    +0.000 HD
ENDROOT
BRANCH   1  18
ATOM     17  O   UNL     1       2.128  12.605  21.317  0.00  0.00    +0.000 OA
ATOM     18  C   UNL     1       2.125  13.666  20.701  0.00  0.00    +0.000 C 
ATOM     19  N   UNL     1       3.158  14.582  20.832  0.00  0.00    +0.000 N 
ATOM     20  C   UNL     1       4.347  14.261  21.604  0.00  0.00    +0.000 C 
ATOM     21  C   UNL     1       4.633  15.540  22.374  0.00  0.00    +0.000 C 
ATOM     22  C   UNL     1       4.216  16.628  21.393  0.00  0.00    +0.000 C 
ATOM     23  C   UNL     1       3.012  16.024  20.687  0.00  0.00    +0.000 C 
ENDBRANCH   1  18
BRANCH  11  24
ATOM     24  C   UNL     1       2.218   5.211  20.881  0.00  0.00    +0.000 C 
ATOM     25  C   UNL     1       1.702   4.036  20.108  0.00  0.00    +0.000 C 
ATOM     26  C   UNL     1       3.190   4.188  20.339  0.00  0.00    +0.000 C 
BRANCH  26  27
ATOM     27  C   UNL     1       4.021   4.156  19.081  0.00  0.00    +0.000 A 
ATOM     28  C   UNL     1       3.580   3.659  17.846  0.00  0.00    +0.000 A 
ATOM     29  C   UNL     1       4.408   3.688  16.716  0.00  0.00    +0.000 A 
ATOM     30  C   UNL     1       5.679   4.253  16.783  0.00  0.00    +0.000 A 
ATOM     31  C   UNL     1       6.127   4.794  17.983  0.00  0.00    +0.000 A 
ATOM     32  C   UNL     1       5.309   4.745  19.108  0.00  0.00    +0.000 A 
ENDBRANCH  26  27
ENDBRANCH  11  24
TORSDOF 3
ENDMDL
