MODEL 1
REMARK VINA RESULT:      -7.0      0.000      0.000
REMARK  Name = 
REMARK  8 active torsions:
REMARK  status: ('A' for Active; 'I' for Inactive)
REMARK    1  A    between atoms: C_2  and  C_3
REMARK    2  A    between atoms: C_3  and  C_4
REMARK    3  A    between atoms: C_3  and  C_10
REMARK    4  A    between atoms: C_12  and  O_13
REMARK    5  A    between atoms: O_13  and  C_14
REMARK    6  A    between atoms: C_15  and  O_16
REMARK    7  A    between atoms: O_16  and  C_17
REMARK    8  A    between atoms: C_19  and  O_20
REMARK                            x       y       z     vdW  Elec       q    Type
REMARK                         _______ _______ _______ _____ _____    ______ ____
ROOT
ATOM      1  C   UNL     1       4.072   5.203  17.139  0.00  0.00    +0.000 A 
ATOM      2  C   UNL     1       3.924   3.806  17.157  0.00  0.00    +0.000 A 
ATOM      3  C   UNL     1       2.896   3.187  17.883  0.00  0.00    +0.000 A 
ATOM      4  C   UNL     1       1.956   3.975  18.572  0.00  0.00    +0.000 A 
ATOM      5  C   UNL     1       2.087   5.367  18.550  0.00  0.00    +0.000 A 
ATOM      6  C   UNL     1       3.135   5.965  17.847  0.00  0.00    +0.000 A 
ENDROOT
BRANCH   3   7
ATOM      7  O   UNL     1       2.728   1.824  17.937  0.00  0.00    +0.000 OA
ATOM      8  C   UNL     1       3.744   1.097  18.620  0.00  0.00    +0.000 C 
ENDBRANCH   3   7
BRANCH   4   9
ATOM      9  O   UNL     1       0.962   3.306  19.242  0.00  0.00    +0.000 OA
ATOM     10  C   UNL     1       1.105   3.160  20.649  0.00  0.00    +0.000 C 
ENDBRANCH   4   9
BRANCH   6  11
ATOM     11  O   UNL     1       3.251   7.330  17.848  0.00  0.00    +0.000 OA
ATOM     12  H   UNL     1       3.806   7.604  17.103  0.00  0.00    +0.000 HD
ENDBRANCH   6  11
BRANCH   1  13
ATOM     13  C   UNL     1       5.198   5.872  16.354  0.00  0.00    +0.000 C 
BRANCH  13  14
ATOM     14  C   UNL     1       6.360   6.321  17.244  0.00  0.00    +0.000 A 
ATOM     15  C   UNL     1       6.904   5.534  18.270  0.00  0.00    +0.000 A 
ATOM     16  C   UNL     1       7.937   6.026  19.075  0.00  0.00    +0.000 A 
ATOM     17  C   UNL     1       8.444   7.309  18.862  0.00  0.00    +0.000 A 
ATOM     18  C   UNL     1       7.917   8.100  17.846  0.00  0.00    +0.000 A 
ATOM     19  C   UNL     1       6.883   7.612  17.049  0.00  0.00    +0.000 A 
ENDBRANCH  13  14
BRANCH  13  21
ATOM     20  C   UNL     1       6.881   4.763  14.839  0.00  0.00    +0.000 C 
ATOM     21  C   UNL     1       5.604   5.046  15.146  0.00  0.00    +0.000 C 
ENDBRANCH  13  21
ENDBRANCH   1  13
TORSDOF 6
ENDMDL
MODEL 2
REMARK VINA RESULT:      -6.9      1.986      5.982
REMARK  Name = 
REMARK  8 active torsions:
REMARK  status: ('A' for Active; 'I' for Inactive)
REMARK    1  A    between atoms: C_2  and  C_3
REMARK    2  A    between atoms: C_3  and  C_4
REMARK    3  A    between atoms: C_3  and  C_10
REMARK    4  A    between atoms: C_12  and  O_13
REMARK    5  A    between atoms: O_13  and  C_14
REMARK    6  A    between atoms: C_15  and  O_16
REMARK    7  A    between atoms: O_16  and  C_17
REMARK    8  A    between atoms: C_19  and  O_20
REMARK                            x       y       z     vdW  Elec       q    Type
REMARK                         _______ _______ _______ _____ _____    ______ ____
ROOT
ATOM      1  C   UNL     1       3.781   5.618  17.517  0.00  0.00    +0.000 A 
ATOM      2  C   UNL     1       4.841   6.540  17.487  0.00  0.00    +0.000 A 
ATOM      3  C   UNL     1       6.046   6.251  16.831  0.00  0.00    +0.000 A 
ATOM      4  C   UNL     1       6.190   5.032  16.143  0.00  0.00    +0.000 A 
ATOM      5  C   UNL     1       5.137   4.112  16.157  0.00  0.00    +0.000 A 
ATOM      6  C   UNL     1       3.955   4.404  16.841  0.00  0.00    +0.000 A 
ENDROOT
BRANCH   3   7
ATOM      7  O   UNL     1       7.110   7.121  16.791  0.00  0.00    +0.000 OA
ATOM      8  C   UNL     1       7.806   7.309  18.019  0.00  0.00    +0.000 C 
ENDBRANCH   3   7
BRANCH   4   9
ATOM      9  O   UNL     1       7.386   4.823  15.501  0.00  0.00    +0.000 OA
ATOM     10  C   UNL     1       7.371   4.803  14.079  0.00  0.00    +0.000 C 
ENDBRANCH   4   9
BRANCH   6  11
ATOM     11  O   UNL     1       2.941   3.485  16.851  0.00  0.00    +0.000 OA
ATOM     12  H   UNL     1       2.694   3.271  15.938  0.00  0.00    +0.000 HD
ENDBRANCH   6  11
BRANCH   1  13
ATOM     13  C   UNL     1       2.474   5.935  18.241  0.00  0.00    +0.000 C 
BRANCH  13  14
ATOM     14  C   UNL     1       2.142   4.925  19.342  0.00  0.00    +0.000 A 
ATOM     15  C   UNL     1       2.820   4.860  20.569  0.00  0.00    +0.000 A 
ATOM     16  C   UNL     1       2.493   3.880  21.512  0.00  0.00    +0.000 A 
ATOM     17  C   UNL     1       1.482   2.957  21.247  0.00  0.00    +0.000 A 
ATOM     18  C   UNL     1       0.797   3.011  20.036  0.00  0.00    +0.000 A 
ATOM     19  C   UNL     1       1.129   3.982  19.093  0.00  0.00    +0.000 A 
ENDBRANCH  13  14
BRANCH  13  21
ATOM     20  C   UNL     1       1.890   8.365  17.912  0.00  0.00    +0.000 C 
ATOM     21  C   UNL     1       2.412   7.390  18.672  0.00  0.00    +0.000 C 
ENDBRANCH  13  21
ENDBRANCH   1  13
TORSDOF 6
ENDMDL
MODEL 3
REMARK VINA RESULT:      -6.9      1.985      5.999
REMARK  Name = 
REMARK  8 active torsions:
REMARK  status: ('A' for Active; 'I' for Inactive)
REMARK    1  A    between atoms: C_2  and  C_3
REMARK    2  A    between atoms: C_3  and  C_4
REMARK    3  A    between atoms: C_3  and  C_10
REMARK    4  A    between atoms: C_12  and  O_13
REMARK    5  A    between atoms: O_13  and  C_14
REMARK    6  A    between atoms: C_15  and  O_16
REMARK    7  A    between atoms: O_16  and  C_17
REMARK    8  A    between atoms: C_19  and  O_20
REMARK                            x       y       z     vdW  Elec       q    Type
REMARK                         _______ _______ _______ _____ _____    ______ ____
ROOT
ATOM      1  C   UNL     1       3.841   5.649  17.399  0.00  0.00    +0.000 A 
ATOM      2  C   UNL     1       4.894   6.580  17.374  0.00  0.00    +0.000 A 
ATOM      3  C   UNL     1       6.110   6.295  16.736  0.00  0.00    +0.000 A 
ATOM      4  C   UNL     1       6.272   5.072  16.059  0.00  0.00    +0.000 A 
ATOM      5  C   UNL     1       5.226   4.144  16.067  0.00  0.00    +0.000 A 
ATOM      6  C   UNL     1       4.034   4.432  16.734  0.00  0.00    +0.000 A 
ENDROOT
BRANCH   3   7
ATOM      7  O   UNL     1       7.167   7.173  16.702  0.00  0.00    +0.000 OA
ATOM      8  C   UNL     1       7.788   7.447  17.954  0.00  0.00    +0.000 C 
ENDBRANCH   3   7
BRANCH   4   9
ATOM      9  O   UNL     1       7.478   4.868  15.434  0.00  0.00    +0.000 OA
ATOM     10  C   UNL     1       7.491   4.898  14.012  0.00  0.00    +0.000 C 
ENDBRANCH   4   9
BRANCH   6  11
ATOM     11  O   UNL     1       3.027   3.504  16.738  0.00  0.00    +0.000 OA
ATOM     12  H   UNL     1       3.082   2.976  17.550  0.00  0.00    +0.000 HD
ENDBRANCH   6  11
BRANCH   1  13
ATOM     13  C   UNL     1       2.523   5.961  18.103  0.00  0.00    +0.000 C 
BRANCH  13  14
ATOM     14  C   UNL     1       2.138   4.906  19.143  0.00  0.00    +0.000 A 
ATOM     15  C   UNL     1       1.145   3.937  18.938  0.00  0.00    +0.000 A 
ATOM     16  C   UNL     1       0.813   3.031  19.952  0.00  0.00    +0.000 A 
ATOM     17  C   UNL     1       1.473   3.077  21.180  0.00  0.00    +0.000 A 
ATOM     18  C   UNL     1       2.465   4.029  21.397  0.00  0.00    +0.000 A 
ATOM     19  C   UNL     1       2.789   4.937  20.390  0.00  0.00    +0.000 A 
ENDBRANCH  13  14
BRANCH  13  21
ATOM     20  C   UNL     1       1.867   8.390  17.948  0.00  0.00    +0.000 C 
ATOM     21  C   UNL     1       2.482   7.394  18.605  0.00  0.00    +0.000 C 
ENDBRANCH  13  21
ENDBRANCH   1  13
TORSDOF 6
ENDMDL
MODEL 4
REMARK VINA RESULT:      -6.9      0.294      1.117
REMARK  Name = 
REMARK  8 active torsions:
REMARK  status: ('A' for Active; 'I' for Inactive)
REMARK    1  A    between atoms: C_2  and  C_3
REMARK    2  A    between atoms: C_3  and  C_4
REMARK    3  A    between atoms: C_3  and  C_10
REMARK    4  A    between atoms: C_12  and  O_13
REMARK    5  A    between atoms: O_13  and  C_14
REMARK    6  A    between atoms: C_15  and  O_16
REMARK    7  A    between atoms: O_16  and  C_17
REMARK    8  A    between atoms: C_19  and  O_20
REMARK                            x       y       z     vdW  Elec       q    Type
REMARK                         _______ _______ _______ _____ _____    ______ ____
ROOT
ATOM      1  C   UNL     1       3.955   5.026  17.293  0.00  0.00    +0.000 A 
ATOM      2  C   UNL     1       3.822   3.633  17.426  0.00  0.00    +0.000 A 
ATOM      3  C   UNL     1       2.819   3.065  18.225  0.00  0.00    +0.000 A 
ATOM      4  C   UNL     1       1.888   3.898  18.873  0.00  0.00    +0.000 A 
ATOM      5  C   UNL     1       2.004   5.285  18.738  0.00  0.00    +0.000 A 
ATOM      6  C   UNL     1       3.028   5.834  17.963  0.00  0.00    +0.000 A 
ENDROOT
BRANCH   3   7
ATOM      7  O   UNL     1       2.666   1.709  18.390  0.00  0.00    +0.000 OA
ATOM      8  C   UNL     1       3.855   0.978  18.674  0.00  0.00    +0.000 C 
ENDBRANCH   3   7
BRANCH   4   9
ATOM      9  O   UNL     1       0.917   3.275  19.619  0.00  0.00    +0.000 OA
ATOM     10  C   UNL     1       1.160   3.123  21.012  0.00  0.00    +0.000 C 
ENDBRANCH   4   9
BRANCH   6  11
ATOM     11  O   UNL     1       3.129   7.195  17.853  0.00  0.00    +0.000 OA
ATOM     12  H   UNL     1       3.306   7.429  16.929  0.00  0.00    +0.000 HD
ENDBRANCH   6  11
BRANCH   1  13
ATOM     13  C   UNL     1       5.054   5.639  16.430  0.00  0.00    +0.000 C 
BRANCH  13  14
ATOM     14  C   UNL     1       6.197   6.236  17.255  0.00  0.00    +0.000 A 
ATOM     15  C   UNL     1       6.737   7.511  17.028  0.00  0.00    +0.000 A 
ATOM     16  C   UNL     1       7.813   7.976  17.792  0.00  0.00    +0.000 A 
ATOM     17  C   UNL     1       8.360   7.176  18.796  0.00  0.00    +0.000 A 
ATOM     18  C   UNL     1       7.832   5.911  19.036  0.00  0.00    +0.000 A 
ATOM     19  C   UNL     1       6.766   5.445  18.269  0.00  0.00    +0.000 A 
ENDBRANCH  13  14
BRANCH  13  21
ATOM     20  C   UNL     1       6.554   4.918  14.536  0.00  0.00    +0.000 C 
ATOM     21  C   UNL     1       5.493   4.691  15.327  0.00  0.00    +0.000 C 
ENDBRANCH  13  21
ENDBRANCH   1  13
TORSDOF 6
ENDMDL
MODEL 5
REMARK VINA RESULT:      -6.7      2.604      5.506
REMARK  Name = 
REMARK  8 active torsions:
REMARK  status: ('A' for Active; 'I' for Inactive)
REMARK    1  A    between atoms: C_2  and  C_3
REMARK    2  A    between atoms: C_3  and  C_4
REMARK    3  A    between atoms: C_3  and  C_10
REMARK    4  A    between atoms: C_12  and  O_13
REMARK    5  A    between atoms: O_13  and  C_14
REMARK    6  A    between atoms: C_15  and  O_16
REMARK    7  A    between atoms: O_16  and  C_17
REMARK    8  A    between atoms: C_19  and  O_20
REMARK                            x       y       z     vdW  Elec       q    Type
REMARK                         _______ _______ _______ _____ _____    ______ ____
ROOT
ATOM      1  C   UNL     1       3.594   5.171  18.990  0.00  0.00    +0.000 A 
ATOM      2  C   UNL     1       4.994   5.211  19.111  0.00  0.00    +0.000 A 
ATOM      3  C   UNL     1       5.829   4.648  18.135  0.00  0.00    +0.000 A 
ATOM      4  C   UNL     1       5.266   4.073  16.982  0.00  0.00    +0.000 A 
ATOM      5  C   UNL     1       3.875   4.039  16.846  0.00  0.00    +0.000 A 
ATOM      6  C   UNL     1       3.057   4.576  17.842  0.00  0.00    +0.000 A 
ENDROOT
BRANCH   3   7
ATOM      7  O   UNL     1       7.201   4.655  18.225  0.00  0.00    +0.000 OA
ATOM      8  C   UNL     1       7.768   5.692  19.019  0.00  0.00    +0.000 C 
ENDBRANCH   3   7
BRANCH   4   9
ATOM      9  O   UNL     1       6.143   3.563  16.055  0.00  0.00    +0.000 OA
ATOM     10  C   UNL     1       6.244   4.240  14.809  0.00  0.00    +0.000 C 
ENDBRANCH   4   9
BRANCH   6  11
ATOM     11  O   UNL     1       1.697   4.522  17.694  0.00  0.00    +0.000 OA
ATOM     12  H   UNL     1       1.336   5.421  17.728  0.00  0.00    +0.000 HD
ENDBRANCH   6  11
BRANCH   1  13
ATOM     13  C   UNL     1       2.688   5.777  20.059  0.00  0.00    +0.000 C 
BRANCH  13  14
ATOM     14  C   UNL     1       2.150   7.157  19.672  0.00  0.00    +0.000 A 
ATOM     15  C   UNL     1       2.353   7.747  18.416  0.00  0.00    +0.000 A 
ATOM     16  C   UNL     1       1.871   9.032  18.146  0.00  0.00    +0.000 A 
ATOM     17  C   UNL     1       1.174   9.742  19.124  0.00  0.00    +0.000 A 
ATOM     18  C   UNL     1       0.960   9.168  20.373  0.00  0.00    +0.000 A 
ATOM     19  C   UNL     1       1.448   7.891  20.645  0.00  0.00    +0.000 A 
ENDBRANCH  13  14
BRANCH  13  21
ATOM     20  C   UNL     1       1.893   3.755  21.338  0.00  0.00    +0.000 C 
ATOM     21  C   UNL     1       1.631   4.789  20.523  0.00  0.00    +0.000 C 
ENDBRANCH  13  21
ENDBRANCH   1  13
TORSDOF 6
ENDMDL
MODEL 6
REMARK VINA RESULT:      -6.6      2.598      5.463
REMARK  Name = 
REMARK  8 active torsions:
REMARK  status: ('A' for Active; 'I' for Inactive)
REMARK    1  A    between atoms: C_2  and  C_3
REMARK    2  A    between atoms: C_3  and  C_4
REMARK    3  A    between atoms: C_3  and  C_10
REMARK    4  A    between atoms: C_12  and  O_13
REMARK    5  A    between atoms: O_13  and  C_14
REMARK    6  A    between atoms: C_15  and  O_16
REMARK    7  A    between atoms: O_16  and  C_17
REMARK    8  A    between atoms: C_19  and  O_20
REMARK                            x       y       z     vdW  Elec       q    Type
REMARK                         _______ _______ _______ _____ _____    ______ ____
ROOT
ATOM      1  C   UNL     1       3.642   5.221  19.015  0.00  0.00    +0.000 A 
ATOM      2  C   UNL     1       5.040   5.279  19.158  0.00  0.00    +0.000 A 
ATOM      3  C   UNL     1       5.898   4.739  18.190  0.00  0.00    +0.000 A 
ATOM      4  C   UNL     1       5.361   4.166  17.022  0.00  0.00    +0.000 A 
ATOM      5  C   UNL     1       3.972   4.114  16.865  0.00  0.00    +0.000 A 
ATOM      6  C   UNL     1       3.132   4.630  17.853  0.00  0.00    +0.000 A 
ENDROOT
BRANCH   3   7
ATOM      7  O   UNL     1       7.268   4.764  18.301  0.00  0.00    +0.000 OA
ATOM      8  C   UNL     1       7.808   5.798  19.117  0.00  0.00    +0.000 C 
ENDBRANCH   3   7
BRANCH   4   9
ATOM      9  O   UNL     1       6.259   3.678  16.105  0.00  0.00    +0.000 OA
ATOM     10  C   UNL     1       6.415   4.406  14.893  0.00  0.00    +0.000 C 
ENDBRANCH   4   9
BRANCH   6  11
ATOM     11  O   UNL     1       1.775   4.559  17.684  0.00  0.00    +0.000 OA
ATOM     12  H   UNL     1       1.577   4.414  16.746  0.00  0.00    +0.000 HD
ENDBRANCH   6  11
BRANCH   1  13
ATOM     13  C   UNL     1       2.712   5.804  20.076  0.00  0.00    +0.000 C 
BRANCH  13  14
ATOM     14  C   UNL     1       2.209   7.206  19.723  0.00  0.00    +0.000 A 
ATOM     15  C   UNL     1       1.464   8.010  20.599  0.00  0.00    +0.000 A 
ATOM     16  C   UNL     1       0.997   9.264  20.192  0.00  0.00    +0.000 A 
ATOM     17  C   UNL     1       1.272   9.736  18.909  0.00  0.00    +0.000 A 
ATOM     18  C   UNL     1       2.014   8.952  18.029  0.00  0.00    +0.000 A 
ATOM     19  C   UNL     1       2.471   7.698  18.431  0.00  0.00    +0.000 A 
ENDBRANCH  13  14
BRANCH  13  21
ATOM     20  C   UNL     1       1.843   3.755  21.260  0.00  0.00    +0.000 C 
ATOM     21  C   UNL     1       1.626   4.819  20.470  0.00  0.00    +0.000 C 
ENDBRANCH  13  21
ENDBRANCH   1  13
TORSDOF 6
ENDMDL
MODEL 7
REMARK VINA RESULT:      -6.6      1.806      4.080
REMARK  Name = 
REMARK  8 active torsions:
REMARK  status: ('A' for Active; 'I' for Inactive)
REMARK    1  A    between atoms: C_2  and  C_3
REMARK    2  A    between atoms: C_3  and  C_4
REMARK    3  A    between atoms: C_3  and  C_10
REMARK    4  A    between atoms: C_12  and  O_13
REMARK    5  A    between atoms: O_13  and  C_14
REMARK    6  A    between atoms: C_15  and  O_16
REMARK    7  A    between atoms: O_16  and  C_17
REMARK    8  A    between atoms: C_19  and  O_20
REMARK                            x       y       z     vdW  Elec       q    Type
REMARK                         _______ _______ _______ _____ _____    ______ ____
ROOT
ATOM      1  C   UNL     1       5.213   5.657  18.010  0.00  0.00    +0.000 A 
ATOM      2  C   UNL     1       4.223   6.653  17.940  0.00  0.00    +0.000 A 
ATOM      3  C   UNL     1       3.034   6.557  18.677  0.00  0.00    +0.000 A 
ATOM      4  C   UNL     1       2.837   5.469  19.546  0.00  0.00    +0.000 A 
ATOM      5  C   UNL     1       3.821   4.478  19.632  0.00  0.00    +0.000 A 
ATOM      6  C   UNL     1       4.986   4.575  18.868  0.00  0.00    +0.000 A 
ENDROOT
BRANCH   3   7
ATOM      7  O   UNL     1       2.037   7.503  18.624  0.00  0.00    +0.000 OA
ATOM      8  C   UNL     1       2.300   8.640  17.808  0.00  0.00    +0.000 C 
ENDBRANCH   3   7
BRANCH   4   9
ATOM      9  O   UNL     1       1.662   5.450  20.256  0.00  0.00    +0.000 OA
ATOM     10  C   UNL     1       1.051   4.184  20.475  0.00  0.00    +0.000 C 
ENDBRANCH   4   9
BRANCH   6  11
ATOM     11  O   UNL     1       5.931   3.588  18.959  0.00  0.00    +0.000 OA
ATOM     12  H   UNL     1       6.783   3.983  19.200  0.00  0.00    +0.000 HD
ENDBRANCH   6  11
BRANCH   1  13
ATOM     13  C   UNL     1       6.502   5.763  17.199  0.00  0.00    +0.000 C 
BRANCH  13  14
ATOM     14  C   UNL     1       6.380   5.147  15.802  0.00  0.00    +0.000 A 
ATOM     15  C   UNL     1       5.288   4.370  15.387  0.00  0.00    +0.000 A 
ATOM     16  C   UNL     1       5.264   3.800  14.110  0.00  0.00    +0.000 A 
ATOM     17  C   UNL     1       6.326   4.003  13.228  0.00  0.00    +0.000 A 
ATOM     18  C   UNL     1       7.414   4.775  13.624  0.00  0.00    +0.000 A 
ATOM     19  C   UNL     1       7.442   5.336  14.900  0.00  0.00    +0.000 A 
ENDBRANCH  13  14
BRANCH  13  21
ATOM     20  C   UNL     1       8.009   7.575  18.092  0.00  0.00    +0.000 C 
ATOM     21  C   UNL     1       7.066   7.172  17.225  0.00  0.00    +0.000 C 
ENDBRANCH  13  21
ENDBRANCH   1  13
TORSDOF 6
ENDMDL
MODEL 8
REMARK VINA RESULT:      -6.4      1.561      2.906
REMARK  Name = 
REMARK  8 active torsions:
REMARK  status: ('A' for Active; 'I' for Inactive)
REMARK    1  A    between atoms: C_2  and  C_3
REMARK    2  A    between atoms: C_3  and  C_4
REMARK    3  A    between atoms: C_3  and  C_10
REMARK    4  A    between atoms: C_12  and  O_13
REMARK    5  A    between atoms: O_13  and  C_14
REMARK    6  A    between atoms: C_15  and  O_16
REMARK    7  A    between atoms: O_16  and  C_17
REMARK    8  A    between atoms: C_19  and  O_20
REMARK                            x       y       z     vdW  Elec       q    Type
REMARK                         _______ _______ _______ _____ _____    ______ ____
ROOT
ATOM      1  C   UNL     1       2.926   5.901  18.844  0.00  0.00    +0.000 A 
ATOM      2  C   UNL     1       2.836   4.598  18.324  0.00  0.00    +0.000 A 
ATOM      3  C   UNL     1       2.155   3.581  19.008  0.00  0.00    +0.000 A 
ATOM      4  C   UNL     1       1.502   3.872  20.220  0.00  0.00    +0.000 A 
ATOM      5  C   UNL     1       1.575   5.168  20.740  0.00  0.00    +0.000 A 
ATOM      6  C   UNL     1       2.283   6.161  20.061  0.00  0.00    +0.000 A 
ENDROOT
BRANCH   3   7
ATOM      7  O   UNL     1       2.057   2.293  18.538  0.00  0.00    +0.000 OA
ATOM      8  C   UNL     1       3.273   1.697  18.096  0.00  0.00    +0.000 C 
ENDBRANCH   3   7
BRANCH   4   9
ATOM      9  O   UNL     1       0.833   2.836  20.824  0.00  0.00    +0.000 OA
ATOM     10  C   UNL     1       1.385   2.315  22.027  0.00  0.00    +0.000 C 
ENDBRANCH   4   9
BRANCH   6  11
ATOM     11  O   UNL     1       2.352   7.420  20.594  0.00  0.00    +0.000 OA
ATOM     12  H   UNL     1       1.567   7.923  20.327  0.00  0.00    +0.000 HD
ENDBRANCH   6  11
BRANCH   1  13
ATOM     13  C   UNL     1       3.677   7.002  18.099  0.00  0.00    +0.000 C 
BRANCH  13  14
ATOM     14  C   UNL     1       4.891   6.479  17.327  0.00  0.00    +0.000 A 
ATOM     15  C   UNL     1       4.896   6.259  15.941  0.00  0.00    +0.000 A 
ATOM     16  C   UNL     1       6.028   5.736  15.307  0.00  0.00    +0.000 A 
ATOM     17  C   UNL     1       7.172   5.431  16.047  0.00  0.00    +0.000 A 
ATOM     18  C   UNL     1       7.183   5.648  17.422  0.00  0.00    +0.000 A 
ATOM     19  C   UNL     1       6.052   6.161  18.055  0.00  0.00    +0.000 A 
ENDBRANCH  13  14
BRANCH  13  21
ATOM     20  C   UNL     1       2.184   9.004  17.754  0.00  0.00    +0.000 C 
ATOM     21  C   UNL     1       2.733   7.871  17.287  0.00  0.00    +0.000 C 
ENDBRANCH  13  21
ENDBRANCH   1  13
TORSDOF 6
ENDMDL
MODEL 9
REMARK VINA RESULT:      -6.4      1.836      4.128
REMARK  Name = 
REMARK  8 active torsions:
REMARK  status: ('A' for Active; 'I' for Inactive)
REMARK    1  A    between atoms: C_2  and  C_3
REMARK    2  A    between atoms: C_3  and  C_4
REMARK    3  A    between atoms: C_3  and  C_10
REMARK    4  A    between atoms: C_12  and  O_13
REMARK    5  A    between atoms: O_13  and  C_14
REMARK    6  A    between atoms: C_15  and  O_16
REMARK    7  A    between atoms: O_16  and  C_17
REMARK    8  A    between atoms: C_19  and  O_20
REMARK                            x       y       z     vdW  Elec       q    Type
REMARK                         _______ _______ _______ _____ _____    ______ ____
ROOT
ATOM      1  C   UNL     1       5.193   5.739  18.072  0.00  0.00    +0.000 A 
ATOM      2  C   UNL     1       4.184   6.716  18.007  0.00  0.00    +0.000 A 
ATOM      3  C   UNL     1       2.991   6.586  18.733  0.00  0.00    +0.000 A 
ATOM      4  C   UNL     1       2.811   5.482  19.587  0.00  0.00    +0.000 A 
ATOM      5  C   UNL     1       3.814   4.511  19.667  0.00  0.00    +0.000 A 
ATOM      6  C   UNL     1       4.982   4.641  18.914  0.00  0.00    +0.000 A 
ENDROOT
BRANCH   3   7
ATOM      7  O   UNL     1       1.977   7.513  18.686  0.00  0.00    +0.000 OA
ATOM      8  C   UNL     1       2.159   8.590  17.772  0.00  0.00    +0.000 C 
ENDBRANCH   3   7
BRANCH   4   9
ATOM      9  O   UNL     1       1.630   5.431  20.287  0.00  0.00    +0.000 OA
ATOM     10  C   UNL     1       1.029   4.153  20.462  0.00  0.00    +0.000 C 
ENDBRANCH   4   9
BRANCH   6  11
ATOM     11  O   UNL     1       5.946   3.673  18.999  0.00  0.00    +0.000 OA
ATOM     12  H   UNL     1       6.330   3.681  19.890  0.00  0.00    +0.000 HD
ENDBRANCH   6  11
BRANCH   1  13
ATOM     13  C   UNL     1       6.486   5.881  17.272  0.00  0.00    +0.000 C 
BRANCH  13  14
ATOM     14  C   UNL     1       6.421   5.192  15.906  0.00  0.00    +0.000 A 
ATOM     15  C   UNL     1       7.422   5.304  14.930  0.00  0.00    +0.000 A 
ATOM     16  C   UNL     1       7.275   4.684  13.684  0.00  0.00    +0.000 A 
ATOM     17  C   UNL     1       6.130   3.939  13.400  0.00  0.00    +0.000 A 
ATOM     18  C   UNL     1       5.130   3.816  14.360  0.00  0.00    +0.000 A 
ATOM     19  C   UNL     1       5.273   4.441  15.597  0.00  0.00    +0.000 A 
ENDBRANCH  13  14
BRANCH  13  21
ATOM     20  C   UNL     1       7.954   7.790  18.015  0.00  0.00    +0.000 C 
ATOM     21  C   UNL     1       6.967   7.321  17.236  0.00  0.00    +0.000 C 
ENDBRANCH  13  21
ENDBRANCH   1  13
TORSDOF 6
ENDMDL
