MODEL 1
REMARK VINA RESULT:      -8.1      0.000      0.000
REMARK  Name = 
REMARK  6 active torsions:
REMARK  status: ('A' for Active; 'I' for Inactive)
REMARK    1  A    between atoms: C_2  and  O_3
REMARK    2  A    between atoms: C_2  and  C_4
REMARK    3  A    between atoms: C_8  and  C_9
REMARK    4  A    between atoms: N_11  and  C_12
REMARK    5  A    between atoms: C_16  and  C_18
REMARK    6  A    between atoms: C_18  and  C_19
REMARK                            x       y       z     vdW  Elec       q    Type
REMARK                         _______ _______ _______ _____ _____    ______ ____
ROOT
ATOM      1  C   UNL     1       8.502   8.916  18.261  0.00  0.00    +0.000 A 
ATOM      2  C   UNL     1       8.521   7.682  18.871  0.00  0.00    +0.000 A 
ATOM      3  N   UNL     1       7.570   6.974  18.190  0.00  0.00    +0.000 N 
ATOM      4  N   UNL     1       7.155   7.645  17.099  0.00  0.00    +0.000 NA
ATOM      5  N   UNL     1       7.698   8.854  17.150  0.00  0.00    +0.000 NA
ENDROOT
BRANCH   3   6
ATOM      6  C   UNL     1       6.842   5.813  18.688  0.00  0.00    +0.000 C 
ATOM      7  C   UNL     1       7.113   4.549  17.870  0.00  0.00    +0.000 C 
ATOM      8  C   UNL     1       6.245   4.506  16.623  0.00  0.00    +0.000 C 
ATOM      9  N   UNL     1       4.845   4.549  17.029  0.00  0.00    +0.000 N 
ATOM     10  C   UNL     1       4.094   3.384  16.930  0.00  0.00    +0.000 C 
ATOM     11  O   UNL     1       4.590   2.332  16.515  0.00  0.00    +0.000 OA
ATOM     12  C   UNL     1       4.451   5.795  17.683  0.00  0.00    +0.000 C 
ATOM     13  C   UNL     1       5.337   6.097  18.897  0.00  0.00    +0.000 C 
BRANCH  10  14
ATOM     14  C   UNL     1       2.628   3.400  17.334  0.00  0.00    +0.000 C 
BRANCH  14  15
ATOM     15  C   UNL     1       2.407   3.317  18.826  0.00  0.00    +0.000 A 
ATOM     16  C   UNL     1       1.224   3.806  19.397  0.00  0.00    +0.000 A 
ATOM     17  C   UNL     1       0.999   3.693  20.769  0.00  0.00    +0.000 A 
ATOM     18  C   UNL     1       1.949   3.083  21.587  0.00  0.00    +0.000 A 
ATOM     19  C   UNL     1       3.124   2.583  21.031  0.00  0.00    +0.000 A 
ATOM     20  C   UNL     1       3.350   2.695  19.659  0.00  0.00    +0.000 A 
ENDBRANCH  14  15
ENDBRANCH  10  14
ENDBRANCH   3   6
BRANCH   1  25
ATOM     21  C   UNL     1       9.933  12.341  18.413  0.00  0.00    +0.000 A 
ATOM     22  C   UNL     1      10.031  12.509  19.793  0.00  0.00    +0.000 A 
ATOM     23  C   UNL     1       9.632  11.460  20.597  0.00  0.00    +0.000 A 
ATOM     24  N   UNL     1       9.154  10.290  20.117  0.00  0.00    +0.000 NA
ATOM     25  C   UNL     1       9.100  10.137  18.768  0.00  0.00    +0.000 A 
ATOM     26  C   UNL     1       9.484  11.134  17.883  0.00  0.00    +0.000 A 
BRANCH  21  28
ATOM     27  O   UNL     1      11.366  13.440  16.885  0.00  0.00    +0.000 OA
ATOM     28  C   UNL     1      10.343  13.464  17.542  0.00  0.00    +0.000 C 
BRANCH  28  29
ATOM     29  O   UNL     1       9.519  14.531  17.593  0.00  0.00    +0.000 OA
ATOM     30  H   UNL     1       8.605  14.355  17.879  0.00  0.00    +0.000 HD
ENDBRANCH  28  29
ENDBRANCH  21  28
ENDBRANCH   1  25
TORSDOF 6
ENDMDL
MODEL 2
REMARK VINA RESULT:      -7.9      0.504      1.030
REMARK  Name = 
REMARK  6 active torsions:
REMARK  status: ('A' for Active; 'I' for Inactive)
REMARK    1  A    between atoms: C_2  and  O_3
REMARK    2  A    between atoms: C_2  and  C_4
REMARK    3  A    between atoms: C_8  and  C_9
REMARK    4  A    between atoms: N_11  and  C_12
REMARK    5  A    between atoms: C_16  and  C_18
REMARK    6  A    between atoms: C_18  and  C_19
REMARK                            x       y       z     vdW  Elec       q    Type
REMARK                         _______ _______ _______ _____ _____    ______ ____
ROOT
ATOM      1  C   UNL     1       8.548   8.957  18.362  0.00  0.00    +0.000 A 
ATOM      2  C   UNL     1       8.574   7.685  18.887  0.00  0.00    +0.000 A 
ATOM      3  N   UNL     1       7.565   7.045  18.225  0.00  0.00    +0.000 N 
ATOM      4  N   UNL     1       7.099   7.795  17.210  0.00  0.00    +0.000 NA
ATOM      5  N   UNL     1       7.673   8.987  17.304  0.00  0.00    +0.000 NA
ENDROOT
BRANCH   3   6
ATOM      6  C   UNL     1       6.841   5.868  18.692  0.00  0.00    +0.000 C 
ATOM      7  C   UNL     1       7.131   4.622  17.851  0.00  0.00    +0.000 C 
ATOM      8  C   UNL     1       6.277   4.597  16.595  0.00  0.00    +0.000 C 
ATOM      9  N   UNL     1       4.872   4.621  16.987  0.00  0.00    +0.000 N 
ATOM     10  C   UNL     1       4.132   3.453  16.857  0.00  0.00    +0.000 C 
ATOM     11  O   UNL     1       4.641   2.413  16.426  0.00  0.00    +0.000 OA
ATOM     12  C   UNL     1       4.461   5.851  17.661  0.00  0.00    +0.000 C 
ATOM     13  C   UNL     1       5.331   6.135  18.890  0.00  0.00    +0.000 C 
BRANCH  10  14
ATOM     14  C   UNL     1       2.661   3.449  17.245  0.00  0.00    +0.000 C 
BRANCH  14  15
ATOM     15  C   UNL     1       2.426   3.385  18.736  0.00  0.00    +0.000 A 
ATOM     16  C   UNL     1       3.278   2.635  19.558  0.00  0.00    +0.000 A 
ATOM     17  C   UNL     1       3.087   2.607  20.940  0.00  0.00    +0.000 A 
ATOM     18  C   UNL     1       2.047   3.333  21.518  0.00  0.00    +0.000 A 
ATOM     19  C   UNL     1       1.199   4.091  20.714  0.00  0.00    +0.000 A 
ATOM     20  C   UNL     1       1.389   4.120  19.332  0.00  0.00    +0.000 A 
ENDBRANCH  14  15
ENDBRANCH  10  14
ENDBRANCH   3   6
BRANCH   1  25
ATOM     21  C   UNL     1      10.356  12.194  18.601  0.00  0.00    +0.000 A 
ATOM     22  C   UNL     1      10.256  12.434  19.970  0.00  0.00    +0.000 A 
ATOM     23  C   UNL     1       9.607  11.491  20.742  0.00  0.00    +0.000 A 
ATOM     24  N   UNL     1       9.068  10.357  20.240  0.00  0.00    +0.000 NA
ATOM     25  C   UNL     1       9.207  10.129  18.908  0.00  0.00    +0.000 A 
ATOM     26  C   UNL     1       9.848  11.018  18.056  0.00  0.00    +0.000 A 
BRANCH  21  28
ATOM     27  O   UNL     1      11.025  13.159  16.547  0.00  0.00    +0.000 OA
ATOM     28  C   UNL     1      11.036  13.204  17.762  0.00  0.00    +0.000 C 
BRANCH  28  29
ATOM     29  O   UNL     1      11.718  14.134  18.463  0.00  0.00    +0.000 OA
ATOM     30  H   UNL     1      12.541  14.461  18.058  0.00  0.00    +0.000 HD
ENDBRANCH  28  29
ENDBRANCH  21  28
ENDBRANCH   1  25
TORSDOF 6
ENDMDL
MODEL 3
REMARK VINA RESULT:      -7.8      1.597      2.379
REMARK  Name = 
REMARK  6 active torsions:
REMARK  status: ('A' for Active; 'I' for Inactive)
REMARK    1  A    between atoms: C_2  and  O_3
REMARK    2  A    between atoms: C_2  and  C_4
REMARK    3  A    between atoms: C_8  and  C_9
REMARK    4  A    between atoms: N_11  and  C_12
REMARK    5  A    between atoms: C_16  and  C_18
REMARK    6  A    between atoms: C_18  and  C_19
REMARK                            x       y       z     vdW  Elec       q    Type
REMARK                         _______ _______ _______ _____ _____    ______ ____
ROOT
ATOM      1  C   UNL     1       8.883  10.195  18.301  0.00  0.00    +0.000 A 
ATOM      2  C   UNL     1       7.993   9.458  17.552  0.00  0.00    +0.000 A 
ATOM      3  N   UNL     1       8.049   8.217  18.120  0.00  0.00    +0.000 N 
ATOM      4  N   UNL     1       8.748   8.240  19.269  0.00  0.00    +0.000 NA
ATOM      5  N   UNL     1       9.294   9.445  19.375  0.00  0.00    +0.000 NA
ENDROOT
BRANCH   3   6
ATOM      6  C   UNL     1       7.701   6.958  17.471  0.00  0.00    +0.000 C 
ATOM      7  C   UNL     1       6.440   7.065  16.610  0.00  0.00    +0.000 C 
ATOM      8  C   UNL     1       5.185   6.927  17.456  0.00  0.00    +0.000 C 
ATOM      9  N   UNL     1       5.221   5.637  18.135  0.00  0.00    +0.000 N 
ATOM     10  C   UNL     1       4.371   4.633  17.687  0.00  0.00    +0.000 C 
ATOM     11  O   UNL     1       3.604   4.816  16.735  0.00  0.00    +0.000 OA
ATOM     12  C   UNL     1       6.307   5.500  19.102  0.00  0.00    +0.000 C 
ATOM     13  C   UNL     1       7.671   5.767  18.456  0.00  0.00    +0.000 C 
BRANCH  10  14
ATOM     14  C   UNL     1       4.375   3.280  18.381  0.00  0.00    +0.000 C 
BRANCH  14  15
ATOM     15  C   UNL     1       3.233   3.090  19.351  0.00  0.00    +0.000 A 
ATOM     16  C   UNL     1       3.483   2.936  20.721  0.00  0.00    +0.000 A 
ATOM     17  C   UNL     1       2.427   2.802  21.624  0.00  0.00    +0.000 A 
ATOM     18  C   UNL     1       1.109   2.826  21.170  0.00  0.00    +0.000 A 
ATOM     19  C   UNL     1       0.847   2.989  19.812  0.00  0.00    +0.000 A 
ATOM     20  C   UNL     1       1.901   3.125  18.908  0.00  0.00    +0.000 A 
ENDBRANCH  14  15
ENDBRANCH  10  14
ENDBRANCH   3   6
BRANCH   1  25
ATOM     21  C   UNL     1       9.252  13.869  17.885  0.00  0.00    +0.000 A 
ATOM     22  C   UNL     1      10.585  13.941  17.485  0.00  0.00    +0.000 A 
ATOM     23  C   UNL     1      11.283  12.756  17.358  0.00  0.00    +0.000 A 
ATOM     24  N   UNL     1      10.742  11.541  17.599  0.00  0.00    +0.000 NA
ATOM     25  C   UNL     1       9.432  11.493  17.955  0.00  0.00    +0.000 A 
ATOM     26  C   UNL     1       8.651  12.632  18.103  0.00  0.00    +0.000 A 
BRANCH  21  28
ATOM     27  O   UNL     1       8.792  15.968  18.872  0.00  0.00    +0.000 OA
ATOM     28  C   UNL     1       8.499  15.132  18.039  0.00  0.00    +0.000 C 
BRANCH  28  29
ATOM     29  O   UNL     1       7.431  15.241  17.222  0.00  0.00    +0.000 OA
ATOM     30  H   UNL     1       6.787  14.510  17.257  0.00  0.00    +0.000 HD
ENDBRANCH  28  29
ENDBRANCH  21  28
ENDBRANCH   1  25
TORSDOF 6
ENDMDL
MODEL 4
REMARK VINA RESULT:      -7.8      7.627     10.463
REMARK  Name = 
REMARK  6 active torsions:
REMARK  status: ('A' for Active; 'I' for Inactive)
REMARK    1  A    between atoms: C_2  and  O_3
REMARK    2  A    between atoms: C_2  and  C_4
REMARK    3  A    between atoms: C_8  and  C_9
REMARK    4  A    between atoms: N_11  and  C_12
REMARK    5  A    between atoms: C_16  and  C_18
REMARK    6  A    between atoms: C_18  and  C_19
REMARK                            x       y       z     vdW  Elec       q    Type
REMARK                         _______ _______ _______ _____ _____    ______ ____
ROOT
ATOM      1  C   UNL     1       2.235   7.775  18.749  0.00  0.00    +0.000 A 
ATOM      2  C   UNL     1       1.419   8.577  19.516  0.00  0.00    +0.000 A 
ATOM      3  N   UNL     1       1.408   9.763  18.838  0.00  0.00    +0.000 N 
ATOM      4  N   UNL     1       1.987   9.637  17.630  0.00  0.00    +0.000 NA
ATOM      5  N   UNL     1       2.529   8.427  17.577  0.00  0.00    +0.000 NA
ENDROOT
BRANCH   3   6
ATOM      6  C   UNL     1       1.117  11.075  19.405  0.00  0.00    +0.000 C 
ATOM      7  C   UNL     1       0.907  11.031  20.920  0.00  0.00    +0.000 C 
ATOM      8  C   UNL     1      -0.513  10.614  21.265  0.00  0.00    +0.000 C 
ATOM      9  N   UNL     1      -1.437  11.565  20.657  0.00  0.00    +0.000 N 
ATOM     10  C   UNL     1      -2.085  12.475  21.484  0.00  0.00    +0.000 C 
ATOM     11  O   UNL     1      -1.887  12.490  22.704  0.00  0.00    +0.000 OA
ATOM     12  C   UNL     1      -1.422  11.565  19.197  0.00  0.00    +0.000 C 
ATOM     13  C   UNL     1      -0.011  11.815  18.651  0.00  0.00    +0.000 C 
BRANCH  10  14
ATOM     14  C   UNL     1      -3.064  13.471  20.883  0.00  0.00    +0.000 C 
BRANCH  14  15
ATOM     15  C   UNL     1      -4.480  12.953  20.791  0.00  0.00    +0.000 A 
ATOM     16  C   UNL     1      -4.947  12.370  19.605  0.00  0.00    +0.000 A 
ATOM     17  C   UNL     1      -6.241  11.854  19.530  0.00  0.00    +0.000 A 
ATOM     18  C   UNL     1      -7.082  11.907  20.641  0.00  0.00    +0.000 A 
ATOM     19  C   UNL     1      -6.627  12.474  21.828  0.00  0.00    +0.000 A 
ATOM     20  C   UNL     1      -5.333  12.991  21.905  0.00  0.00    +0.000 A 
ENDBRANCH  14  15
ENDBRANCH  10  14
ENDBRANCH   3   6
BRANCH   1  25
ATOM     21  C   UNL     1       2.677   4.420  20.282  0.00  0.00    +0.000 A 
ATOM     22  C   UNL     1       3.892   4.045  19.714  0.00  0.00    +0.000 A 
ATOM     23  C   UNL     1       4.508   4.942  18.864  0.00  0.00    +0.000 A 
ATOM     24  N   UNL     1       3.995   6.155  18.558  0.00  0.00    +0.000 NA
ATOM     25  C   UNL     1       2.826   6.512  19.151  0.00  0.00    +0.000 A 
ATOM     26  C   UNL     1       2.139   5.678  20.022  0.00  0.00    +0.000 A 
BRANCH  21  28
ATOM     27  O   UNL     1       2.570   2.931  22.117  0.00  0.00    +0.000 OA
ATOM     28  C   UNL     1       2.001   3.461  21.183  0.00  0.00    +0.000 C 
BRANCH  28  29
ATOM     29  O   UNL     1       0.727   3.183  20.836  0.00  0.00    +0.000 OA
ATOM     30  H   UNL     1       0.609   2.573  20.086  0.00  0.00    +0.000 HD
ENDBRANCH  28  29
ENDBRANCH  21  28
ENDBRANCH   1  25
TORSDOF 6
ENDMDL
MODEL 5
REMARK VINA RESULT:      -7.7      7.052     10.189
REMARK  Name = 
REMARK  6 active torsions:
REMARK  status: ('A' for Active; 'I' for Inactive)
REMARK    1  A    between atoms: C_2  and  O_3
REMARK    2  A    between atoms: C_2  and  C_4
REMARK    3  A    between atoms: C_8  and  C_9
REMARK    4  A    between atoms: N_11  and  C_12
REMARK    5  A    between atoms: C_16  and  C_18
REMARK    6  A    between atoms: C_18  and  C_19
REMARK                            x       y       z     vdW  Elec       q    Type
REMARK                         _______ _______ _______ _____ _____    ______ ____
ROOT
ATOM      1  C   UNL     1       2.780   7.215  18.525  0.00  0.00    +0.000 A 
ATOM      2  C   UNL     1       2.664   8.424  17.874  0.00  0.00    +0.000 A 
ATOM      3  N   UNL     1       1.776   9.118  18.648  0.00  0.00    +0.000 N 
ATOM      4  N   UNL     1       1.536   8.476  19.806  0.00  0.00    +0.000 NA
ATOM      5  N   UNL     1       2.123   7.289  19.728  0.00  0.00    +0.000 NA
ENDROOT
BRANCH   3   6
ATOM      6  C   UNL     1       0.938  10.228  18.208  0.00  0.00    +0.000 C 
ATOM      7  C   UNL     1       1.367  11.568  18.808  0.00  0.00    +0.000 C 
ATOM      8  C   UNL     1       0.801  11.750  20.207  0.00  0.00    +0.000 C 
ATOM      9  N   UNL     1      -0.654  11.676  20.133  0.00  0.00    +0.000 N 
ATOM     10  C   UNL     1      -1.381  12.852  20.276  0.00  0.00    +0.000 C 
ATOM     11  O   UNL     1      -0.820  13.938  20.457  0.00  0.00    +0.000 OA
ATOM     12  C   UNL     1      -1.166  10.373  19.718  0.00  0.00    +0.000 C 
ATOM     13  C   UNL     1      -0.572   9.937  18.374  0.00  0.00    +0.000 C 
BRANCH  10  14
ATOM     14  C   UNL     1      -2.900  12.807  20.216  0.00  0.00    +0.000 C 
BRANCH  14  15
ATOM     15  C   UNL     1      -3.563  12.830  21.573  0.00  0.00    +0.000 A 
ATOM     16  C   UNL     1      -4.900  13.229  21.703  0.00  0.00    +0.000 A 
ATOM     17  C   UNL     1      -5.528  13.212  22.949  0.00  0.00    +0.000 A 
ATOM     18  C   UNL     1      -4.830  12.788  24.079  0.00  0.00    +0.000 A 
ATOM     19  C   UNL     1      -3.504  12.378  23.962  0.00  0.00    +0.000 A 
ATOM     20  C   UNL     1      -2.875  12.395  22.717  0.00  0.00    +0.000 A 
ENDBRANCH  14  15
ENDBRANCH  10  14
ENDBRANCH   3   6
BRANCH   1  25
ATOM     21  C   UNL     1       3.328   3.636  17.696  0.00  0.00    +0.000 A 
ATOM     22  C   UNL     1       4.370   3.749  16.779  0.00  0.00    +0.000 A 
ATOM     23  C   UNL     1       4.847   5.015  16.502  0.00  0.00    +0.000 A 
ATOM     24  N   UNL     1       4.357   6.139  17.071  0.00  0.00    +0.000 NA
ATOM     25  C   UNL     1       3.364   6.001  17.987  0.00  0.00    +0.000 A 
ATOM     26  C   UNL     1       2.825   4.768  18.332  0.00  0.00    +0.000 A 
BRANCH  21  28
ATOM     27  O   UNL     1       3.523   1.331  18.192  0.00  0.00    +0.000 OA
ATOM     28  C   UNL     1       2.799   2.286  17.989  0.00  0.00    +0.000 C 
BRANCH  28  29
ATOM     29  O   UNL     1       1.452   2.200  17.947  0.00  0.00    +0.000 OA
ATOM     30  H   UNL     1       1.050   2.190  17.060  0.00  0.00    +0.000 HD
ENDBRANCH  28  29
ENDBRANCH  21  28
ENDBRANCH   1  25
TORSDOF 6
ENDMDL
MODEL 6
REMARK VINA RESULT:      -7.7      1.522      2.099
REMARK  Name = 
REMARK  6 active torsions:
REMARK  status: ('A' for Active; 'I' for Inactive)
REMARK    1  A    between atoms: C_2  and  O_3
REMARK    2  A    between atoms: C_2  and  C_4
REMARK    3  A    between atoms: C_8  and  C_9
REMARK    4  A    between atoms: N_11  and  C_12
REMARK    5  A    between atoms: C_16  and  C_18
REMARK    6  A    between atoms: C_18  and  C_19
REMARK                            x       y       z     vdW  Elec       q    Type
REMARK                         _______ _______ _______ _____ _____    ______ ____
ROOT
ATOM      1  C   UNL     1       8.635   9.747  18.266  0.00  0.00    +0.000 A 
ATOM      2  C   UNL     1       7.737   8.987  17.550  0.00  0.00    +0.000 A 
ATOM      3  N   UNL     1       7.876   7.738  18.087  0.00  0.00    +0.000 N 
ATOM      4  N   UNL     1       8.636   7.770  19.197  0.00  0.00    +0.000 NA
ATOM      5  N   UNL     1       9.134   8.995  19.300  0.00  0.00    +0.000 NA
ENDROOT
BRANCH   3   6
ATOM      6  C   UNL     1       7.547   6.478  17.430  0.00  0.00    +0.000 C 
ATOM      7  C   UNL     1       6.367   6.606  16.463  0.00  0.00    +0.000 C 
ATOM      8  C   UNL     1       5.042   6.519  17.201  0.00  0.00    +0.000 C 
ATOM      9  N   UNL     1       4.982   5.240  17.901  0.00  0.00    +0.000 N 
ATOM     10  C   UNL     1       4.143   4.253  17.397  0.00  0.00    +0.000 C 
ATOM     11  O   UNL     1       3.466   4.440  16.382  0.00  0.00    +0.000 OA
ATOM     12  C   UNL     1       5.977   5.090  18.959  0.00  0.00    +0.000 C 
ATOM     13  C   UNL     1       7.399   5.306  18.427  0.00  0.00    +0.000 C 
BRANCH  10  14
ATOM     14  C   UNL     1       4.049   2.913  18.111  0.00  0.00    +0.000 C 
BRANCH  14  15
ATOM     15  C   UNL     1       3.068   2.902  19.259  0.00  0.00    +0.000 A 
ATOM     16  C   UNL     1       1.698   3.083  19.024  0.00  0.00    +0.000 A 
ATOM     17  C   UNL     1       0.785   3.032  20.077  0.00  0.00    +0.000 A 
ATOM     18  C   UNL     1       1.227   2.793  21.378  0.00  0.00    +0.000 A 
ATOM     19  C   UNL     1       2.584   2.601  21.623  0.00  0.00    +0.000 A 
ATOM     20  C   UNL     1       3.499   2.651  20.571  0.00  0.00    +0.000 A 
ENDBRANCH  14  15
ENDBRANCH  10  14
ENDBRANCH   3   6
BRANCH   1  25
ATOM     21  C   UNL     1       8.723  13.413  17.666  0.00  0.00    +0.000 A 
ATOM     22  C   UNL     1      10.089  13.599  17.464  0.00  0.00    +0.000 A 
ATOM     23  C   UNL     1      10.904  12.486  17.521  0.00  0.00    +0.000 A 
ATOM     24  N   UNL     1      10.447  11.236  17.760  0.00  0.00    +0.000 NA
ATOM     25  C   UNL     1       9.108  11.074  17.919  0.00  0.00    +0.000 A 
ATOM     26  C   UNL     1       8.212  12.134  17.874  0.00  0.00    +0.000 A 
BRANCH  21  28
ATOM     27  O   UNL     1       6.637  14.524  17.766  0.00  0.00    +0.000 OA
ATOM     28  C   UNL     1       7.842  14.600  17.623  0.00  0.00    +0.000 C 
BRANCH  28  29
ATOM     29  O   UNL     1       8.485  15.754  17.348  0.00  0.00    +0.000 OA
ATOM     30  H   UNL     1       8.061  16.570  17.669  0.00  0.00    +0.000 HD
ENDBRANCH  28  29
ENDBRANCH  21  28
ENDBRANCH   1  25
TORSDOF 6
ENDMDL
MODEL 7
REMARK VINA RESULT:      -7.7      6.953      9.480
REMARK  Name = 
REMARK  6 active torsions:
REMARK  status: ('A' for Active; 'I' for Inactive)
REMARK    1  A    between atoms: C_2  and  O_3
REMARK    2  A    between atoms: C_2  and  C_4
REMARK    3  A    between atoms: C_8  and  C_9
REMARK    4  A    between atoms: N_11  and  C_12
REMARK    5  A    between atoms: C_16  and  C_18
REMARK    6  A    between atoms: C_18  and  C_19
REMARK                            x       y       z     vdW  Elec       q    Type
REMARK                         _______ _______ _______ _____ _____    ______ ____
ROOT
ATOM      1  C   UNL     1       2.760   7.137  18.674  0.00  0.00    +0.000 A 
ATOM      2  C   UNL     1       2.301   8.370  18.265  0.00  0.00    +0.000 A 
ATOM      3  N   UNL     1       1.528   8.786  19.312  0.00  0.00    +0.000 N 
ATOM      4  N   UNL     1       1.678   7.977  20.378  0.00  0.00    +0.000 NA
ATOM      5  N   UNL     1       2.409   6.942  19.987  0.00  0.00    +0.000 NA
ENDROOT
BRANCH   3   6
ATOM      6  C   UNL     1       0.444   9.759  19.247  0.00  0.00    +0.000 C 
ATOM      7  C   UNL     1       0.929  11.161  18.870  0.00  0.00    +0.000 C 
ATOM      8  C   UNL     1       1.464  11.902  20.084  0.00  0.00    +0.000 C 
ATOM      9  N   UNL     1       0.402  11.989  21.080  0.00  0.00    +0.000 N 
ATOM     10  C   UNL     1      -0.213  13.219  21.281  0.00  0.00    +0.000 C 
ATOM     11  O   UNL     1       0.119  14.218  20.634  0.00  0.00    +0.000 OA
ATOM     12  C   UNL     1      -0.020  10.699  21.620  0.00  0.00    +0.000 C 
ATOM     13  C   UNL     1      -0.453   9.739  20.506  0.00  0.00    +0.000 C 
BRANCH  10  14
ATOM     14  C   UNL     1      -1.315  13.346  22.321  0.00  0.00    +0.000 C 
BRANCH  14  15
ATOM     15  C   UNL     1      -2.696  13.055  21.784  0.00  0.00    +0.000 A 
ATOM     16  C   UNL     1      -3.812  13.106  22.630  0.00  0.00    +0.000 A 
ATOM     17  C   UNL     1      -5.094  12.877  22.128  0.00  0.00    +0.000 A 
ATOM     18  C   UNL     1      -5.277  12.603  20.773  0.00  0.00    +0.000 A 
ATOM     19  C   UNL     1      -4.177  12.560  19.920  0.00  0.00    +0.000 A 
ATOM     20  C   UNL     1      -2.895  12.789  20.420  0.00  0.00    +0.000 A 
ENDBRANCH  14  15
ENDBRANCH  10  14
ENDBRANCH   3   6
BRANCH   1  25
ATOM     21  C   UNL     1       5.176   5.406  16.445  0.00  0.00    +0.000 A 
ATOM     22  C   UNL     1       4.630   4.125  16.434  0.00  0.00    +0.000 A 
ATOM     23  C   UNL     1       3.472   3.914  17.155  0.00  0.00    +0.000 A 
ATOM     24  N   UNL     1       2.848   4.879  17.867  0.00  0.00    +0.000 NA
ATOM     25  C   UNL     1       3.381   6.128  17.836  0.00  0.00    +0.000 A 
ATOM     26  C   UNL     1       4.539   6.435  17.134  0.00  0.00    +0.000 A 
BRANCH  21  28
ATOM     27  O   UNL     1       6.546   5.335  14.518  0.00  0.00    +0.000 OA
ATOM     28  C   UNL     1       6.425   5.641  15.688  0.00  0.00    +0.000 C 
BRANCH  28  29
ATOM     29  O   UNL     1       7.428   6.161  16.426  0.00  0.00    +0.000 OA
ATOM     30  H   UNL     1       7.304   7.076  16.736  0.00  0.00    +0.000 HD
ENDBRANCH  28  29
ENDBRANCH  21  28
ENDBRANCH   1  25
TORSDOF 6
ENDMDL
MODEL 8
REMARK VINA RESULT:      -7.7      5.720      6.700
REMARK  Name = 
REMARK  6 active torsions:
REMARK  status: ('A' for Active; 'I' for Inactive)
REMARK    1  A    between atoms: C_2  and  O_3
REMARK    2  A    between atoms: C_2  and  C_4
REMARK    3  A    between atoms: C_8  and  C_9
REMARK    4  A    between atoms: N_11  and  C_12
REMARK    5  A    between atoms: C_16  and  C_18
REMARK    6  A    between atoms: C_18  and  C_19
REMARK                            x       y       z     vdW  Elec       q    Type
REMARK                         _______ _______ _______ _____ _____    ______ ____
ROOT
ATOM      1  C   UNL     1       1.743  13.068  20.495  0.00  0.00    +0.000 A 
ATOM      2  C   UNL     1       1.409  12.215  19.467  0.00  0.00    +0.000 A 
ATOM      3  N   UNL     1       0.433  11.428  20.010  0.00  0.00    +0.000 N 
ATOM      4  N   UNL     1       0.036  11.902  21.205  0.00  0.00    +0.000 NA
ATOM      5  N   UNL     1       0.856  12.892  21.529  0.00  0.00    +0.000 NA
ENDROOT
BRANCH   3   6
ATOM      6  C   UNL     1       0.061  10.089  19.564  0.00  0.00    +0.000 C 
ATOM      7  C   UNL     1       0.093   9.059  20.695  0.00  0.00    +0.000 C 
ATOM      8  C   UNL     1       1.504   8.544  20.928  0.00  0.00    +0.000 C 
ATOM      9  N   UNL     1       1.990   7.945  19.690  0.00  0.00    +0.000 N 
ATOM     10  C   UNL     1       2.082   6.561  19.619  0.00  0.00    +0.000 C 
ATOM     11  O   UNL     1       1.757   5.845  20.572  0.00  0.00    +0.000 OA
ATOM     12  C   UNL     1       2.145   8.892  18.588  0.00  0.00    +0.000 C 
ATOM     13  C   UNL     1       0.838   9.642  18.305  0.00  0.00    +0.000 C 
BRANCH  10  14
ATOM     14  C   UNL     1       2.597   5.907  18.347  0.00  0.00    +0.000 C 
BRANCH  14  15
ATOM     15  C   UNL     1       4.102   5.923  18.220  0.00  0.00    +0.000 A 
ATOM     16  C   UNL     1       4.718   6.605  17.163  0.00  0.00    +0.000 A 
ATOM     17  C   UNL     1       6.110   6.656  17.067  0.00  0.00    +0.000 A 
ATOM     18  C   UNL     1       6.902   6.032  18.030  0.00  0.00    +0.000 A 
ATOM     19  C   UNL     1       6.302   5.360  19.091  0.00  0.00    +0.000 A 
ATOM     20  C   UNL     1       4.911   5.309  19.189  0.00  0.00    +0.000 A 
ENDBRANCH  14  15
ENDBRANCH  10  14
ENDBRANCH   3   6
BRANCH   1  25
ATOM     21  C   UNL     1       4.199  15.757  19.759  0.00  0.00    +0.000 A 
ATOM     22  C   UNL     1       5.048  15.625  20.856  0.00  0.00    +0.000 A 
ATOM     23  C   UNL     1       4.764  14.631  21.772  0.00  0.00    +0.000 A 
ATOM     24  N   UNL     1       3.714  13.788  21.659  0.00  0.00    +0.000 NA
ATOM     25  C   UNL     1       2.920  13.914  20.564  0.00  0.00    +0.000 A 
ATOM     26  C   UNL     1       3.130  14.880  19.590  0.00  0.00    +0.000 A 
BRANCH  21  28
ATOM     27  O   UNL     1       5.544  17.422  18.752  0.00  0.00    +0.000 OA
ATOM     28  C   UNL     1       4.483  16.828  18.780  0.00  0.00    +0.000 C 
BRANCH  28  29
ATOM     29  O   UNL     1       3.445  17.125  17.971  0.00  0.00    +0.000 OA
ATOM     30  H   UNL     1       2.750  16.448  17.897  0.00  0.00    +0.000 HD
ENDBRANCH  28  29
ENDBRANCH  21  28
ENDBRANCH   1  25
TORSDOF 6
ENDMDL
MODEL 9
REMARK VINA RESULT:      -7.7      0.626      1.233
REMARK  Name = 
REMARK  6 active torsions:
REMARK  status: ('A' for Active; 'I' for Inactive)
REMARK    1  A    between atoms: C_2  and  O_3
REMARK    2  A    between atoms: C_2  and  C_4
REMARK    3  A    between atoms: C_8  and  C_9
REMARK    4  A    between atoms: N_11  and  C_12
REMARK    5  A    between atoms: C_16  and  C_18
REMARK    6  A    between atoms: C_18  and  C_19
REMARK                            x       y       z     vdW  Elec       q    Type
REMARK                         _______ _______ _______ _____ _____    ______ ____
ROOT
ATOM      1  C   UNL     1       8.474   8.946  18.247  0.00  0.00    +0.000 A 
ATOM      2  C   UNL     1       8.472   7.748  18.925  0.00  0.00    +0.000 A 
ATOM      3  N   UNL     1       7.640   6.960  18.181  0.00  0.00    +0.000 N 
ATOM      4  N   UNL     1       7.329   7.551  17.013  0.00  0.00    +0.000 NA
ATOM      5  N   UNL     1       7.810   8.787  17.056  0.00  0.00    +0.000 NA
ENDROOT
BRANCH   3   6
ATOM      6  C   UNL     1       6.908   5.792  18.658  0.00  0.00    +0.000 C 
ATOM      7  C   UNL     1       7.079   4.574  17.747  0.00  0.00    +0.000 C 
ATOM      8  C   UNL     1       6.128   4.636  16.564  0.00  0.00    +0.000 C 
ATOM      9  N   UNL     1       4.761   4.696  17.069  0.00  0.00    +0.000 N 
ATOM     10  C   UNL     1       3.965   3.563  16.953  0.00  0.00    +0.000 C 
ATOM     11  O   UNL     1       4.395   2.524  16.441  0.00  0.00    +0.000 OA
ATOM     12  C   UNL     1       4.454   5.909  17.823  0.00  0.00    +0.000 C 
ATOM     13  C   UNL     1       5.431   6.107  18.988  0.00  0.00    +0.000 C 
BRANCH  10  14
ATOM     14  C   UNL     1       2.531   3.597  17.459  0.00  0.00    +0.000 C 
BRANCH  14  15
ATOM     15  C   UNL     1       2.392   3.238  18.919  0.00  0.00    +0.000 A 
ATOM     16  C   UNL     1       3.496   2.767  19.643  0.00  0.00    +0.000 A 
ATOM     17  C   UNL     1       3.380   2.473  21.002  0.00  0.00    +0.000 A 
ATOM     18  C   UNL     1       2.163   2.655  21.657  0.00  0.00    +0.000 A 
ATOM     19  C   UNL     1       1.061   3.133  20.952  0.00  0.00    +0.000 A 
ATOM     20  C   UNL     1       1.175   3.427  19.593  0.00  0.00    +0.000 A 
ENDBRANCH  14  15
ENDBRANCH  10  14
ENDBRANCH   3   6
BRANCH   1  25
ATOM     21  C   UNL     1       9.033  12.599  18.632  0.00  0.00    +0.000 A 
ATOM     22  C   UNL     1       9.707  12.620  19.850  0.00  0.00    +0.000 A 
ATOM     23  C   UNL     1       9.956  11.411  20.468  0.00  0.00    +0.000 A 
ATOM     24  N   UNL     1       9.581  10.218  19.954  0.00  0.00    +0.000 NA
ATOM     25  C   UNL     1       8.954  10.220  18.749  0.00  0.00    +0.000 A 
ATOM     26  C   UNL     1       8.667  11.386  18.053  0.00  0.00    +0.000 A 
BRANCH  21  28
ATOM     27  O   UNL     1       7.645  14.175  17.542  0.00  0.00    +0.000 OA
ATOM     28  C   UNL     1       8.747  13.889  17.968  0.00  0.00    +0.000 C 
BRANCH  28  29
ATOM     29  O   UNL     1       9.827  14.685  17.823  0.00  0.00    +0.000 OA
ATOM     30  H   UNL     1       9.648  15.633  17.688  0.00  0.00    +0.000 HD
ENDBRANCH  28  29
ENDBRANCH  21  28
ENDBRANCH   1  25
TORSDOF 6
ENDMDL
