MODEL 1
REMARK VINA RESULT:      -8.5      0.000      0.000
REMARK  Name = 
REMARK  10 active torsions:
REMARK  status: ('A' for Active; 'I' for Inactive)
REMARK    1  A    between atoms: C_1  and  C_2
REMARK    2  A    between atoms: C_2  and  C_3
REMARK    3  A    between atoms: N_5  and  C_6
REMARK    4  A    between atoms: C_6  and  C_7
REMARK    5  A    between atoms: N_9  and  C_10
REMARK    6  A    between atoms: C_10  and  C_11
REMARK    7  A    between atoms: C_11  and  C_12
REMARK    8  A    between atoms: C_11  and  C_13
REMARK    9  A    between atoms: C_24  and  O_25
REMARK   10  A    between atoms: O_25  and  C_26
REMARK                            x       y       z     vdW  Elec       q    Type
REMARK                         _______ _______ _______ _____ _____    ______ ____
ROOT
ATOM      1  C   UNL     1      -2.422  10.528  17.627  0.00  0.00    +0.000 A 
ATOM      2  N   UNL     1      -1.134  10.402  17.790  0.00  0.00    +0.000 NA
ATOM      3  N   UNL     1      -0.512  11.055  18.836  0.00  0.00    +0.000 N 
ATOM      4  C   UNL     1      -1.170  11.905  19.722  0.00  0.00    +0.000 A 
ATOM      5  O   UNL     1      -0.600  12.511  20.626  0.00  0.00    +0.000 OA
ATOM      6  C   UNL     1      -2.582  12.015  19.487  0.00  0.00    +0.000 A 
ATOM      7  C   UNL     1      -3.500  12.759  20.180  0.00  0.00    +0.000 A 
ATOM      8  C   UNL     1      -4.777  12.549  19.607  0.00  0.00    +0.000 A 
ATOM      9  C   UNL     1      -6.087  13.032  19.891  0.00  0.00    +0.000 A 
ATOM     10  C   UNL     1      -7.163  12.590  19.113  0.00  0.00    +0.000 A 
ATOM     11  C   UNL     1      -6.972  11.697  18.074  0.00  0.00    +0.000 A 
ATOM     12  C   UNL     1      -5.694  11.222  17.767  0.00  0.00    +0.000 A 
ATOM     13  C   UNL     1      -4.584  11.640  18.533  0.00  0.00    +0.000 A 
ATOM     14  N   UNL     1      -3.213  11.335  18.472  0.00  0.00    +0.000 N 
ENDROOT
BRANCH   1  16
ATOM     15  C   UNL     1      -2.973  10.696  15.223  0.00  0.00    +0.000 C 
ATOM     16  C   UNL     1      -3.046   9.819  16.461  0.00  0.00    +0.000 C 
ENDBRANCH   1  16
BRANCH   9  17
ATOM     17  O   UNL     1      -6.487  13.927  20.878  0.00  0.00    +0.000 OA
ATOM     18  C   UNL     1      -7.135  13.407  22.027  0.00  0.00    +0.000 C 
ENDBRANCH   9  17
BRANCH   3  19
ATOM     19  C   UNL     1       0.913  10.807  19.025  0.00  0.00    +0.000 C 
BRANCH  19  20
ATOM     20  C   UNL     1       1.208   9.430  19.601  0.00  0.00    +0.000 C 
ATOM     21  O   UNL     1       0.709   9.054  20.661  0.00  0.00    +0.000 OA
ATOM     22  N   UNL     1       1.929   8.573  18.788  0.00  0.00    +0.000 N 
ATOM     23  H   UNL     1       2.304   8.951  17.925  0.00  0.00    +0.000 HD
BRANCH  22  24
ATOM     24  C   UNL     1       2.307   7.253  19.260  0.00  0.00    +0.000 C 
BRANCH  24  25
ATOM     25  C   UNL     1       2.548   6.211  18.148  0.00  0.00    +0.000 C 
ATOM     26  C   UNL     1       3.997   6.316  17.644  0.00  0.00    +0.000 C 
BRANCH  25  27
ATOM     27  C   UNL     1       2.179   4.768  18.491  0.00  0.00    +0.000 A 
ATOM     28  C   UNL     1       2.480   3.681  17.656  0.00  0.00    +0.000 A 
ATOM     29  C   UNL     1       2.071   2.385  17.976  0.00  0.00    +0.000 A 
ATOM     30  C   UNL     1       1.377   2.146  19.158  0.00  0.00    +0.000 A 
ATOM     31  C   UNL     1       1.119   3.197  20.032  0.00  0.00    +0.000 A 
ATOM     32  C   UNL     1       1.523   4.493  19.705  0.00  0.00    +0.000 A 
ENDBRANCH  25  27
ENDBRANCH  24  25
ENDBRANCH  22  24
ENDBRANCH  19  20
ENDBRANCH   3  19
TORSDOF 7
ENDMDL
MODEL 2
REMARK VINA RESULT:      -8.2      4.515     11.159
REMARK  Name = 
REMARK  10 active torsions:
REMARK  status: ('A' for Active; 'I' for Inactive)
REMARK    1  A    between atoms: C_1  and  C_2
REMARK    2  A    between atoms: C_2  and  C_3
REMARK    3  A    between atoms: N_5  and  C_6
REMARK    4  A    between atoms: C_6  and  C_7
REMARK    5  A    between atoms: N_9  and  C_10
REMARK    6  A    between atoms: C_10  and  C_11
REMARK    7  A    between atoms: C_11  and  C_12
REMARK    8  A    between atoms: C_11  and  C_13
REMARK    9  A    between atoms: C_24  and  O_25
REMARK   10  A    between atoms: O_25  and  C_26
REMARK                            x       y       z     vdW  Elec       q    Type
REMARK                         _______ _______ _______ _____ _____    ______ ____
ROOT
ATOM      1  C   UNL     1       6.262   5.647  17.370  0.00  0.00    +0.000 A 
ATOM      2  N   UNL     1       5.597   5.477  18.479  0.00  0.00    +0.000 NA
ATOM      3  N   UNL     1       4.611   4.513  18.541  0.00  0.00    +0.000 N 
ATOM      4  C   UNL     1       4.226   3.723  17.459  0.00  0.00    +0.000 A 
ATOM      5  O   UNL     1       3.322   2.894  17.515  0.00  0.00    +0.000 OA
ATOM      6  C   UNL     1       4.983   3.963  16.263  0.00  0.00    +0.000 A 
ATOM      7  C   UNL     1       4.855   3.352  15.043  0.00  0.00    +0.000 A 
ATOM      8  C   UNL     1       5.823   3.893  14.163  0.00  0.00    +0.000 A 
ATOM      9  C   UNL     1       6.171   3.659  12.802  0.00  0.00    +0.000 A 
ATOM     10  C   UNL     1       7.227   4.378  12.231  0.00  0.00    +0.000 A 
ATOM     11  C   UNL     1       7.932   5.312  12.969  0.00  0.00    +0.000 A 
ATOM     12  C   UNL     1       7.598   5.571  14.301  0.00  0.00    +0.000 A 
ATOM     13  C   UNL     1       6.542   4.860  14.913  0.00  0.00    +0.000 A 
ATOM     14  N   UNL     1       5.994   4.894  16.207  0.00  0.00    +0.000 N 
ENDROOT
BRANCH   1  16
ATOM     15  C   UNL     1       8.060   6.746  18.662  0.00  0.00    +0.000 C 
ATOM     16  C   UNL     1       7.305   6.726  17.345  0.00  0.00    +0.000 C 
ENDBRANCH   1  16
BRANCH   9  17
ATOM     17  O   UNL     1       5.592   2.774  11.897  0.00  0.00    +0.000 OA
ATOM     18  C   UNL     1       4.337   3.119  11.335  0.00  0.00    +0.000 C 
ENDBRANCH   9  17
BRANCH   3  19
ATOM     19  C   UNL     1       3.961   4.304  19.830  0.00  0.00    +0.000 C 
BRANCH  19  20
ATOM     20  C   UNL     1       2.739   5.188  20.033  0.00  0.00    +0.000 C 
ATOM     21  O   UNL     1       1.649   4.717  20.358  0.00  0.00    +0.000 OA
ATOM     22  N   UNL     1       2.964   6.553  19.995  0.00  0.00    +0.000 N 
ATOM     23  H   UNL     1       3.890   6.868  19.727  0.00  0.00    +0.000 HD
BRANCH  22  24
ATOM     24  C   UNL     1       1.860   7.486  20.128  0.00  0.00    +0.000 C 
BRANCH  24  25
ATOM     25  C   UNL     1       1.891   8.674  19.143  0.00  0.00    +0.000 C 
ATOM     26  C   UNL     1       2.119   8.156  17.713  0.00  0.00    +0.000 C 
BRANCH  25  27
ATOM     27  C   UNL     1       0.701   9.630  19.209  0.00  0.00    +0.000 A 
ATOM     28  C   UNL     1      -0.115   9.914  18.103  0.00  0.00    +0.000 A 
ATOM     29  C   UNL     1      -1.155  10.841  18.189  0.00  0.00    +0.000 A 
ATOM     30  C   UNL     1      -1.421  11.481  19.396  0.00  0.00    +0.000 A 
ATOM     31  C   UNL     1      -0.666  11.172  20.522  0.00  0.00    +0.000 A 
ATOM     32  C   UNL     1       0.380  10.250  20.430  0.00  0.00    +0.000 A 
ENDBRANCH  25  27
ENDBRANCH  24  25
ENDBRANCH  22  24
ENDBRANCH  19  20
ENDBRANCH   3  19
TORSDOF 7
ENDMDL
MODEL 3
REMARK VINA RESULT:      -8.1      1.069      1.525
REMARK  Name = 
REMARK  10 active torsions:
REMARK  status: ('A' for Active; 'I' for Inactive)
REMARK    1  A    between atoms: C_1  and  C_2
REMARK    2  A    between atoms: C_2  and  C_3
REMARK    3  A    between atoms: N_5  and  C_6
REMARK    4  A    between atoms: C_6  and  C_7
REMARK    5  A    between atoms: N_9  and  C_10
REMARK    6  A    between atoms: C_10  and  C_11
REMARK    7  A    between atoms: C_11  and  C_12
REMARK    8  A    between atoms: C_11  and  C_13
REMARK    9  A    between atoms: C_24  and  O_25
REMARK   10  A    between atoms: O_25  and  C_26
REMARK                            x       y       z     vdW  Elec       q    Type
REMARK                         _______ _______ _______ _____ _____    ______ ____
ROOT
ATOM      1  C   UNL     1      -2.232  10.486  17.720  0.00  0.00    +0.000 A 
ATOM      2  N   UNL     1      -0.932  10.494  17.827  0.00  0.00    +0.000 NA
ATOM      3  N   UNL     1      -0.333  11.289  18.783  0.00  0.00    +0.000 N 
ATOM      4  C   UNL     1      -1.031  12.149  19.629  0.00  0.00    +0.000 A 
ATOM      5  O   UNL     1      -0.484  12.881  20.450  0.00  0.00    +0.000 OA
ATOM      6  C   UNL     1      -2.455  12.107  19.457  0.00  0.00    +0.000 A 
ATOM      7  C   UNL     1      -3.411  12.820  20.132  0.00  0.00    +0.000 A 
ATOM      8  C   UNL     1      -4.685  12.444  19.644  0.00  0.00    +0.000 A 
ATOM      9  C   UNL     1      -6.022  12.828  19.953  0.00  0.00    +0.000 A 
ATOM     10  C   UNL     1      -7.083  12.223  19.270  0.00  0.00    +0.000 A 
ATOM     11  C   UNL     1      -6.851  11.264  18.299  0.00  0.00    +0.000 A 
ATOM     12  C   UNL     1      -5.547  10.884  17.968  0.00  0.00    +0.000 A 
ATOM     13  C   UNL     1      -4.451  11.468  18.640  0.00  0.00    +0.000 A 
ATOM     14  N   UNL     1      -3.061  11.287  18.534  0.00  0.00    +0.000 N 
ENDROOT
BRANCH   1  16
ATOM     15  C   UNL     1      -2.824  10.364  15.323  0.00  0.00    +0.000 C 
ATOM     16  C   UNL     1      -2.835   9.625  16.649  0.00  0.00    +0.000 C 
ENDBRANCH   1  16
BRANCH   9  17
ATOM     17  O   UNL     1      -6.464  13.763  20.883  0.00  0.00    +0.000 OA
ATOM     18  C   UNL     1      -6.001  15.097  20.760  0.00  0.00    +0.000 C 
ENDBRANCH   9  17
BRANCH   3  19
ATOM     19  C   UNL     1       1.117  11.192  18.920  0.00  0.00    +0.000 C 
BRANCH  19  20
ATOM     20  C   UNL     1       1.679   9.880  18.391  0.00  0.00    +0.000 C 
ATOM     21  O   UNL     1       2.179   9.799  17.269  0.00  0.00    +0.000 OA
ATOM     22  N   UNL     1       1.745   8.838  19.298  0.00  0.00    +0.000 N 
ATOM     23  H   UNL     1       1.318   8.980  20.207  0.00  0.00    +0.000 HD
BRANCH  22  24
ATOM     24  C   UNL     1       2.219   7.529  18.885  0.00  0.00    +0.000 C 
BRANCH  24  25
ATOM     25  C   UNL     1       2.199   6.452  19.990  0.00  0.00    +0.000 C 
ATOM     26  C   UNL     1       1.319   6.926  21.160  0.00  0.00    +0.000 C 
BRANCH  25  27
ATOM     27  C   UNL     1       1.823   5.041  19.543  0.00  0.00    +0.000 A 
ATOM     28  C   UNL     1       1.213   4.105  20.393  0.00  0.00    +0.000 A 
ATOM     29  C   UNL     1       0.941   2.804  19.964  0.00  0.00    +0.000 A 
ATOM     30  C   UNL     1       1.245   2.423  18.661  0.00  0.00    +0.000 A 
ATOM     31  C   UNL     1       1.794   3.349  17.781  0.00  0.00    +0.000 A 
ATOM     32  C   UNL     1       2.072   4.647  18.216  0.00  0.00    +0.000 A 
ENDBRANCH  25  27
ENDBRANCH  24  25
ENDBRANCH  22  24
ENDBRANCH  19  20
ENDBRANCH   3  19
TORSDOF 7
ENDMDL
MODEL 4
REMARK VINA RESULT:      -8.0      1.175      1.566
REMARK  Name = 
REMARK  10 active torsions:
REMARK  status: ('A' for Active; 'I' for Inactive)
REMARK    1  A    between atoms: C_1  and  C_2
REMARK    2  A    between atoms: C_2  and  C_3
REMARK    3  A    between atoms: N_5  and  C_6
REMARK    4  A    between atoms: C_6  and  C_7
REMARK    5  A    between atoms: N_9  and  C_10
REMARK    6  A    between atoms: C_10  and  C_11
REMARK    7  A    between atoms: C_11  and  C_12
REMARK    8  A    between atoms: C_11  and  C_13
REMARK    9  A    between atoms: C_24  and  O_25
REMARK   10  A    between atoms: O_25  and  C_26
REMARK                            x       y       z     vdW  Elec       q    Type
REMARK                         _______ _______ _______ _____ _____    ______ ____
ROOT
ATOM      1  C   UNL     1      -2.335  10.862  17.857  0.00  0.00    +0.000 A 
ATOM      2  N   UNL     1      -1.044  10.958  18.013  0.00  0.00    +0.000 NA
ATOM      3  N   UNL     1      -0.537  11.744  19.029  0.00  0.00    +0.000 N 
ATOM      4  C   UNL     1      -1.325  12.506  19.888  0.00  0.00    +0.000 A 
ATOM      5  O   UNL     1      -0.861  13.232  20.764  0.00  0.00    +0.000 OA
ATOM      6  C   UNL     1      -2.736  12.372  19.661  0.00  0.00    +0.000 A 
ATOM      7  C   UNL     1      -3.763  12.978  20.335  0.00  0.00    +0.000 A 
ATOM      8  C   UNL     1      -4.989  12.538  19.781  0.00  0.00    +0.000 A 
ATOM      9  C   UNL     1      -6.360  12.808  20.058  0.00  0.00    +0.000 A 
ATOM     10  C   UNL     1      -7.350  12.165  19.307  0.00  0.00    +0.000 A 
ATOM     11  C   UNL     1      -7.016  11.277  18.300  0.00  0.00    +0.000 A 
ATOM     12  C   UNL     1      -5.677  11.009  17.999  0.00  0.00    +0.000 A 
ATOM     13  C   UNL     1      -4.650  11.634  18.740  0.00  0.00    +0.000 A 
ATOM     14  N   UNL     1      -3.248  11.559  18.678  0.00  0.00    +0.000 N 
ENDROOT
BRANCH   1  16
ATOM     15  C   UNL     1      -2.909  10.844  15.452  0.00  0.00    +0.000 C 
ATOM     16  C   UNL     1      -2.836  10.016  16.723  0.00  0.00    +0.000 C 
ENDBRANCH   1  16
BRANCH   9  17
ATOM     17  O   UNL     1      -6.901  13.660  21.015  0.00  0.00    +0.000 OA
ATOM     18  C   UNL     1      -7.460  13.084  22.183  0.00  0.00    +0.000 C 
ENDBRANCH   9  17
BRANCH   3  19
ATOM     19  C   UNL     1       0.910  11.743  19.214  0.00  0.00    +0.000 C 
BRANCH  19  20
ATOM     20  C   UNL     1       1.615  10.668  18.401  0.00  0.00    +0.000 C 
ATOM     21  O   UNL     1       2.512  10.945  17.604  0.00  0.00    +0.000 OA
ATOM     22  N   UNL     1       1.310   9.359  18.730  0.00  0.00    +0.000 N 
ATOM     23  H   UNL     1       0.565   9.206  19.401  0.00  0.00    +0.000 HD
BRANCH  22  24
ATOM     24  C   UNL     1       1.889   8.256  17.984  0.00  0.00    +0.000 C 
BRANCH  24  25
ATOM     25  C   UNL     1       2.676   7.238  18.836  0.00  0.00    +0.000 C 
ATOM     26  C   UNL     1       2.038   7.126  20.231  0.00  0.00    +0.000 C 
BRANCH  25  27
ATOM     27  C   UNL     1       2.892   5.863  18.207  0.00  0.00    +0.000 A 
ATOM     28  C   UNL     1       4.095   5.481  17.593  0.00  0.00    +0.000 A 
ATOM     29  C   UNL     1       4.231   4.237  16.975  0.00  0.00    +0.000 A 
ATOM     30  C   UNL     1       3.172   3.333  16.986  0.00  0.00    +0.000 A 
ATOM     31  C   UNL     1       1.990   3.664  17.641  0.00  0.00    +0.000 A 
ATOM     32  C   UNL     1       1.855   4.913  18.251  0.00  0.00    +0.000 A 
ENDBRANCH  25  27
ENDBRANCH  24  25
ENDBRANCH  22  24
ENDBRANCH  19  20
ENDBRANCH   3  19
TORSDOF 7
ENDMDL
MODEL 5
REMARK VINA RESULT:      -7.9      2.284      8.612
REMARK  Name = 
REMARK  10 active torsions:
REMARK  status: ('A' for Active; 'I' for Inactive)
REMARK    1  A    between atoms: C_1  and  C_2
REMARK    2  A    between atoms: C_2  and  C_3
REMARK    3  A    between atoms: N_5  and  C_6
REMARK    4  A    between atoms: C_6  and  C_7
REMARK    5  A    between atoms: N_9  and  C_10
REMARK    6  A    between atoms: C_10  and  C_11
REMARK    7  A    between atoms: C_11  and  C_12
REMARK    8  A    between atoms: C_11  and  C_13
REMARK    9  A    between atoms: C_24  and  O_25
REMARK   10  A    between atoms: O_25  and  C_26
REMARK                            x       y       z     vdW  Elec       q    Type
REMARK                         _______ _______ _______ _____ _____    ______ ____
ROOT
ATOM      1  C   UNL     1      -0.045  11.450  19.979  0.00  0.00    +0.000 A 
ATOM      2  N   UNL     1      -0.681  12.107  20.909  0.00  0.00    +0.000 NA
ATOM      3  N   UNL     1      -0.776  11.572  22.178  0.00  0.00    +0.000 N 
ATOM      4  C   UNL     1      -0.276  10.321  22.533  0.00  0.00    +0.000 A 
ATOM      5  O   UNL     1      -0.400   9.838  23.656  0.00  0.00    +0.000 OA
ATOM      6  C   UNL     1       0.401   9.638  21.468  0.00  0.00    +0.000 A 
ATOM      7  C   UNL     1       1.002   8.408  21.497  0.00  0.00    +0.000 A 
ATOM      8  C   UNL     1       1.558   8.145  20.223  0.00  0.00    +0.000 A 
ATOM      9  C   UNL     1       2.290   7.060  19.661  0.00  0.00    +0.000 A 
ATOM     10  C   UNL     1       2.719   7.138  18.332  0.00  0.00    +0.000 A 
ATOM     11  C   UNL     1       2.439   8.250  17.558  0.00  0.00    +0.000 A 
ATOM     12  C   UNL     1       1.708   9.320  18.082  0.00  0.00    +0.000 A 
ATOM     13  C   UNL     1       1.264   9.279  19.422  0.00  0.00    +0.000 A 
ATOM     14  N   UNL     1       0.535  10.184  20.212  0.00  0.00    +0.000 N 
ENDROOT
BRANCH   1  16
ATOM     15  C   UNL     1      -0.722  13.393  18.608  0.00  0.00    +0.000 C 
ATOM     16  C   UNL     1       0.009  12.061  18.610  0.00  0.00    +0.000 C 
ENDBRANCH   1  16
BRANCH   9  17
ATOM     17  O   UNL     1       2.669   5.864  20.263  0.00  0.00    +0.000 OA
ATOM     18  C   UNL     1       1.816   4.743  20.117  0.00  0.00    +0.000 C 
ENDBRANCH   9  17
BRANCH   3  19
ATOM     19  C   UNL     1      -1.419  12.390  23.201  0.00  0.00    +0.000 C 
BRANCH  19  20
ATOM     20  C   UNL     1      -2.938  12.301  23.168  0.00  0.00    +0.000 C 
ATOM     21  O   UNL     1      -3.578  11.833  24.109  0.00  0.00    +0.000 OA
ATOM     22  N   UNL     1      -3.559  12.926  22.101  0.00  0.00    +0.000 N 
ATOM     23  H   UNL     1      -2.968  13.297  21.365  0.00  0.00    +0.000 HD
BRANCH  22  24
ATOM     24  C   UNL     1      -5.001  12.861  21.946  0.00  0.00    +0.000 C 
BRANCH  24  25
ATOM     25  C   UNL     1      -5.551  13.555  20.682  0.00  0.00    +0.000 C 
ATOM     26  C   UNL     1      -5.068  15.014  20.640  0.00  0.00    +0.000 C 
BRANCH  25  27
ATOM     27  C   UNL     1      -5.287  12.840  19.357  0.00  0.00    +0.000 A 
ATOM     28  C   UNL     1      -4.165  12.027  19.136  0.00  0.00    +0.000 A 
ATOM     29  C   UNL     1      -3.929  11.441  17.891  0.00  0.00    +0.000 A 
ATOM     30  C   UNL     1      -4.830  11.631  16.848  0.00  0.00    +0.000 A 
ATOM     31  C   UNL     1      -5.980  12.383  17.060  0.00  0.00    +0.000 A 
ATOM     32  C   UNL     1      -6.210  12.975  18.304  0.00  0.00    +0.000 A 
ENDBRANCH  25  27
ENDBRANCH  24  25
ENDBRANCH  22  24
ENDBRANCH  19  20
ENDBRANCH   3  19
TORSDOF 7
ENDMDL
MODEL 6
REMARK VINA RESULT:      -7.8      5.013     11.413
REMARK  Name = 
REMARK  10 active torsions:
REMARK  status: ('A' for Active; 'I' for Inactive)
REMARK    1  A    between atoms: C_1  and  C_2
REMARK    2  A    between atoms: C_2  and  C_3
REMARK    3  A    between atoms: N_5  and  C_6
REMARK    4  A    between atoms: C_6  and  C_7
REMARK    5  A    between atoms: N_9  and  C_10
REMARK    6  A    between atoms: C_10  and  C_11
REMARK    7  A    between atoms: C_11  and  C_12
REMARK    8  A    between atoms: C_11  and  C_13
REMARK    9  A    between atoms: C_24  and  O_25
REMARK   10  A    between atoms: O_25  and  C_26
REMARK                            x       y       z     vdW  Elec       q    Type
REMARK                         _______ _______ _______ _____ _____    ______ ____
ROOT
ATOM      1  C   UNL     1       6.207   5.732  17.149  0.00  0.00    +0.000 A 
ATOM      2  N   UNL     1       5.534   5.564  18.254  0.00  0.00    +0.000 NA
ATOM      3  N   UNL     1       4.606   4.546  18.338  0.00  0.00    +0.000 N 
ATOM      4  C   UNL     1       4.287   3.695  17.282  0.00  0.00    +0.000 A 
ATOM      5  O   UNL     1       3.432   2.816  17.356  0.00  0.00    +0.000 OA
ATOM      6  C   UNL     1       5.049   3.934  16.089  0.00  0.00    +0.000 A 
ATOM      7  C   UNL     1       4.978   3.272  14.892  0.00  0.00    +0.000 A 
ATOM      8  C   UNL     1       5.926   3.836  14.006  0.00  0.00    +0.000 A 
ATOM      9  C   UNL     1       6.310   3.572  12.660  0.00  0.00    +0.000 A 
ATOM     10  C   UNL     1       7.332   4.331  12.078  0.00  0.00    +0.000 A 
ATOM     11  C   UNL     1       7.968   5.333  12.789  0.00  0.00    +0.000 A 
ATOM     12  C   UNL     1       7.598   5.620  14.105  0.00  0.00    +0.000 A 
ATOM     13  C   UNL     1       6.575   4.872  14.728  0.00  0.00    +0.000 A 
ATOM     14  N   UNL     1       6.004   4.921  16.012  0.00  0.00    +0.000 N 
ENDROOT
BRANCH   1  16
ATOM     15  C   UNL     1       8.000   6.908  18.379  0.00  0.00    +0.000 C 
ATOM     16  C   UNL     1       7.186   6.868  17.098  0.00  0.00    +0.000 C 
ENDBRANCH   1  16
BRANCH   9  17
ATOM     17  O   UNL     1       5.799   2.622  11.781  0.00  0.00    +0.000 OA
ATOM     18  C   UNL     1       6.700   1.689  11.210  0.00  0.00    +0.000 C 
ENDBRANCH   9  17
BRANCH   3  19
ATOM     19  C   UNL     1       3.948   4.347  19.625  0.00  0.00    +0.000 C 
BRANCH  19  20
ATOM     20  C   UNL     1       2.616   5.074  19.733  0.00  0.00    +0.000 C 
ATOM     21  O   UNL     1       1.586   4.609  19.245  0.00  0.00    +0.000 OA
ATOM     22  N   UNL     1       2.599   6.193  20.546  0.00  0.00    +0.000 N 
ATOM     23  H   UNL     1       3.485   6.515  20.920  0.00  0.00    +0.000 HD
BRANCH  22  24
ATOM     24  C   UNL     1       1.392   6.989  20.681  0.00  0.00    +0.000 C 
BRANCH  24  25
ATOM     25  C   UNL     1       1.569   8.493  20.382  0.00  0.00    +0.000 C 
ATOM     26  C   UNL     1       1.555   8.725  18.862  0.00  0.00    +0.000 C 
BRANCH  25  27
ATOM     27  C   UNL     1       0.605   9.436  21.100  0.00  0.00    +0.000 A 
ATOM     28  C   UNL     1      -0.009  10.529  20.470  0.00  0.00    +0.000 A 
ATOM     29  C   UNL     1      -0.836  11.404  21.178  0.00  0.00    +0.000 A 
ATOM     30  C   UNL     1      -1.091  11.183  22.528  0.00  0.00    +0.000 A 
ATOM     31  C   UNL     1      -0.543  10.073  23.161  0.00  0.00    +0.000 A 
ATOM     32  C   UNL     1       0.291   9.204  22.452  0.00  0.00    +0.000 A 
ENDBRANCH  25  27
ENDBRANCH  24  25
ENDBRANCH  22  24
ENDBRANCH  19  20
ENDBRANCH   3  19
TORSDOF 7
ENDMDL
MODEL 7
REMARK VINA RESULT:      -7.8      4.249      6.743
REMARK  Name = 
REMARK  10 active torsions:
REMARK  status: ('A' for Active; 'I' for Inactive)
REMARK    1  A    between atoms: C_1  and  C_2
REMARK    2  A    between atoms: C_2  and  C_3
REMARK    3  A    between atoms: N_5  and  C_6
REMARK    4  A    between atoms: C_6  and  C_7
REMARK    5  A    between atoms: N_9  and  C_10
REMARK    6  A    between atoms: C_10  and  C_11
REMARK    7  A    between atoms: C_11  and  C_12
REMARK    8  A    between atoms: C_11  and  C_13
REMARK    9  A    between atoms: C_24  and  O_25
REMARK   10  A    between atoms: O_25  and  C_26
REMARK                            x       y       z     vdW  Elec       q    Type
REMARK                         _______ _______ _______ _____ _____    ______ ____
ROOT
ATOM      1  C   UNL     1       2.550   7.281  18.479  0.00  0.00    +0.000 A 
ATOM      2  N   UNL     1       2.905   6.030  18.375  0.00  0.00    +0.000 NA
ATOM      3  N   UNL     1       2.531   5.132  19.355  0.00  0.00    +0.000 N 
ATOM      4  C   UNL     1       1.830   5.485  20.506  0.00  0.00    +0.000 A 
ATOM      5  O   UNL     1       1.535   4.684  21.390  0.00  0.00    +0.000 OA
ATOM      6  C   UNL     1       1.478   6.875  20.573  0.00  0.00    +0.000 A 
ATOM      7  C   UNL     1       0.790   7.528  21.561  0.00  0.00    +0.000 A 
ATOM      8  C   UNL     1       0.659   8.889  21.198  0.00  0.00    +0.000 A 
ATOM      9  C   UNL     1       0.054  10.027  21.804  0.00  0.00    +0.000 A 
ATOM     10  C   UNL     1       0.092  11.259  21.141  0.00  0.00    +0.000 A 
ATOM     11  C   UNL     1       0.711  11.385  19.910  0.00  0.00    +0.000 A 
ATOM     12  C   UNL     1       1.325  10.286  19.303  0.00  0.00    +0.000 A 
ATOM     13  C   UNL     1       1.302   9.026  19.939  0.00  0.00    +0.000 A 
ATOM     14  N   UNL     1       1.813   7.766  19.580  0.00  0.00    +0.000 N 
ENDROOT
BRANCH   1  16
ATOM     15  C   UNL     1       4.013   7.532  16.502  0.00  0.00    +0.000 C 
ATOM     16  C   UNL     1       3.004   8.222  17.403  0.00  0.00    +0.000 C 
ENDBRANCH   1  16
BRANCH   9  17
ATOM     17  O   UNL     1      -0.609  10.112  23.025  0.00  0.00    +0.000 OA
ATOM     18  C   UNL     1      -1.515  11.183  23.220  0.00  0.00    +0.000 C 
ENDBRANCH   9  17
BRANCH   3  19
ATOM     19  C   UNL     1       2.877   3.730  19.143  0.00  0.00    +0.000 C 
BRANCH  19  20
ATOM     20  C   UNL     1       3.336   3.437  17.722  0.00  0.00    +0.000 C 
ATOM     21  O   UNL     1       2.572   2.960  16.883  0.00  0.00    +0.000 OA
ATOM     22  N   UNL     1       4.599   3.891  17.386  0.00  0.00    +0.000 N 
ATOM     23  H   UNL     1       5.170   4.281  18.128  0.00  0.00    +0.000 HD
BRANCH  22  24
ATOM     24  C   UNL     1       5.154   3.622  16.072  0.00  0.00    +0.000 C 
BRANCH  24  25
ATOM     25  C   UNL     1       6.592   4.140  15.855  0.00  0.00    +0.000 C 
ATOM     26  C   UNL     1       6.748   4.648  14.412  0.00  0.00    +0.000 C 
BRANCH  25  27
ATOM     27  C   UNL     1       7.093   5.168  16.868  0.00  0.00    +0.000 A 
ATOM     28  C   UNL     1       7.083   6.551  16.624  0.00  0.00    +0.000 A 
ATOM     29  C   UNL     1       7.607   7.454  17.551  0.00  0.00    +0.000 A 
ATOM     30  C   UNL     1       8.124   6.993  18.758  0.00  0.00    +0.000 A 
ATOM     31  C   UNL     1       8.090   5.634  19.049  0.00  0.00    +0.000 A 
ATOM     32  C   UNL     1       7.572   4.732  18.116  0.00  0.00    +0.000 A 
ENDBRANCH  25  27
ENDBRANCH  24  25
ENDBRANCH  22  24
ENDBRANCH  19  20
ENDBRANCH   3  19
TORSDOF 7
ENDMDL
MODEL 8
REMARK VINA RESULT:      -7.8      1.520      2.283
REMARK  Name = 
REMARK  10 active torsions:
REMARK  status: ('A' for Active; 'I' for Inactive)
REMARK    1  A    between atoms: C_1  and  C_2
REMARK    2  A    between atoms: C_2  and  C_3
REMARK    3  A    between atoms: N_5  and  C_6
REMARK    4  A    between atoms: C_6  and  C_7
REMARK    5  A    between atoms: N_9  and  C_10
REMARK    6  A    between atoms: C_10  and  C_11
REMARK    7  A    between atoms: C_11  and  C_12
REMARK    8  A    between atoms: C_11  and  C_13
REMARK    9  A    between atoms: C_24  and  O_25
REMARK   10  A    between atoms: O_25  and  C_26
REMARK                            x       y       z     vdW  Elec       q    Type
REMARK                         _______ _______ _______ _____ _____    ______ ____
ROOT
ATOM      1  C   UNL     1      -2.369  10.687  17.832  0.00  0.00    +0.000 A 
ATOM      2  N   UNL     1      -1.091  10.589  18.074  0.00  0.00    +0.000 NA
ATOM      3  N   UNL     1      -0.551  11.253  19.157  0.00  0.00    +0.000 N 
ATOM      4  C   UNL     1      -1.281  12.087  20.002  0.00  0.00    +0.000 A 
ATOM      5  O   UNL     1      -0.782  12.703  20.941  0.00  0.00    +0.000 OA
ATOM      6  C   UNL     1      -2.677  12.166  19.680  0.00  0.00    +0.000 A 
ATOM      7  C   UNL     1      -3.654  12.887  20.316  0.00  0.00    +0.000 A 
ATOM      8  C   UNL     1      -4.887  12.650  19.665  0.00  0.00    +0.000 A 
ATOM      9  C   UNL     1      -6.223  13.103  19.867  0.00  0.00    +0.000 A 
ATOM     10  C   UNL     1      -7.239  12.639  19.024  0.00  0.00    +0.000 A 
ATOM     11  C   UNL     1      -6.964  11.753  17.998  0.00  0.00    +0.000 A 
ATOM     12  C   UNL     1      -5.659  11.307  17.770  0.00  0.00    +0.000 A 
ATOM     13  C   UNL     1      -4.608  11.748  18.604  0.00  0.00    +0.000 A 
ATOM     14  N   UNL     1      -3.230  11.474  18.627  0.00  0.00    +0.000 N 
ENDROOT
BRANCH   1  16
ATOM     15  C   UNL     1      -2.947  10.910  15.439  0.00  0.00    +0.000 C 
ATOM     16  C   UNL     1      -2.904   9.968  16.629  0.00  0.00    +0.000 C 
ENDBRANCH   1  16
BRANCH   9  17
ATOM     17  O   UNL     1      -6.704  13.986  20.829  0.00  0.00    +0.000 OA
ATOM     18  C   UNL     1      -6.676  15.372  20.537  0.00  0.00    +0.000 C 
ENDBRANCH   9  17
BRANCH   3  19
ATOM     19  C   UNL     1       0.866  11.037  19.434  0.00  0.00    +0.000 C 
BRANCH  19  20
ATOM     20  C   UNL     1       1.529  10.092  18.443  0.00  0.00    +0.000 C 
ATOM     21  O   UNL     1       2.107  10.511  17.440  0.00  0.00    +0.000 OA
ATOM     22  N   UNL     1       1.590   8.762  18.820  0.00  0.00    +0.000 N 
ATOM     23  H   UNL     1       1.097   8.491  19.663  0.00  0.00    +0.000 HD
BRANCH  22  24
ATOM     24  C   UNL     1       2.159   7.768  17.928  0.00  0.00    +0.000 C 
BRANCH  24  25
ATOM     25  C   UNL     1       3.261   6.888  18.553  0.00  0.00    +0.000 C 
ATOM     26  C   UNL     1       2.644   5.959  19.612  0.00  0.00    +0.000 C 
BRANCH  25  27
ATOM     27  C   UNL     1       4.137   6.112  17.571  0.00  0.00    +0.000 A 
ATOM     28  C   UNL     1       5.105   6.723  16.759  0.00  0.00    +0.000 A 
ATOM     29  C   UNL     1       5.842   5.987  15.830  0.00  0.00    +0.000 A 
ATOM     30  C   UNL     1       5.647   4.614  15.715  0.00  0.00    +0.000 A 
ATOM     31  C   UNL     1       4.736   3.975  16.549  0.00  0.00    +0.000 A 
ATOM     32  C   UNL     1       3.995   4.716  17.473  0.00  0.00    +0.000 A 
ENDBRANCH  25  27
ENDBRANCH  24  25
ENDBRANCH  22  24
ENDBRANCH  19  20
ENDBRANCH   3  19
TORSDOF 7
ENDMDL
MODEL 9
REMARK VINA RESULT:      -7.8      3.198     10.177
REMARK  Name = 
REMARK  10 active torsions:
REMARK  status: ('A' for Active; 'I' for Inactive)
REMARK    1  A    between atoms: C_1  and  C_2
REMARK    2  A    between atoms: C_2  and  C_3
REMARK    3  A    between atoms: N_5  and  C_6
REMARK    4  A    between atoms: C_6  and  C_7
REMARK    5  A    between atoms: N_9  and  C_10
REMARK    6  A    between atoms: C_10  and  C_11
REMARK    7  A    between atoms: C_11  and  C_12
REMARK    8  A    between atoms: C_11  and  C_13
REMARK    9  A    between atoms: C_24  and  O_25
REMARK   10  A    between atoms: O_25  and  C_26
REMARK                            x       y       z     vdW  Elec       q    Type
REMARK                         _______ _______ _______ _____ _____    ______ ____
ROOT
ATOM      1  C   UNL     1       2.119   6.712  19.919  0.00  0.00    +0.000 A 
ATOM      2  N   UNL     1       1.378   7.750  20.193  0.00  0.00    +0.000 NA
ATOM      3  N   UNL     1       1.388   8.838  19.343  0.00  0.00    +0.000 N 
ATOM      4  C   UNL     1       2.196   8.933  18.212  0.00  0.00    +0.000 A 
ATOM      5  O   UNL     1       2.225   9.922  17.484  0.00  0.00    +0.000 OA
ATOM      6  C   UNL     1       2.999   7.769  17.968  0.00  0.00    +0.000 A 
ATOM      7  C   UNL     1       3.884   7.549  16.946  0.00  0.00    +0.000 A 
ATOM      8  C   UNL     1       4.435   6.255  17.095  0.00  0.00    +0.000 A 
ATOM      9  C   UNL     1       5.380   5.485  16.358  0.00  0.00    +0.000 A 
ATOM     10  C   UNL     1       5.693   4.190  16.787  0.00  0.00    +0.000 A 
ATOM     11  C   UNL     1       5.101   3.652  17.916  0.00  0.00    +0.000 A 
ATOM     12  C   UNL     1       4.184   4.394  18.664  0.00  0.00    +0.000 A 
ATOM     13  C   UNL     1       3.839   5.702  18.259  0.00  0.00    +0.000 A 
ATOM     14  N   UNL     1       2.962   6.665  18.789  0.00  0.00    +0.000 N 
ENDROOT
BRANCH   1  16
ATOM     15  C   UNL     1       1.082   4.527  20.433  0.00  0.00    +0.000 C 
ATOM     16  C   UNL     1       2.093   5.566  20.887  0.00  0.00    +0.000 C 
ENDBRANCH   1  16
BRANCH   9  17
ATOM     17  O   UNL     1       6.082   5.838  15.209  0.00  0.00    +0.000 OA
ATOM     18  C   UNL     1       6.688   4.805  14.452  0.00  0.00    +0.000 C 
ENDBRANCH   9  17
BRANCH   3  19
ATOM     19  C   UNL     1       0.474   9.933  19.649  0.00  0.00    +0.000 C 
BRANCH  19  20
ATOM     20  C   UNL     1       0.372  10.227  21.139  0.00  0.00    +0.000 C 
ATOM     21  O   UNL     1       1.372  10.287  21.854  0.00  0.00    +0.000 OA
ATOM     22  N   UNL     1      -0.881  10.585  21.603  0.00  0.00    +0.000 N 
ATOM     23  H   UNL     1      -1.658  10.518  20.955  0.00  0.00    +0.000 HD
BRANCH  22  24
ATOM     24  C   UNL     1      -1.100  10.839  23.016  0.00  0.00    +0.000 C 
BRANCH  24  25
ATOM     25  C   UNL     1      -1.585  12.264  23.353  0.00  0.00    +0.000 C 
ATOM     26  C   UNL     1      -0.773  13.292  22.546  0.00  0.00    +0.000 C 
BRANCH  25  27
ATOM     27  C   UNL     1      -3.087  12.510  23.220  0.00  0.00    +0.000 A 
ATOM     28  C   UNL     1      -3.953  12.573  24.322  0.00  0.00    +0.000 A 
ATOM     29  C   UNL     1      -5.329  12.737  24.154  0.00  0.00    +0.000 A 
ATOM     30  C   UNL     1      -5.864  12.875  22.877  0.00  0.00    +0.000 A 
ATOM     31  C   UNL     1      -5.020  12.878  21.772  0.00  0.00    +0.000 A 
ATOM     32  C   UNL     1      -3.644  12.705  21.943  0.00  0.00    +0.000 A 
ENDBRANCH  25  27
ENDBRANCH  24  25
ENDBRANCH  22  24
ENDBRANCH  19  20
ENDBRANCH   3  19
TORSDOF 7
ENDMDL
