MODEL 1
REMARK VINA RESULT:      -7.7      0.000      0.000
REMARK  Name = 
REMARK  7 active torsions:
REMARK  status: ('A' for Active; 'I' for Inactive)
REMARK    1  A    between atoms: C_2  and  OXT_3
REMARK    2  A    between atoms: C_2  and  CA_4
REMARK    3  A    between atoms: C_11  and  C_12
REMARK    4  A    between atoms: C_12  and  C_13
REMARK    5  A    between atoms: C_13  and  P_14
REMARK    6  A    between atoms: P_14  and  O_16
REMARK    7  A    between atoms: P_14  and  O_17
REMARK                            x       y       z     vdW  Elec       q    Type
REMARK                         _______ _______ _______ _____ _____    ______ ____
ROOT
ATOM      1  CA  UNL     1       6.697   4.852  18.592  0.00  0.00    +0.000 C 
ATOM      2  N   UNL     1       7.274   4.360  17.293  0.00  0.00    +0.000 NA
ATOM      3  C   UNL     1       6.808   5.100  16.098  0.00  0.00    +0.000 C 
ATOM      4  C   UNL     1       6.195   6.484  16.346  0.00  0.00    +0.000 C 
ATOM      5  C   UNL     1       5.100   6.352  17.371  0.00  0.00    +0.000 A 
ATOM      6  C   UNL     1       3.905   7.066  17.285  0.00  0.00    +0.000 A 
ATOM      7  C   UNL     1       2.910   6.877  18.248  0.00  0.00    +0.000 A 
ATOM      8  C   UNL     1       3.087   5.966  19.303  0.00  0.00    +0.000 A 
ATOM      9  C   UNL     1       4.315   5.295  19.411  0.00  0.00    +0.000 A 
ATOM     10  C   UNL     1       5.327   5.488  18.455  0.00  0.00    +0.000 A 
ATOM     11  H   UNL     1       6.939   3.397  17.183  0.00  0.00    +0.000 HD
ENDROOT
BRANCH   1  13
ATOM     12  O   UNL     1       8.193   6.811  18.761  0.00  0.00    +0.000 OA
ATOM     13  C   UNL     1       7.714   5.809  19.272  0.00  0.00    +0.000 C 
BRANCH  13  14
ATOM     14  OXT UNL     1       8.008   5.436  20.550  0.00  0.00    +0.000 OA
ATOM     15  HXT UNL     1       7.658   4.522  20.669  0.00  0.00    +0.000 HD
ENDBRANCH  13  14
ENDBRANCH   1  13
BRANCH   8  16
ATOM     16  C   UNL     1       1.974   5.733  20.308  0.00  0.00    +0.000 C 
BRANCH  16  17
ATOM     17  C   UNL     1       2.316   4.612  21.285  0.00  0.00    +0.000 C 
BRANCH  17  18
ATOM     18  P   UNL     1       1.750   2.990  20.821  0.00  0.00    +0.000 P 
ATOM     19  O   UNL     1       2.643   2.197  19.932  0.00  0.00    +0.000 OA
BRANCH  18  20
ATOM     20  O   UNL     1       1.431   2.274  22.220  0.00  0.00    +0.000 OA
ATOM     21  H   UNL     1       1.595   1.313  22.254  0.00  0.00    +0.000 HD
ENDBRANCH  18  20
BRANCH  18  22
ATOM     22  O   UNL     1       0.267   3.185  20.256  0.00  0.00    +0.000 OA
ATOM     23  H   UNL     1       0.059   2.491  19.591  0.00  0.00    +0.000 HD
ENDBRANCH  18  22
ENDBRANCH  17  18
ENDBRANCH  16  17
ENDBRANCH   8  16
TORSDOF 7
ENDMDL
MODEL 2
REMARK VINA RESULT:      -7.7      3.305      6.164
REMARK  Name = 
REMARK  7 active torsions:
REMARK  status: ('A' for Active; 'I' for Inactive)
REMARK    1  A    between atoms: C_2  and  OXT_3
REMARK    2  A    between atoms: C_2  and  CA_4
REMARK    3  A    between atoms: C_11  and  C_12
REMARK    4  A    between atoms: C_12  and  C_13
REMARK    5  A    between atoms: C_13  and  P_14
REMARK    6  A    between atoms: P_14  and  O_16
REMARK    7  A    between atoms: P_14  and  O_17
REMARK                            x       y       z     vdW  Elec       q    Type
REMARK                         _______ _______ _______ _____ _____    ______ ____
ROOT
ATOM      1  CA  UNL     1       2.997   2.998  19.285  0.00  0.00    +0.000 C 
ATOM      2  N   UNL     1       2.785   2.787  20.758  0.00  0.00    +0.000 NA
ATOM      3  C   UNL     1       2.159   3.933  21.457  0.00  0.00    +0.000 C 
ATOM      4  C   UNL     1       1.425   4.953  20.576  0.00  0.00    +0.000 C 
ATOM      5  C   UNL     1       2.359   5.414  19.489  0.00  0.00    +0.000 A 
ATOM      6  C   UNL     1       2.403   6.739  19.055  0.00  0.00    +0.000 A 
ATOM      7  C   UNL     1       3.314   7.117  18.065  0.00  0.00    +0.000 A 
ATOM      8  C   UNL     1       4.202   6.185  17.503  0.00  0.00    +0.000 A 
ATOM      9  C   UNL     1       4.109   4.843  17.907  0.00  0.00    +0.000 A 
ATOM     10  C   UNL     1       3.188   4.450  18.892  0.00  0.00    +0.000 A 
ATOM     11  H   UNL     1       3.721   2.679  21.165  0.00  0.00    +0.000 HD
ENDROOT
BRANCH   1  13
ATOM     12  O   UNL     1       0.669   2.277  18.877  0.00  0.00    +0.000 OA
ATOM     13  C   UNL     1       1.831   2.334  18.502  0.00  0.00    +0.000 C 
BRANCH  13  14
ATOM     14  OXT UNL     1       2.229   1.834  17.297  0.00  0.00    +0.000 OA
ATOM     15  HXT UNL     1       1.437   1.843  16.708  0.00  0.00    +0.000 HD
ENDBRANCH  13  14
ENDBRANCH   1  13
BRANCH   8  16
ATOM     16  C   UNL     1       5.222   6.624  16.469  0.00  0.00    +0.000 C 
BRANCH  16  17
ATOM     17  C   UNL     1       5.307   5.646  15.302  0.00  0.00    +0.000 C 
BRANCH  17  18
ATOM     18  P   UNL     1       6.836   4.745  15.164  0.00  0.00    +0.000 P 
ATOM     19  O   UNL     1       7.564   4.464  16.433  0.00  0.00    +0.000 OA
BRANCH  18  20
ATOM     20  O   UNL     1       6.439   3.428  14.341  0.00  0.00    +0.000 OA
ATOM     21  H   UNL     1       5.913   3.573  13.533  0.00  0.00    +0.000 HD
ENDBRANCH  18  20
BRANCH  18  22
ATOM     22  O   UNL     1       7.705   5.517  14.067  0.00  0.00    +0.000 OA
ATOM     23  H   UNL     1       8.435   6.017  14.495  0.00  0.00    +0.000 HD
ENDBRANCH  18  22
ENDBRANCH  17  18
ENDBRANCH  16  17
ENDBRANCH   8  16
TORSDOF 7
ENDMDL
MODEL 3
REMARK VINA RESULT:      -7.5      3.300      6.050
REMARK  Name = 
REMARK  7 active torsions:
REMARK  status: ('A' for Active; 'I' for Inactive)
REMARK    1  A    between atoms: C_2  and  OXT_3
REMARK    2  A    between atoms: C_2  and  CA_4
REMARK    3  A    between atoms: C_11  and  C_12
REMARK    4  A    between atoms: C_12  and  C_13
REMARK    5  A    between atoms: C_13  and  P_14
REMARK    6  A    between atoms: P_14  and  O_16
REMARK    7  A    between atoms: P_14  and  O_17
REMARK                            x       y       z     vdW  Elec       q    Type
REMARK                         _______ _______ _______ _____ _____    ______ ____
ROOT
ATOM      1  CA  UNL     1       3.269   2.964  19.358  0.00  0.00    +0.000 C 
ATOM      2  N   UNL     1       2.932   2.785  20.813  0.00  0.00    +0.000 NA
ATOM      3  C   UNL     1       2.164   3.905  21.405  0.00  0.00    +0.000 C 
ATOM      4  C   UNL     1       1.449   4.839  20.421  0.00  0.00    +0.000 C 
ATOM      5  C   UNL     1       2.447   5.332  19.409  0.00  0.00    +0.000 A 
ATOM      6  C   UNL     1       2.441   6.642  18.929  0.00  0.00    +0.000 A 
ATOM      7  C   UNL     1       3.414   7.054  18.014  0.00  0.00    +0.000 A 
ATOM      8  C   UNL     1       4.414   6.170  17.573  0.00  0.00    +0.000 A 
ATOM      9  C   UNL     1       4.377   4.839  18.019  0.00  0.00    +0.000 A 
ATOM     10  C   UNL     1       3.395   4.413  18.929  0.00  0.00    +0.000 A 
ATOM     11  H   UNL     1       3.830   2.759  21.308  0.00  0.00    +0.000 HD
ENDROOT
BRANCH   1  13
ATOM     12  O   UNL     1       2.144   2.247  17.279  0.00  0.00    +0.000 OA
ATOM     13  C   UNL     1       2.232   2.192  18.497  0.00  0.00    +0.000 C 
BRANCH  13  14
ATOM     14  OXT UNL     1       1.422   1.392  19.246  0.00  0.00    +0.000 OA
ATOM     15  HXT UNL     1       1.456   0.492  18.843  0.00  0.00    +0.000 HD
ENDBRANCH  13  14
ENDBRANCH   1  13
BRANCH   8  16
ATOM     16  C   UNL     1       5.495   6.649  16.623  0.00  0.00    +0.000 C 
BRANCH  16  17
ATOM     17  C   UNL     1       5.458   5.899  15.295  0.00  0.00    +0.000 C 
BRANCH  17  18
ATOM     18  P   UNL     1       6.888   4.901  14.937  0.00  0.00    +0.000 P 
ATOM     19  O   UNL     1       7.857   5.449  13.948  0.00  0.00    +0.000 OA
BRANCH  18  20
ATOM     20  O   UNL     1       7.530   4.611  16.377  0.00  0.00    +0.000 OA
ATOM     21  H   UNL     1       8.381   5.051  16.561  0.00  0.00    +0.000 HD
ENDBRANCH  18  20
BRANCH  18  22
ATOM     22  O   UNL     1       6.331   3.447  14.574  0.00  0.00    +0.000 OA
ATOM     23  H   UNL     1       5.443   3.310  14.972  0.00  0.00    +0.000 HD
ENDBRANCH  18  22
ENDBRANCH  17  18
ENDBRANCH  16  17
ENDBRANCH   8  16
TORSDOF 7
ENDMDL
MODEL 4
REMARK VINA RESULT:      -7.5      0.989      1.226
REMARK  Name = 
REMARK  7 active torsions:
REMARK  status: ('A' for Active; 'I' for Inactive)
REMARK    1  A    between atoms: C_2  and  OXT_3
REMARK    2  A    between atoms: C_2  and  CA_4
REMARK    3  A    between atoms: C_11  and  C_12
REMARK    4  A    between atoms: C_12  and  C_13
REMARK    5  A    between atoms: C_13  and  P_14
REMARK    6  A    between atoms: P_14  and  O_16
REMARK    7  A    between atoms: P_14  and  O_17
REMARK                            x       y       z     vdW  Elec       q    Type
REMARK                         _______ _______ _______ _____ _____    ______ ____
ROOT
ATOM      1  CA  UNL     1       6.852   4.839  18.540  0.00  0.00    +0.000 C 
ATOM      2  N   UNL     1       7.471   4.461  17.222  0.00  0.00    +0.000 NA
ATOM      3  C   UNL     1       6.980   5.249  16.068  0.00  0.00    +0.000 C 
ATOM      4  C   UNL     1       6.288   6.579  16.392  0.00  0.00    +0.000 C 
ATOM      5  C   UNL     1       5.190   6.323  17.389  0.00  0.00    +0.000 A 
ATOM      6  C   UNL     1       3.958   6.975  17.329  0.00  0.00    +0.000 A 
ATOM      7  C   UNL     1       2.963   6.672  18.262  0.00  0.00    +0.000 A 
ATOM      8  C   UNL     1       3.177   5.707  19.261  0.00  0.00    +0.000 A 
ATOM      9  C   UNL     1       4.439   5.098  19.347  0.00  0.00    +0.000 A 
ATOM     10  C   UNL     1       5.450   5.406  18.421  0.00  0.00    +0.000 A 
ATOM     11  H   UNL     1       7.191   3.491  17.048  0.00  0.00    +0.000 HD
ENDROOT
BRANCH   1  13
ATOM     12  O   UNL     1       8.278   6.834  18.834  0.00  0.00    +0.000 OA
ATOM     13  C   UNL     1       7.806   5.805  19.294  0.00  0.00    +0.000 C 
BRANCH  13  14
ATOM     14  OXT UNL     1       8.049   5.405  20.574  0.00  0.00    +0.000 OA
ATOM     15  HXT UNL     1       8.333   6.206  21.075  0.00  0.00    +0.000 HD
ENDBRANCH  13  14
ENDBRANCH   1  13
BRANCH   8  16
ATOM     16  C   UNL     1       2.067   5.350  20.231  0.00  0.00    +0.000 C 
BRANCH  16  17
ATOM     17  C   UNL     1       1.922   3.841  20.401  0.00  0.00    +0.000 C 
BRANCH  17  18
ATOM     18  P   UNL     1       1.248   2.972  19.001  0.00  0.00    +0.000 P 
ATOM     19  O   UNL     1       1.148   3.734  17.725  0.00  0.00    +0.000 OA
BRANCH  18  20
ATOM     20  O   UNL     1       2.147   1.649  18.895  0.00  0.00    +0.000 OA
ATOM     21  H   UNL     1       1.752   0.836  19.259  0.00  0.00    +0.000 HD
ENDBRANCH  18  20
BRANCH  18  22
ATOM     22  O   UNL     1      -0.134   2.340  19.498  0.00  0.00    +0.000 OA
ATOM     23  H   UNL     1      -0.355   2.663  20.400  0.00  0.00    +0.000 HD
ENDBRANCH  18  22
ENDBRANCH  17  18
ENDBRANCH  16  17
ENDBRANCH   8  16
TORSDOF 7
ENDMDL
MODEL 5
REMARK VINA RESULT:      -7.5      3.260      6.083
REMARK  Name = 
REMARK  7 active torsions:
REMARK  status: ('A' for Active; 'I' for Inactive)
REMARK    1  A    between atoms: C_2  and  OXT_3
REMARK    2  A    between atoms: C_2  and  CA_4
REMARK    3  A    between atoms: C_11  and  C_12
REMARK    4  A    between atoms: C_12  and  C_13
REMARK    5  A    between atoms: C_13  and  P_14
REMARK    6  A    between atoms: P_14  and  O_16
REMARK    7  A    between atoms: P_14  and  O_17
REMARK                            x       y       z     vdW  Elec       q    Type
REMARK                         _______ _______ _______ _____ _____    ______ ____
ROOT
ATOM      1  CA  UNL     1       3.288   2.955  19.371  0.00  0.00    +0.000 C 
ATOM      2  N   UNL     1       2.927   2.749  20.816  0.00  0.00    +0.000 NA
ATOM      3  C   UNL     1       2.146   3.856  21.415  0.00  0.00    +0.000 C 
ATOM      4  C   UNL     1       1.446   4.807  20.436  0.00  0.00    +0.000 C 
ATOM      5  C   UNL     1       2.461   5.321  19.451  0.00  0.00    +0.000 A 
ATOM      6  C   UNL     1       2.460   6.640  18.996  0.00  0.00    +0.000 A 
ATOM      7  C   UNL     1       3.448   7.070  18.106  0.00  0.00    +0.000 A 
ATOM      8  C   UNL     1       4.457   6.197  17.667  0.00  0.00    +0.000 A 
ATOM      9  C   UNL     1       4.415   4.858  18.087  0.00  0.00    +0.000 A 
ATOM     10  C   UNL     1       3.418   4.412  18.971  0.00  0.00    +0.000 A 
ATOM     11  H   UNL     1       3.815   2.715  21.326  0.00  0.00    +0.000 HD
ENDROOT
BRANCH   1  13
ATOM     12  O   UNL     1       2.181   2.299  17.262  0.00  0.00    +0.000 OA
ATOM     13  C   UNL     1       2.269   2.198  18.477  0.00  0.00    +0.000 C 
BRANCH  13  14
ATOM     14  OXT UNL     1       1.474   1.352  19.192  0.00  0.00    +0.000 OA
ATOM     15  HXT UNL     1       2.062   0.871  19.822  0.00  0.00    +0.000 HD
ENDBRANCH  13  14
ENDBRANCH   1  13
BRANCH   8  16
ATOM     16  C   UNL     1       5.554   6.696  16.744  0.00  0.00    +0.000 C 
BRANCH  16  17
ATOM     17  C   UNL     1       5.487   6.035  15.371  0.00  0.00    +0.000 C 
BRANCH  17  18
ATOM     18  P   UNL     1       6.733   4.804  15.050  0.00  0.00    +0.000 P 
ATOM     19  O   UNL     1       6.264   3.506  14.493  0.00  0.00    +0.000 OA
BRANCH  18  20
ATOM     20  O   UNL     1       7.797   5.561  14.119  0.00  0.00    +0.000 OA
ATOM     21  H   UNL     1       7.422   6.106  13.402  0.00  0.00    +0.000 HD
ENDBRANCH  18  20
BRANCH  18  22
ATOM     22  O   UNL     1       7.579   4.671  16.401  0.00  0.00    +0.000 OA
ATOM     23  H   UNL     1       8.479   4.324  16.210  0.00  0.00    +0.000 HD
ENDBRANCH  18  22
ENDBRANCH  17  18
ENDBRANCH  16  17
ENDBRANCH   8  16
TORSDOF 7
ENDMDL
MODEL 6
REMARK VINA RESULT:      -7.4      1.210      1.700
REMARK  Name = 
REMARK  7 active torsions:
REMARK  status: ('A' for Active; 'I' for Inactive)
REMARK    1  A    between atoms: C_2  and  OXT_3
REMARK    2  A    between atoms: C_2  and  CA_4
REMARK    3  A    between atoms: C_11  and  C_12
REMARK    4  A    between atoms: C_12  and  C_13
REMARK    5  A    between atoms: C_13  and  P_14
REMARK    6  A    between atoms: P_14  and  O_16
REMARK    7  A    between atoms: P_14  and  O_17
REMARK                            x       y       z     vdW  Elec       q    Type
REMARK                         _______ _______ _______ _____ _____    ______ ____
ROOT
ATOM      1  CA  UNL     1       5.686   4.233  17.264  0.00  0.00    +0.000 C 
ATOM      2  N   UNL     1       5.889   4.125  15.778  0.00  0.00    +0.000 NA
ATOM      3  C   UNL     1       5.530   5.347  15.021  0.00  0.00    +0.000 C 
ATOM      4  C   UNL     1       5.438   6.649  15.828  0.00  0.00    +0.000 C 
ATOM      5  C   UNL     1       4.511   6.432  16.993  0.00  0.00    +0.000 A 
ATOM      6  C   UNL     1       3.612   7.407  17.424  0.00  0.00    +0.000 A 
ATOM      7  C   UNL     1       2.751   7.138  18.491  0.00  0.00    +0.000 A 
ATOM      8  C   UNL     1       2.764   5.889  19.135  0.00  0.00    +0.000 A 
ATOM      9  C   UNL     1       3.712   4.935  18.730  0.00  0.00    +0.000 A 
ATOM     10  C   UNL     1       4.590   5.202  17.666  0.00  0.00    +0.000 A 
ATOM     11  H   UNL     1       5.248   3.391  15.459  0.00  0.00    +0.000 HD
ENDROOT
BRANCH   1  13
ATOM     12  O   UNL     1       7.171   5.137  19.019  0.00  0.00    +0.000 OA
ATOM     13  C   UNL     1       7.041   4.577  17.940  0.00  0.00    +0.000 C 
BRANCH  13  14
ATOM     14  OXT UNL     1       8.112   4.150  17.212  0.00  0.00    +0.000 OA
ATOM     15  HXT UNL     1       8.898   4.196  17.806  0.00  0.00    +0.000 HD
ENDBRANCH  13  14
ENDBRANCH   1  13
BRANCH   8  16
ATOM     16  C   UNL     1       1.785   5.594  20.255  0.00  0.00    +0.000 C 
BRANCH  16  17
ATOM     17  C   UNL     1       2.333   4.561  21.234  0.00  0.00    +0.000 C 
BRANCH  17  18
ATOM     18  P   UNL     1       1.617   2.935  21.116  0.00  0.00    +0.000 P 
ATOM     19  O   UNL     1       1.374   2.216  22.397  0.00  0.00    +0.000 OA
BRANCH  18  20
ATOM     20  O   UNL     1       0.294   3.156  20.238  0.00  0.00    +0.000 OA
ATOM     21  H   UNL     1      -0.073   4.060  20.240  0.00  0.00    +0.000 HD
ENDBRANCH  18  20
BRANCH  18  22
ATOM     22  O   UNL     1       2.522   2.130  20.073  0.00  0.00    +0.000 OA
ATOM     23  H   UNL     1       1.959   1.587  19.476  0.00  0.00    +0.000 HD
ENDBRANCH  18  22
ENDBRANCH  17  18
ENDBRANCH  16  17
ENDBRANCH   8  16
TORSDOF 7
ENDMDL
MODEL 7
REMARK VINA RESULT:      -7.3      1.188      1.335
REMARK  Name = 
REMARK  7 active torsions:
REMARK  status: ('A' for Active; 'I' for Inactive)
REMARK    1  A    between atoms: C_2  and  OXT_3
REMARK    2  A    between atoms: C_2  and  CA_4
REMARK    3  A    between atoms: C_11  and  C_12
REMARK    4  A    between atoms: C_12  and  C_13
REMARK    5  A    between atoms: C_13  and  P_14
REMARK    6  A    between atoms: P_14  and  O_16
REMARK    7  A    between atoms: P_14  and  O_17
REMARK                            x       y       z     vdW  Elec       q    Type
REMARK                         _______ _______ _______ _____ _____    ______ ____
ROOT
ATOM      1  CA  UNL     1       5.691   4.227  17.343  0.00  0.00    +0.000 C 
ATOM      2  N   UNL     1       5.854   4.066  15.857  0.00  0.00    +0.000 NA
ATOM      3  C   UNL     1       5.468   5.258  15.067  0.00  0.00    +0.000 C 
ATOM      4  C   UNL     1       5.391   6.587  15.828  0.00  0.00    +0.000 C 
ATOM      5  C   UNL     1       4.497   6.409  17.025  0.00  0.00    +0.000 A 
ATOM      6  C   UNL     1       3.605   7.395  17.446  0.00  0.00    +0.000 A 
ATOM      7  C   UNL     1       2.774   7.160  18.545  0.00  0.00    +0.000 A 
ATOM      8  C   UNL     1       2.813   5.936  19.233  0.00  0.00    +0.000 A 
ATOM      9  C   UNL     1       3.754   4.972  18.837  0.00  0.00    +0.000 A 
ATOM     10  C   UNL     1       4.602   5.204  17.740  0.00  0.00    +0.000 A 
ATOM     11  H   UNL     1       5.209   3.318  15.582  0.00  0.00    +0.000 HD
ENDROOT
BRANCH   1  13
ATOM     12  O   UNL     1       7.219   5.188  19.031  0.00  0.00    +0.000 OA
ATOM     13  C   UNL     1       7.062   4.601  17.969  0.00  0.00    +0.000 C 
BRANCH  13  14
ATOM     14  OXT UNL     1       8.115   4.169  17.218  0.00  0.00    +0.000 OA
ATOM     15  HXT UNL     1       8.219   3.205  17.400  0.00  0.00    +0.000 HD
ENDBRANCH  13  14
ENDBRANCH   1  13
BRANCH   8  16
ATOM     16  C   UNL     1       1.865   5.677  20.390  0.00  0.00    +0.000 C 
BRANCH  16  17
ATOM     17  C   UNL     1       2.346   4.531  21.274  0.00  0.00    +0.000 C 
BRANCH  17  18
ATOM     18  P   UNL     1       1.687   2.926  20.877  0.00  0.00    +0.000 P 
ATOM     19  O   UNL     1       2.545   2.036  20.046  0.00  0.00    +0.000 OA
BRANCH  18  20
ATOM     20  O   UNL     1       1.298   2.302  22.302  0.00  0.00    +0.000 OA
ATOM     21  H   UNL     1       0.413   2.535  22.641  0.00  0.00    +0.000 HD
ENDBRANCH  18  20
BRANCH  18  22
ATOM     22  O   UNL     1       0.230   3.186  20.271  0.00  0.00    +0.000 OA
ATOM     23  H   UNL     1      -0.312   3.717  20.895  0.00  0.00    +0.000 HD
ENDBRANCH  18  22
ENDBRANCH  17  18
ENDBRANCH  16  17
ENDBRANCH   8  16
TORSDOF 7
ENDMDL
MODEL 8
REMARK VINA RESULT:      -7.3      1.979      2.301
REMARK  Name = 
REMARK  7 active torsions:
REMARK  status: ('A' for Active; 'I' for Inactive)
REMARK    1  A    between atoms: C_2  and  OXT_3
REMARK    2  A    between atoms: C_2  and  CA_4
REMARK    3  A    between atoms: C_11  and  C_12
REMARK    4  A    between atoms: C_12  and  C_13
REMARK    5  A    between atoms: C_13  and  P_14
REMARK    6  A    between atoms: P_14  and  O_16
REMARK    7  A    between atoms: P_14  and  O_17
REMARK                            x       y       z     vdW  Elec       q    Type
REMARK                         _______ _______ _______ _____ _____    ______ ____
ROOT
ATOM      1  CA  UNL     1       5.746   4.282  16.491  0.00  0.00    +0.000 C 
ATOM      2  N   UNL     1       6.171   5.145  15.335  0.00  0.00    +0.000 NA
ATOM      3  C   UNL     1       5.586   6.505  15.340  0.00  0.00    +0.000 C 
ATOM      4  C   UNL     1       5.020   7.001  16.677  0.00  0.00    +0.000 C 
ATOM      5  C   UNL     1       4.043   5.982  17.197  0.00  0.00    +0.000 A 
ATOM      6  C   UNL     1       2.855   6.341  17.833  0.00  0.00    +0.000 A 
ATOM      7  C   UNL     1       1.969   5.350  18.266  0.00  0.00    +0.000 A 
ATOM      8  C   UNL     1       2.249   3.989  18.061  0.00  0.00    +0.000 A 
ATOM      9  C   UNL     1       3.474   3.637  17.472  0.00  0.00    +0.000 A 
ATOM     10  C   UNL     1       4.377   4.626  17.044  0.00  0.00    +0.000 A 
ATOM     11  H   UNL     1       5.814   4.682  14.492  0.00  0.00    +0.000 HD
ENDROOT
BRANCH   1  13
ATOM     12  O   UNL     1       6.640   4.466  18.786  0.00  0.00    +0.000 OA
ATOM     13  C   UNL     1       6.843   4.324  17.589  0.00  0.00    +0.000 C 
BRANCH  13  14
ATOM     14  OXT UNL     1       8.097   4.146  17.083  0.00  0.00    +0.000 OA
ATOM     15  HXT UNL     1       7.989   3.884  16.138  0.00  0.00    +0.000 HD
ENDBRANCH  13  14
ENDBRANCH   1  13
BRANCH   8  16
ATOM     16  C   UNL     1       1.251   2.928  18.487  0.00  0.00    +0.000 C 
BRANCH  16  17
ATOM     17  C   UNL     1       0.803   3.117  19.933  0.00  0.00    +0.000 C 
BRANCH  17  18
ATOM     18  P   UNL     1       2.094   3.031  21.155  0.00  0.00    +0.000 P 
ATOM     19  O   UNL     1       3.348   2.334  20.757  0.00  0.00    +0.000 OA
BRANCH  18  20
ATOM     20  O   UNL     1       2.315   4.557  21.596  0.00  0.00    +0.000 OA
ATOM     21  H   UNL     1       2.198   5.224  20.893  0.00  0.00    +0.000 HD
ENDBRANCH  18  20
BRANCH  18  22
ATOM     22  O   UNL     1       1.411   2.448  22.478  0.00  0.00    +0.000 OA
ATOM     23  H   UNL     1       0.958   1.597  22.285  0.00  0.00    +0.000 HD
ENDBRANCH  18  22
ENDBRANCH  17  18
ENDBRANCH  16  17
ENDBRANCH   8  16
TORSDOF 7
ENDMDL
MODEL 9
REMARK VINA RESULT:      -7.2      1.090      1.626
REMARK  Name = 
REMARK  7 active torsions:
REMARK  status: ('A' for Active; 'I' for Inactive)
REMARK    1  A    between atoms: C_2  and  OXT_3
REMARK    2  A    between atoms: C_2  and  CA_4
REMARK    3  A    between atoms: C_11  and  C_12
REMARK    4  A    between atoms: C_12  and  C_13
REMARK    5  A    between atoms: C_13  and  P_14
REMARK    6  A    between atoms: P_14  and  O_16
REMARK    7  A    between atoms: P_14  and  O_17
REMARK                            x       y       z     vdW  Elec       q    Type
REMARK                         _______ _______ _______ _____ _____    ______ ____
ROOT
ATOM      1  CA  UNL     1       6.953   4.916  18.439  0.00  0.00    +0.000 C 
ATOM      2  N   UNL     1       7.482   4.739  17.042  0.00  0.00    +0.000 NA
ATOM      3  C   UNL     1       6.815   5.583  16.024  0.00  0.00    +0.000 C 
ATOM      4  C   UNL     1       6.032   6.795  16.547  0.00  0.00    +0.000 C 
ATOM      5  C   UNL     1       5.060   6.327  17.595  0.00  0.00    +0.000 A 
ATOM      6  C   UNL     1       3.771   6.851  17.707  0.00  0.00    +0.000 A 
ATOM      7  C   UNL     1       2.900   6.354  18.679  0.00  0.00    +0.000 A 
ATOM      8  C   UNL     1       3.294   5.321  19.546  0.00  0.00    +0.000 A 
ATOM      9  C   UNL     1       4.611   4.841  19.463  0.00  0.00    +0.000 A 
ATOM     10  C   UNL     1       5.499   5.343  18.496  0.00  0.00    +0.000 A 
ATOM     11  H   UNL     1       7.280   3.767  16.786  0.00  0.00    +0.000 HD
ENDROOT
BRANCH   1  13
ATOM     12  O   UNL     1       8.326   6.943  18.772  0.00  0.00    +0.000 OA
ATOM     13  C   UNL     1       7.876   5.895  19.214  0.00  0.00    +0.000 C 
BRANCH  13  14
ATOM     14  OXT UNL     1       8.121   5.483  20.490  0.00  0.00    +0.000 OA
ATOM     15  HXT UNL     1       7.269   5.557  20.983  0.00  0.00    +0.000 HD
ENDBRANCH  13  14
ENDBRANCH   1  13
BRANCH   8  16
ATOM     16  C   UNL     1       2.316   4.756  20.559  0.00  0.00    +0.000 C 
BRANCH  16  17
ATOM     17  C   UNL     1       1.055   4.216  19.893  0.00  0.00    +0.000 C 
BRANCH  17  18
ATOM     18  P   UNL     1       1.277   2.760  18.894  0.00  0.00    +0.000 P 
ATOM     19  O   UNL     1       0.107   1.846  18.772  0.00  0.00    +0.000 OA
BRANCH  18  20
ATOM     20  O   UNL     1       1.802   3.328  17.489  0.00  0.00    +0.000 OA
ATOM     21  H   UNL     1       2.709   3.687  17.488  0.00  0.00    +0.000 HD
ENDBRANCH  18  20
BRANCH  18  22
ATOM     22  O   UNL     1       2.607   2.054  19.432  0.00  0.00    +0.000 OA
ATOM     23  H   UNL     1       2.431   1.112  19.654  0.00  0.00    +0.000 HD
ENDBRANCH  18  22
ENDBRANCH  17  18
ENDBRANCH  16  17
ENDBRANCH   8  16
TORSDOF 7
ENDMDL
