MODEL 1
REMARK VINA RESULT:      -7.8      0.000      0.000
REMARK  Name = 
REMARK  11 active torsions:
REMARK  status: ('A' for Active; 'I' for Inactive)
REMARK    1  A    between atoms: C_1  and  C_2
REMARK    2  A    between atoms: C_2  and  C_3
REMARK    3  A    between atoms: C_3  and  C_4
REMARK    4  A    between atoms: C_4  and  C_5
REMARK    5  A    between atoms: C_5  and  C_6
REMARK    6  A    between atoms: C_6  and  C_7
REMARK    7  A    between atoms: C_7  and  O_8
REMARK    8  A    between atoms: O_8  and  C_9
REMARK    9  A    between atoms: C_12  and  C_13
REMARK   10  A    between atoms: C_14  and  C_15
REMARK   11  A    between atoms: N_19  and  C_20
REMARK                            x       y       z     vdW  Elec       q    Type
REMARK                         _______ _______ _______ _____ _____    ______ ____
ROOT
ATOM      1  C   UNL     1       6.442   4.548  16.444  0.00  0.00    +0.000 A 
ATOM      2  C   UNL     1       6.741   5.011  17.728  0.00  0.00    +0.000 A 
ATOM      3  C   UNL     1       5.771   5.007  18.726  0.00  0.00    +0.000 A 
ATOM      4  C   UNL     1       4.486   4.542  18.452  0.00  0.00    +0.000 A 
ATOM      5  C   UNL     1       4.171   4.096  17.164  0.00  0.00    +0.000 A 
ATOM      6  C   UNL     1       5.149   4.099  16.163  0.00  0.00    +0.000 A 
ENDROOT
BRANCH   4   7
ATOM      7  C   UNL     1       3.504   4.536  19.523  0.00  0.00    +0.000 A 
ATOM      8  C   UNL     1       2.711   5.548  19.922  0.00  0.00    +0.000 A 
ATOM      9  C   UNL     1       2.573   6.931  19.399  0.00  0.00    +0.000 C 
ATOM     10  N   UNL     1       1.992   5.123  21.013  0.00  0.00    +0.000 N 
ATOM     11  C   UNL     1       2.351   3.805  21.335  0.00  0.00    +0.000 A 
ATOM     12  O   UNL     1       1.920   3.145  22.261  0.00  0.00    +0.000 OA
ATOM     13  N   UNL     1       3.311   3.457  20.367  0.00  0.00    +0.000 N 
ATOM     14  C   UNL     1       4.015   2.204  20.330  0.00  0.00    +0.000 C 
ATOM     15  H   UNL     1       1.330   5.660  21.548  0.00  0.00    +0.000 HD
ENDBRANCH   4   7
BRANCH   1  16
ATOM     16  O   UNL     1       7.338   4.489  15.404  0.00  0.00    +0.000 OA
BRANCH  16  17
ATOM     17  C   UNL     1       6.845   5.040  14.183  0.00  0.00    +0.000 C 
BRANCH  17  18
ATOM     18  C   UNL     1       6.638   3.957  13.137  0.00  0.00    +0.000 C 
BRANCH  18  19
ATOM     19  C   UNL     1       5.152   3.886  12.785  0.00  0.00    +0.000 C 
BRANCH  19  20
ATOM     20  C   UNL     1       4.913   3.110  11.497  0.00  0.00    +0.000 C 
BRANCH  20  21
ATOM     21  C   UNL     1       3.476   3.296  11.010  0.00  0.00    +0.000 C 
BRANCH  21  23
ATOM     22  C   UNL     1       2.309   4.773   9.339  0.00  0.00    +0.000 C 
ATOM     23  C   UNL     1       3.454   3.803   9.570  0.00  0.00    +0.000 C 
ENDBRANCH  21  23
ENDBRANCH  20  21
ENDBRANCH  19  20
ENDBRANCH  18  19
ENDBRANCH  17  18
ENDBRANCH  16  17
ENDBRANCH   1  16
TORSDOF 8
ENDMDL
MODEL 2
REMARK VINA RESULT:      -7.6      0.816      1.483
REMARK  Name = 
REMARK  11 active torsions:
REMARK  status: ('A' for Active; 'I' for Inactive)
REMARK    1  A    between atoms: C_1  and  C_2
REMARK    2  A    between atoms: C_2  and  C_3
REMARK    3  A    between atoms: C_3  and  C_4
REMARK    4  A    between atoms: C_4  and  C_5
REMARK    5  A    between atoms: C_5  and  C_6
REMARK    6  A    between atoms: C_6  and  C_7
REMARK    7  A    between atoms: C_7  and  O_8
REMARK    8  A    between atoms: O_8  and  C_9
REMARK    9  A    between atoms: C_12  and  C_13
REMARK   10  A    between atoms: C_14  and  C_15
REMARK   11  A    between atoms: N_19  and  C_20
REMARK                            x       y       z     vdW  Elec       q    Type
REMARK                         _______ _______ _______ _____ _____    ______ ____
ROOT
ATOM      1  C   UNL     1       5.805   5.473  15.980  0.00  0.00    +0.000 A 
ATOM      2  C   UNL     1       4.714   4.602  15.932  0.00  0.00    +0.000 A 
ATOM      3  C   UNL     1       3.936   4.378  17.064  0.00  0.00    +0.000 A 
ATOM      4  C   UNL     1       4.242   5.021  18.262  0.00  0.00    +0.000 A 
ATOM      5  C   UNL     1       5.346   5.878  18.326  0.00  0.00    +0.000 A 
ATOM      6  C   UNL     1       6.124   6.103  17.185  0.00  0.00    +0.000 A 
ENDROOT
BRANCH   4   7
ATOM      7  C   UNL     1       3.398   4.777  19.419  0.00  0.00    +0.000 A 
ATOM      8  C   UNL     1       2.581   5.647  20.043  0.00  0.00    +0.000 A 
ATOM      9  C   UNL     1       2.274   7.068  19.745  0.00  0.00    +0.000 C 
ATOM     10  N   UNL     1       2.032   5.011  21.132  0.00  0.00    +0.000 N 
ATOM     11  C   UNL     1       2.529   3.702  21.218  0.00  0.00    +0.000 A 
ATOM     12  O   UNL     1       2.265   2.884  22.079  0.00  0.00    +0.000 OA
ATOM     13  N   UNL     1       3.391   3.581  20.114  0.00  0.00    +0.000 N 
ATOM     14  C   UNL     1       4.183   2.416  19.819  0.00  0.00    +0.000 C 
ATOM     15  H   UNL     1       1.399   5.406  21.807  0.00  0.00    +0.000 HD
ENDBRANCH   4   7
BRANCH   1  16
ATOM     16  O   UNL     1       6.613   5.776  14.911  0.00  0.00    +0.000 OA
BRANCH  16  17
ATOM     17  C   UNL     1       7.153   4.633  14.250  0.00  0.00    +0.000 C 
BRANCH  17  18
ATOM     18  C   UNL     1       7.675   4.993  12.868  0.00  0.00    +0.000 C 
BRANCH  18  19
ATOM     19  C   UNL     1       7.011   4.083  11.835  0.00  0.00    +0.000 C 
BRANCH  19  20
ATOM     20  C   UNL     1       5.759   3.418  12.390  0.00  0.00    +0.000 C 
BRANCH  20  21
ATOM     21  C   UNL     1       5.064   2.585  11.314  0.00  0.00    +0.000 C 
BRANCH  21  23
ATOM     22  C   UNL     1       3.410   3.961  10.007  0.00  0.00    +0.000 C 
ATOM     23  C   UNL     1       3.602   3.000  11.168  0.00  0.00    +0.000 C 
ENDBRANCH  21  23
ENDBRANCH  20  21
ENDBRANCH  19  20
ENDBRANCH  18  19
ENDBRANCH  17  18
ENDBRANCH  16  17
ENDBRANCH   1  16
TORSDOF 8
ENDMDL
MODEL 3
REMARK VINA RESULT:      -7.2      4.180      6.864
REMARK  Name = 
REMARK  11 active torsions:
REMARK  status: ('A' for Active; 'I' for Inactive)
REMARK    1  A    between atoms: C_1  and  C_2
REMARK    2  A    between atoms: C_2  and  C_3
REMARK    3  A    between atoms: C_3  and  C_4
REMARK    4  A    between atoms: C_4  and  C_5
REMARK    5  A    between atoms: C_5  and  C_6
REMARK    6  A    between atoms: C_6  and  C_7
REMARK    7  A    between atoms: C_7  and  O_8
REMARK    8  A    between atoms: O_8  and  C_9
REMARK    9  A    between atoms: C_12  and  C_13
REMARK   10  A    between atoms: C_14  and  C_15
REMARK   11  A    between atoms: N_19  and  C_20
REMARK                            x       y       z     vdW  Elec       q    Type
REMARK                         _______ _______ _______ _____ _____    ______ ____
ROOT
ATOM      1  C   UNL     1       6.319   6.636  17.426  0.00  0.00    +0.000 A 
ATOM      2  C   UNL     1       5.080   6.782  16.796  0.00  0.00    +0.000 A 
ATOM      3  C   UNL     1       3.957   6.118  17.280  0.00  0.00    +0.000 A 
ATOM      4  C   UNL     1       4.059   5.295  18.401  0.00  0.00    +0.000 A 
ATOM      5  C   UNL     1       5.299   5.125  19.025  0.00  0.00    +0.000 A 
ATOM      6  C   UNL     1       6.426   5.796  18.537  0.00  0.00    +0.000 A 
ENDROOT
BRANCH   4   7
ATOM      7  C   UNL     1       2.862   4.631  18.889  0.00  0.00    +0.000 A 
ATOM      8  C   UNL     1       1.987   5.078  19.809  0.00  0.00    +0.000 A 
ATOM      9  C   UNL     1       1.952   6.353  20.570  0.00  0.00    +0.000 C 
ATOM     10  N   UNL     1       1.047   4.097  20.017  0.00  0.00    +0.000 N 
ATOM     11  C   UNL     1       1.342   2.980  19.220  0.00  0.00    +0.000 A 
ATOM     12  O   UNL     1       0.723   1.934  19.186  0.00  0.00    +0.000 OA
ATOM     13  N   UNL     1       2.498   3.351  18.511  0.00  0.00    +0.000 N 
ATOM     14  C   UNL     1       3.210   2.492  17.602  0.00  0.00    +0.000 C 
ATOM     15  H   UNL     1       0.275   4.126  20.662  0.00  0.00    +0.000 HD
ENDBRANCH   4   7
BRANCH   1  16
ATOM     16  O   UNL     1       7.475   7.269  17.038  0.00  0.00    +0.000 OA
BRANCH  16  17
ATOM     17  C   UNL     1       8.194   7.874  18.111  0.00  0.00    +0.000 C 
BRANCH  17  18
ATOM     18  C   UNL     1       8.335   9.373  17.903  0.00  0.00    +0.000 C 
BRANCH  18  19
ATOM     19  C   UNL     1       9.126   9.964  19.070  0.00  0.00    +0.000 C 
BRANCH  19  20
ATOM     20  C   UNL     1       9.276  11.473  18.945  0.00  0.00    +0.000 C 
BRANCH  20  21
ATOM     21  C   UNL     1      10.387  11.828  17.958  0.00  0.00    +0.000 C 
BRANCH  21  23
ATOM     22  C   UNL     1      12.060  12.227  19.795  0.00  0.00    +0.000 C 
ATOM     23  C   UNL     1      11.755  11.453  18.524  0.00  0.00    +0.000 C 
ENDBRANCH  21  23
ENDBRANCH  20  21
ENDBRANCH  19  20
ENDBRANCH  18  19
ENDBRANCH  17  18
ENDBRANCH  16  17
ENDBRANCH   1  16
TORSDOF 8
ENDMDL
MODEL 4
REMARK VINA RESULT:      -7.2      1.183      1.734
REMARK  Name = 
REMARK  11 active torsions:
REMARK  status: ('A' for Active; 'I' for Inactive)
REMARK    1  A    between atoms: C_1  and  C_2
REMARK    2  A    between atoms: C_2  and  C_3
REMARK    3  A    between atoms: C_3  and  C_4
REMARK    4  A    between atoms: C_4  and  C_5
REMARK    5  A    between atoms: C_5  and  C_6
REMARK    6  A    between atoms: C_6  and  C_7
REMARK    7  A    between atoms: C_7  and  O_8
REMARK    8  A    between atoms: O_8  and  C_9
REMARK    9  A    between atoms: C_12  and  C_13
REMARK   10  A    between atoms: C_14  and  C_15
REMARK   11  A    between atoms: N_19  and  C_20
REMARK                            x       y       z     vdW  Elec       q    Type
REMARK                         _______ _______ _______ _____ _____    ______ ____
ROOT
ATOM      1  C   UNL     1       6.471   4.505  16.493  0.00  0.00    +0.000 A 
ATOM      2  C   UNL     1       6.746   5.050  17.750  0.00  0.00    +0.000 A 
ATOM      3  C   UNL     1       5.779   5.049  18.750  0.00  0.00    +0.000 A 
ATOM      4  C   UNL     1       4.519   4.504  18.505  0.00  0.00    +0.000 A 
ATOM      5  C   UNL     1       4.227   3.976  17.243  0.00  0.00    +0.000 A 
ATOM      6  C   UNL     1       5.203   3.976  16.240  0.00  0.00    +0.000 A 
ENDROOT
BRANCH   4   7
ATOM      7  C   UNL     1       3.539   4.504  19.577  0.00  0.00    +0.000 A 
ATOM      8  C   UNL     1       2.741   5.516  19.967  0.00  0.00    +0.000 A 
ATOM      9  C   UNL     1       2.594   6.892  19.429  0.00  0.00    +0.000 C 
ATOM     10  N   UNL     1       2.026   5.099  21.064  0.00  0.00    +0.000 N 
ATOM     11  C   UNL     1       2.394   3.787  21.400  0.00  0.00    +0.000 A 
ATOM     12  O   UNL     1       1.969   3.134  22.334  0.00  0.00    +0.000 OA
ATOM     13  N   UNL     1       3.354   3.434  20.434  0.00  0.00    +0.000 N 
ATOM     14  C   UNL     1       4.066   2.184  20.409  0.00  0.00    +0.000 C 
ATOM     15  H   UNL     1       1.362   5.638  21.595  0.00  0.00    +0.000 HD
ENDBRANCH   4   7
BRANCH   1  16
ATOM     16  O   UNL     1       7.368   4.437  15.455  0.00  0.00    +0.000 OA
BRANCH  16  17
ATOM     17  C   UNL     1       7.119   5.379  14.412  0.00  0.00    +0.000 C 
BRANCH  17  18
ATOM     18  C   UNL     1       7.198   4.717  13.045  0.00  0.00    +0.000 C 
BRANCH  18  19
ATOM     19  C   UNL     1       6.324   3.463  13.051  0.00  0.00    +0.000 C 
BRANCH  19  20
ATOM     20  C   UNL     1       5.210   3.546  12.017  0.00  0.00    +0.000 C 
BRANCH  20  21
ATOM     21  C   UNL     1       5.101   2.241  11.230  0.00  0.00    +0.000 C 
BRANCH  21  23
ATOM     22  C   UNL     1       6.167  -0.039  11.256  0.00  0.00    +0.000 C 
ATOM     23  C   UNL     1       6.411   1.459  11.294  0.00  0.00    +0.000 C 
ENDBRANCH  21  23
ENDBRANCH  20  21
ENDBRANCH  19  20
ENDBRANCH  18  19
ENDBRANCH  17  18
ENDBRANCH  16  17
ENDBRANCH   1  16
TORSDOF 8
ENDMDL
MODEL 5
REMARK VINA RESULT:      -7.1      3.971      6.288
REMARK  Name = 
REMARK  11 active torsions:
REMARK  status: ('A' for Active; 'I' for Inactive)
REMARK    1  A    between atoms: C_1  and  C_2
REMARK    2  A    between atoms: C_2  and  C_3
REMARK    3  A    between atoms: C_3  and  C_4
REMARK    4  A    between atoms: C_4  and  C_5
REMARK    5  A    between atoms: C_5  and  C_6
REMARK    6  A    between atoms: C_6  and  C_7
REMARK    7  A    between atoms: C_7  and  O_8
REMARK    8  A    between atoms: O_8  and  C_9
REMARK    9  A    between atoms: C_12  and  C_13
REMARK   10  A    between atoms: C_14  and  C_15
REMARK   11  A    between atoms: N_19  and  C_20
REMARK                            x       y       z     vdW  Elec       q    Type
REMARK                         _______ _______ _______ _____ _____    ______ ____
ROOT
ATOM      1  C   UNL     1       6.242   6.075  17.754  0.00  0.00    +0.000 A 
ATOM      2  C   UNL     1       6.125   5.373  18.957  0.00  0.00    +0.000 A 
ATOM      3  C   UNL     1       4.908   4.816  19.336  0.00  0.00    +0.000 A 
ATOM      4  C   UNL     1       3.788   4.957  18.518  0.00  0.00    +0.000 A 
ATOM      5  C   UNL     1       3.889   5.677  17.323  0.00  0.00    +0.000 A 
ATOM      6  C   UNL     1       5.116   6.234  16.943  0.00  0.00    +0.000 A 
ENDROOT
BRANCH   4   7
ATOM      7  C   UNL     1       2.538   4.348  18.938  0.00  0.00    +0.000 A 
ATOM      8  C   UNL     1       1.675   4.791  19.872  0.00  0.00    +0.000 A 
ATOM      9  C   UNL     1       1.712   6.009  20.721  0.00  0.00    +0.000 C 
ATOM     10  N   UNL     1       0.665   3.867  19.994  0.00  0.00    +0.000 N 
ATOM     11  C   UNL     1       0.899   2.790  19.126  0.00  0.00    +0.000 A 
ATOM     12  O   UNL     1       0.210   1.794  19.008  0.00  0.00    +0.000 OA
ATOM     13  N   UNL     1       2.094   3.126  18.464  0.00  0.00    +0.000 N 
ATOM     14  C   UNL     1       2.764   2.284  17.510  0.00  0.00    +0.000 C 
ATOM     15  H   UNL     1      -0.117   3.905  20.627  0.00  0.00    +0.000 HD
ENDBRANCH   4   7
BRANCH   1  16
ATOM     16  O   UNL     1       7.405   6.637  17.284  0.00  0.00    +0.000 OA
BRANCH  16  17
ATOM     17  C   UNL     1       8.103   7.419  18.252  0.00  0.00    +0.000 C 
BRANCH  17  18
ATOM     18  C   UNL     1       8.027   8.901  17.918  0.00  0.00    +0.000 C 
BRANCH  18  19
ATOM     19  C   UNL     1       8.933   9.672  18.878  0.00  0.00    +0.000 C 
BRANCH  19  20
ATOM     20  C   UNL     1       9.662  10.809  18.176  0.00  0.00    +0.000 C 
BRANCH  20  21
ATOM     21  C   UNL     1       9.391  12.141  18.875  0.00  0.00    +0.000 C 
BRANCH  21  23
ATOM     22  C   UNL     1       7.639  12.661  17.144  0.00  0.00    +0.000 C 
ATOM     23  C   UNL     1       8.863  13.174  17.882  0.00  0.00    +0.000 C 
ENDBRANCH  21  23
ENDBRANCH  20  21
ENDBRANCH  19  20
ENDBRANCH  18  19
ENDBRANCH  17  18
ENDBRANCH  16  17
ENDBRANCH   1  16
TORSDOF 8
ENDMDL
MODEL 6
REMARK VINA RESULT:      -7.0      4.030      6.416
REMARK  Name = 
REMARK  11 active torsions:
REMARK  status: ('A' for Active; 'I' for Inactive)
REMARK    1  A    between atoms: C_1  and  C_2
REMARK    2  A    between atoms: C_2  and  C_3
REMARK    3  A    between atoms: C_3  and  C_4
REMARK    4  A    between atoms: C_4  and  C_5
REMARK    5  A    between atoms: C_5  and  C_6
REMARK    6  A    between atoms: C_6  and  C_7
REMARK    7  A    between atoms: C_7  and  O_8
REMARK    8  A    between atoms: O_8  and  C_9
REMARK    9  A    between atoms: C_12  and  C_13
REMARK   10  A    between atoms: C_14  and  C_15
REMARK   11  A    between atoms: N_19  and  C_20
REMARK                            x       y       z     vdW  Elec       q    Type
REMARK                         _______ _______ _______ _____ _____    ______ ____
ROOT
ATOM      1  C   UNL     1       6.098   6.701  17.396  0.00  0.00    +0.000 A 
ATOM      2  C   UNL     1       4.826   7.012  16.908  0.00  0.00    +0.000 A 
ATOM      3  C   UNL     1       3.703   6.333  17.372  0.00  0.00    +0.000 A 
ATOM      4  C   UNL     1       3.838   5.330  18.330  0.00  0.00    +0.000 A 
ATOM      5  C   UNL     1       5.110   4.996  18.809  0.00  0.00    +0.000 A 
ATOM      6  C   UNL     1       6.236   5.682  18.342  0.00  0.00    +0.000 A 
ENDROOT
BRANCH   4   7
ATOM      7  C   UNL     1       2.643   4.654  18.805  0.00  0.00    +0.000 A 
ATOM      8  C   UNL     1       1.850   5.006  19.835  0.00  0.00    +0.000 A 
ATOM      9  C   UNL     1       1.925   6.164  20.761  0.00  0.00    +0.000 C 
ATOM     10  N   UNL     1       0.877   4.044  19.973  0.00  0.00    +0.000 N 
ATOM     11  C   UNL     1       1.067   3.036  19.015  0.00  0.00    +0.000 A 
ATOM     12  O   UNL     1       0.396   2.030  18.883  0.00  0.00    +0.000 OA
ATOM     13  N   UNL     1       2.194   3.454  18.285  0.00  0.00    +0.000 N 
ATOM     14  C   UNL     1       2.804   2.700  17.222  0.00  0.00    +0.000 C 
ATOM     15  H   UNL     1       0.150   4.015  20.667  0.00  0.00    +0.000 HD
ENDBRANCH   4   7
BRANCH   1  16
ATOM     16  O   UNL     1       7.258   7.332  17.017  0.00  0.00    +0.000 OA
BRANCH  16  17
ATOM     17  C   UNL     1       8.084   7.731  18.110  0.00  0.00    +0.000 C 
BRANCH  17  18
ATOM     18  C   UNL     1       8.364   9.225  18.070  0.00  0.00    +0.000 C 
BRANCH  18  19
ATOM     19  C   UNL     1       9.041   9.637  19.377  0.00  0.00    +0.000 C 
BRANCH  19  20
ATOM     20  C   UNL     1       9.644  11.031  19.286  0.00  0.00    +0.000 C 
BRANCH  20  21
ATOM     21  C   UNL     1       9.928  11.406  17.831  0.00  0.00    +0.000 C 
BRANCH  21  23
ATOM     22  C   UNL     1       7.915  12.832  17.329  0.00  0.00    +0.000 C 
ATOM     23  C   UNL     1       9.421  12.814  17.527  0.00  0.00    +0.000 C 
ENDBRANCH  21  23
ENDBRANCH  20  21
ENDBRANCH  19  20
ENDBRANCH  18  19
ENDBRANCH  17  18
ENDBRANCH  16  17
ENDBRANCH   1  16
TORSDOF 8
ENDMDL
MODEL 7
REMARK VINA RESULT:      -7.0      4.133      6.953
REMARK  Name = 
REMARK  11 active torsions:
REMARK  status: ('A' for Active; 'I' for Inactive)
REMARK    1  A    between atoms: C_1  and  C_2
REMARK    2  A    between atoms: C_2  and  C_3
REMARK    3  A    between atoms: C_3  and  C_4
REMARK    4  A    between atoms: C_4  and  C_5
REMARK    5  A    between atoms: C_5  and  C_6
REMARK    6  A    between atoms: C_6  and  C_7
REMARK    7  A    between atoms: C_7  and  O_8
REMARK    8  A    between atoms: O_8  and  C_9
REMARK    9  A    between atoms: C_12  and  C_13
REMARK   10  A    between atoms: C_14  and  C_15
REMARK   11  A    between atoms: N_19  and  C_20
REMARK                            x       y       z     vdW  Elec       q    Type
REMARK                         _______ _______ _______ _____ _____    ______ ____
ROOT
ATOM      1  C   UNL     1       6.199   6.508  17.610  0.00  0.00    +0.000 A 
ATOM      2  C   UNL     1       6.564   5.617  18.623  0.00  0.00    +0.000 A 
ATOM      3  C   UNL     1       5.635   4.727  19.153  0.00  0.00    +0.000 A 
ATOM      4  C   UNL     1       4.324   4.720  18.678  0.00  0.00    +0.000 A 
ATOM      5  C   UNL     1       3.943   5.623  17.680  0.00  0.00    +0.000 A 
ATOM      6  C   UNL     1       4.881   6.514  17.147  0.00  0.00    +0.000 A 
ENDROOT
BRANCH   4   7
ATOM      7  C   UNL     1       3.384   3.766  19.242  0.00  0.00    +0.000 A 
ATOM      8  C   UNL     1       3.163   2.496  18.853  0.00  0.00    +0.000 A 
ATOM      9  C   UNL     1       3.801   1.689  17.783  0.00  0.00    +0.000 C 
ATOM     10  N   UNL     1       2.139   1.987  19.617  0.00  0.00    +0.000 N 
ATOM     11  C   UNL     1       1.678   2.969  20.507  0.00  0.00    +0.000 A 
ATOM     12  O   UNL     1       0.764   2.850  21.302  0.00  0.00    +0.000 OA
ATOM     13  N   UNL     1       2.491   4.086  20.249  0.00  0.00    +0.000 N 
ATOM     14  C   UNL     1       2.348   5.366  20.890  0.00  0.00    +0.000 C 
ATOM     15  H   UNL     1       1.731   1.070  19.547  0.00  0.00    +0.000 HD
ENDBRANCH   4   7
BRANCH   1  16
ATOM     16  O   UNL     1       7.052   7.403  17.009  0.00  0.00    +0.000 OA
BRANCH  16  17
ATOM     17  C   UNL     1       8.028   7.956  17.891  0.00  0.00    +0.000 C 
BRANCH  17  18
ATOM     18  C   UNL     1       8.041   9.474  17.812  0.00  0.00    +0.000 C 
BRANCH  18  19
ATOM     19  C   UNL     1       9.067  10.012  18.809  0.00  0.00    +0.000 C 
BRANCH  19  20
ATOM     20  C   UNL     1       9.469  11.445  18.488  0.00  0.00    +0.000 C 
BRANCH  20  21
ATOM     21  C   UNL     1      10.898  11.500  17.947  0.00  0.00    +0.000 C 
BRANCH  21  23
ATOM     22  C   UNL     1      11.531  12.743  20.042  0.00  0.00    +0.000 C 
ATOM     23  C   UNL     1      11.905  11.621  19.088  0.00  0.00    +0.000 C 
ENDBRANCH  21  23
ENDBRANCH  20  21
ENDBRANCH  19  20
ENDBRANCH  18  19
ENDBRANCH  17  18
ENDBRANCH  16  17
ENDBRANCH   1  16
TORSDOF 8
ENDMDL
MODEL 8
REMARK VINA RESULT:      -6.9      3.124      6.954
REMARK  Name = 
REMARK  11 active torsions:
REMARK  status: ('A' for Active; 'I' for Inactive)
REMARK    1  A    between atoms: C_1  and  C_2
REMARK    2  A    between atoms: C_2  and  C_3
REMARK    3  A    between atoms: C_3  and  C_4
REMARK    4  A    between atoms: C_4  and  C_5
REMARK    5  A    between atoms: C_5  and  C_6
REMARK    6  A    between atoms: C_6  and  C_7
REMARK    7  A    between atoms: C_7  and  O_8
REMARK    8  A    between atoms: O_8  and  C_9
REMARK    9  A    between atoms: C_12  and  C_13
REMARK   10  A    between atoms: C_14  and  C_15
REMARK   11  A    between atoms: N_19  and  C_20
REMARK                            x       y       z     vdW  Elec       q    Type
REMARK                         _______ _______ _______ _____ _____    ______ ____
ROOT
ATOM      1  C   UNL     1       3.036   2.703  18.849  0.00  0.00    +0.000 A 
ATOM      2  C   UNL     1       4.303   2.924  19.396  0.00  0.00    +0.000 A 
ATOM      3  C   UNL     1       5.287   3.580  18.663  0.00  0.00    +0.000 A 
ATOM      4  C   UNL     1       5.017   4.022  17.368  0.00  0.00    +0.000 A 
ATOM      5  C   UNL     1       3.759   3.787  16.804  0.00  0.00    +0.000 A 
ATOM      6  C   UNL     1       2.771   3.129  17.545  0.00  0.00    +0.000 A 
ENDROOT
BRANCH   4   7
ATOM      7  C   UNL     1       6.062   4.719  16.638  0.00  0.00    +0.000 A 
ATOM      8  C   UNL     1       6.858   5.711  17.081  0.00  0.00    +0.000 A 
ATOM      9  C   UNL     1       6.937   6.365  18.411  0.00  0.00    +0.000 C 
ATOM     10  N   UNL     1       7.651   6.122  16.035  0.00  0.00    +0.000 N 
ATOM     11  C   UNL     1       7.337   5.384  14.883  0.00  0.00    +0.000 A 
ATOM     12  O   UNL     1       7.836   5.518  13.782  0.00  0.00    +0.000 OA
ATOM     13  N   UNL     1       6.328   4.497  15.298  0.00  0.00    +0.000 N 
ATOM     14  C   UNL     1       5.646   3.572  14.433  0.00  0.00    +0.000 C 
ATOM     15  H   UNL     1       8.333   6.861  16.048  0.00  0.00    +0.000 HD
ENDBRANCH   4   7
BRANCH   1  16
ATOM     16  O   UNL     1       1.996   2.089  19.504  0.00  0.00    +0.000 OA
BRANCH  16  17
ATOM     17  C   UNL     1       1.551   2.786  20.667  0.00  0.00    +0.000 C 
BRANCH  17  18
ATOM     18  C   UNL     1       0.885   4.101  20.298  0.00  0.00    +0.000 C 
BRANCH  18  19
ATOM     19  C   UNL     1       1.732   5.254  20.837  0.00  0.00    +0.000 C 
BRANCH  19  20
ATOM     20  C   UNL     1       2.442   6.004  19.719  0.00  0.00    +0.000 C 
BRANCH  20  21
ATOM     21  C   UNL     1       2.113   7.495  19.770  0.00  0.00    +0.000 C 
BRANCH  21  23
ATOM     22  C   UNL     1       3.405   7.444  17.610  0.00  0.00    +0.000 C 
ATOM     23  C   UNL     1       2.309   8.140  18.399  0.00  0.00    +0.000 C 
ENDBRANCH  21  23
ENDBRANCH  20  21
ENDBRANCH  19  20
ENDBRANCH  18  19
ENDBRANCH  17  18
ENDBRANCH  16  17
ENDBRANCH   1  16
TORSDOF 8
ENDMDL
MODEL 9
REMARK VINA RESULT:      -6.9      3.121      7.036
REMARK  Name = 
REMARK  11 active torsions:
REMARK  status: ('A' for Active; 'I' for Inactive)
REMARK    1  A    between atoms: C_1  and  C_2
REMARK    2  A    between atoms: C_2  and  C_3
REMARK    3  A    between atoms: C_3  and  C_4
REMARK    4  A    between atoms: C_4  and  C_5
REMARK    5  A    between atoms: C_5  and  C_6
REMARK    6  A    between atoms: C_6  and  C_7
REMARK    7  A    between atoms: C_7  and  O_8
REMARK    8  A    between atoms: O_8  and  C_9
REMARK    9  A    between atoms: C_12  and  C_13
REMARK   10  A    between atoms: C_14  and  C_15
REMARK   11  A    between atoms: N_19  and  C_20
REMARK                            x       y       z     vdW  Elec       q    Type
REMARK                         _______ _______ _______ _____ _____    ______ ____
ROOT
ATOM      1  C   UNL     1       2.762   2.699  18.406  0.00  0.00    +0.000 A 
ATOM      2  C   UNL     1       2.554   3.472  17.261  0.00  0.00    +0.000 A 
ATOM      3  C   UNL     1       3.616   4.127  16.646  0.00  0.00    +0.000 A 
ATOM      4  C   UNL     1       4.903   4.020  17.171  0.00  0.00    +0.000 A 
ATOM      5  C   UNL     1       5.118   3.266  18.329  0.00  0.00    +0.000 A 
ATOM      6  C   UNL     1       4.048   2.606  18.944  0.00  0.00    +0.000 A 
ENDROOT
BRANCH   4   7
ATOM      7  C   UNL     1       5.991   4.703  16.493  0.00  0.00    +0.000 A 
ATOM      8  C   UNL     1       6.775   5.687  16.972  0.00  0.00    +0.000 A 
ATOM      9  C   UNL     1       6.795   6.345  18.304  0.00  0.00    +0.000 C 
ATOM     10  N   UNL     1       7.624   6.086  15.967  0.00  0.00    +0.000 N 
ATOM     11  C   UNL     1       7.360   5.349  14.803  0.00  0.00    +0.000 A 
ATOM     12  O   UNL     1       7.915   5.475  13.727  0.00  0.00    +0.000 OA
ATOM     13  N   UNL     1       6.321   4.475  15.169  0.00  0.00    +0.000 N 
ATOM     14  C   UNL     1       5.674   3.555  14.272  0.00  0.00    +0.000 C 
ATOM     15  H   UNL     1       8.313   6.819  16.012  0.00  0.00    +0.000 HD
ENDBRANCH   4   7
BRANCH   1  16
ATOM     16  O   UNL     1       1.783   1.996  19.066  0.00  0.00    +0.000 OA
BRANCH  16  17
ATOM     17  C   UNL     1       1.426   2.549  20.332  0.00  0.00    +0.000 C 
BRANCH  17  18
ATOM     18  C   UNL     1       0.870   3.955  20.180  0.00  0.00    +0.000 C 
BRANCH  18  19
ATOM     19  C   UNL     1       1.713   4.915  21.020  0.00  0.00    +0.000 C 
BRANCH  19  20
ATOM     20  C   UNL     1       2.764   5.627  20.180  0.00  0.00    +0.000 C 
BRANCH  20  21
ATOM     21  C   UNL     1       2.281   7.018  19.771  0.00  0.00    +0.000 C 
BRANCH  21  23
ATOM     22  C   UNL     1       1.942   8.540  17.794  0.00  0.00    +0.000 C 
ATOM     23  C   UNL     1       2.684   7.328  18.331  0.00  0.00    +0.000 C 
ENDBRANCH  21  23
ENDBRANCH  20  21
ENDBRANCH  19  20
ENDBRANCH  18  19
ENDBRANCH  17  18
ENDBRANCH  16  17
ENDBRANCH   1  16
TORSDOF 8
ENDMDL
