MODEL 1
REMARK VINA RESULT:      -7.4      0.000      0.000
REMARK  Name = 
REMARK  2 active torsions:
REMARK  status: ('A' for Active; 'I' for Inactive)
REMARK    1  A    between atoms: C_1  and  N_2
REMARK    2  A    between atoms: C_4  and  C_5
REMARK                            x       y       z     vdW  Elec       q    Type
REMARK                         _______ _______ _______ _____ _____    ______ ____
ROOT
ATOM      1  C   UNL     1       2.136   6.987  19.911  0.00  0.00    +0.000 C 
ATOM      2  N   UNL     1       2.850   6.039  19.084  0.00  0.00    +0.000 N 
ATOM      3  C   UNL     1       4.005   6.314  18.397  0.00  0.00    +0.000 A 
ATOM      4  C   UNL     1       4.351   5.190  17.675  0.00  0.00    +0.000 A 
ATOM      5  C   UNL     1       3.384   4.176  17.974  0.00  0.00    +0.000 A 
ATOM      6  C   UNL     1       3.206   2.828  17.590  0.00  0.00    +0.000 A 
ATOM      7  C   UNL     1       2.113   2.099  18.068  0.00  0.00    +0.000 A 
ATOM      8  C   UNL     1       1.198   2.688  18.934  0.00  0.00    +0.000 A 
ATOM      9  C   UNL     1       1.354   4.014  19.347  0.00  0.00    +0.000 A 
ATOM     10  C   UNL     1       2.453   4.738  18.856  0.00  0.00    +0.000 A 
ENDROOT
BRANCH   4  11
ATOM     11  C   UNL     1       5.466   5.101  16.794  0.00  0.00    +0.000 C 
ATOM     12  C   UNL     1       5.496   5.343  15.477  0.00  0.00    +0.000 C 
ATOM     13  C   UNL     1       6.867   5.076  15.032  0.00  0.00    +0.000 C 
ATOM     14  O   UNL     1       7.270   5.175  13.890  0.00  0.00    +0.000 OA
ATOM     15  N   UNL     1       7.587   4.691  16.132  0.00  0.00    +0.000 N 
ATOM     16  C   UNL     1       6.799   4.683  17.326  0.00  0.00    +0.000 C 
ATOM     17  H   UNL     1       8.566   4.452  16.061  0.00  0.00    +0.000 HD
ENDBRANCH   4  11
TORSDOF 1
ENDMDL
MODEL 2
REMARK VINA RESULT:      -7.3      2.896      5.346
REMARK  Name = 
REMARK  2 active torsions:
REMARK  status: ('A' for Active; 'I' for Inactive)
REMARK    1  A    between atoms: C_1  and  N_2
REMARK    2  A    between atoms: C_4  and  C_5
REMARK                            x       y       z     vdW  Elec       q    Type
REMARK                         _______ _______ _______ _____ _____    ______ ____
ROOT
ATOM      1  C   UNL     1       7.561   5.763  19.100  0.00  0.00    +0.000 C 
ATOM      2  N   UNL     1       6.494   5.086  18.397  0.00  0.00    +0.000 N 
ATOM      3  C   UNL     1       5.394   4.525  18.997  0.00  0.00    +0.000 A 
ATOM      4  C   UNL     1       4.635   3.919  18.017  0.00  0.00    +0.000 A 
ATOM      5  C   UNL     1       5.285   4.163  16.763  0.00  0.00    +0.000 A 
ATOM      6  C   UNL     1       4.997   3.842  15.417  0.00  0.00    +0.000 A 
ATOM      7  C   UNL     1       5.875   4.231  14.400  0.00  0.00    +0.000 A 
ATOM      8  C   UNL     1       7.030   4.944  14.700  0.00  0.00    +0.000 A 
ATOM      9  C   UNL     1       7.335   5.292  16.019  0.00  0.00    +0.000 A 
ATOM     10  C   UNL     1       6.448   4.892  17.033  0.00  0.00    +0.000 A 
ENDROOT
BRANCH   4  11
ATOM     11  C   UNL     1       3.439   3.184  18.253  0.00  0.00    +0.000 C 
ATOM     12  C   UNL     1       2.191   3.656  18.371  0.00  0.00    +0.000 C 
ATOM     13  C   UNL     1       1.328   2.503  18.641  0.00  0.00    +0.000 C 
ATOM     14  O   UNL     1       0.129   2.546  18.823  0.00  0.00    +0.000 OA
ATOM     15  N   UNL     1       2.128   1.390  18.660  0.00  0.00    +0.000 N 
ATOM     16  C   UNL     1       3.502   1.698  18.408  0.00  0.00    +0.000 C 
ATOM     17  H   UNL     1       1.744   0.472  18.833  0.00  0.00    +0.000 HD
ENDBRANCH   4  11
TORSDOF 1
ENDMDL
MODEL 3
REMARK VINA RESULT:      -7.1      1.527      2.758
REMARK  Name = 
REMARK  2 active torsions:
REMARK  status: ('A' for Active; 'I' for Inactive)
REMARK    1  A    between atoms: C_1  and  N_2
REMARK    2  A    between atoms: C_4  and  C_5
REMARK                            x       y       z     vdW  Elec       q    Type
REMARK                         _______ _______ _______ _____ _____    ______ ____
ROOT
ATOM      1  C   UNL     1       3.273   3.015  20.251  0.00  0.00    +0.000 C 
ATOM      2  N   UNL     1       3.673   3.906  19.185  0.00  0.00    +0.000 N 
ATOM      3  C   UNL     1       4.533   3.574  18.168  0.00  0.00    +0.000 A 
ATOM      4  C   UNL     1       4.723   4.695  17.385  0.00  0.00    +0.000 A 
ATOM      5  C   UNL     1       3.906   5.738  17.929  0.00  0.00    +0.000 A 
ATOM      6  C   UNL     1       3.639   7.079  17.572  0.00  0.00    +0.000 A 
ATOM      7  C   UNL     1       2.774   7.854  18.350  0.00  0.00    +0.000 A 
ATOM      8  C   UNL     1       2.159   7.312  19.473  0.00  0.00    +0.000 A 
ATOM      9  C   UNL     1       2.389   5.985  19.844  0.00  0.00    +0.000 A 
ATOM     10  C   UNL     1       3.264   5.216  19.058  0.00  0.00    +0.000 A 
ENDROOT
BRANCH   4  11
ATOM     11  C   UNL     1       5.591   4.762  16.259  0.00  0.00    +0.000 C 
ATOM     12  C   UNL     1       5.409   4.227  15.045  0.00  0.00    +0.000 C 
ATOM     13  C   UNL     1       6.603   4.552  14.258  0.00  0.00    +0.000 C 
ATOM     14  O   UNL     1       6.802   4.218  13.108  0.00  0.00    +0.000 OA
ATOM     15  N   UNL     1       7.437   5.281  15.064  0.00  0.00    +0.000 N 
ATOM     16  C   UNL     1       6.891   5.495  16.369  0.00  0.00    +0.000 C 
ATOM     17  H   UNL     1       8.330   5.614  14.730  0.00  0.00    +0.000 HD
ENDBRANCH   4  11
TORSDOF 1
ENDMDL
MODEL 4
REMARK VINA RESULT:      -7.1      1.070      2.605
REMARK  Name = 
REMARK  2 active torsions:
REMARK  status: ('A' for Active; 'I' for Inactive)
REMARK    1  A    between atoms: C_1  and  N_2
REMARK    2  A    between atoms: C_4  and  C_5
REMARK                            x       y       z     vdW  Elec       q    Type
REMARK                         _______ _______ _______ _____ _____    ______ ____
ROOT
ATOM      1  C   UNL     1       1.926   1.722  19.039  0.00  0.00    +0.000 C 
ATOM      2  N   UNL     1       2.703   2.864  18.611  0.00  0.00    +0.000 N 
ATOM      3  C   UNL     1       3.728   2.817  17.700  0.00  0.00    +0.000 A 
ATOM      4  C   UNL     1       4.267   4.083  17.597  0.00  0.00    +0.000 A 
ATOM      5  C   UNL     1       3.504   4.943  18.452  0.00  0.00    +0.000 A 
ATOM      6  C   UNL     1       3.534   6.322  18.755  0.00  0.00    +0.000 A 
ATOM      7  C   UNL     1       2.627   6.859  19.675  0.00  0.00    +0.000 A 
ATOM      8  C   UNL     1       1.683   6.045  20.290  0.00  0.00    +0.000 A 
ATOM      9  C   UNL     1       1.616   4.680  20.000  0.00  0.00    +0.000 A 
ATOM     10  C   UNL     1       2.534   4.150  19.078  0.00  0.00    +0.000 A 
ENDROOT
BRANCH   4  11
ATOM     11  C   UNL     1       5.387   4.426  16.787  0.00  0.00    +0.000 C 
ATOM     12  C   UNL     1       5.407   4.671  15.470  0.00  0.00    +0.000 C 
ATOM     13  C   UNL     1       6.802   4.944  15.114  0.00  0.00    +0.000 C 
ATOM     14  O   UNL     1       7.209   5.194  13.997  0.00  0.00    +0.000 OA
ATOM     15  N   UNL     1       7.543   4.851  16.263  0.00  0.00    +0.000 N 
ATOM     16  C   UNL     1       6.743   4.539  17.407  0.00  0.00    +0.000 C 
ATOM     17  H   UNL     1       8.542   4.999  16.256  0.00  0.00    +0.000 HD
ENDBRANCH   4  11
TORSDOF 1
ENDMDL
MODEL 5
REMARK VINA RESULT:      -7.1      3.002      5.568
REMARK  Name = 
REMARK  2 active torsions:
REMARK  status: ('A' for Active; 'I' for Inactive)
REMARK    1  A    between atoms: C_1  and  N_2
REMARK    2  A    between atoms: C_4  and  C_5
REMARK                            x       y       z     vdW  Elec       q    Type
REMARK                         _______ _______ _______ _____ _____    ______ ____
ROOT
ATOM      1  C   UNL     1       6.535   4.789  14.354  0.00  0.00    +0.000 C 
ATOM      2  N   UNL     1       5.926   4.487  15.630  0.00  0.00    +0.000 N 
ATOM      3  C   UNL     1       4.816   3.699  15.800  0.00  0.00    +0.000 A 
ATOM      4  C   UNL     1       4.496   3.695  17.143  0.00  0.00    +0.000 A 
ATOM      5  C   UNL     1       5.485   4.481  17.819  0.00  0.00    +0.000 A 
ATOM      6  C   UNL     1       5.728   4.825  19.168  0.00  0.00    +0.000 A 
ATOM      7  C   UNL     1       6.808   5.650  19.498  0.00  0.00    +0.000 A 
ATOM      8  C   UNL     1       7.659   6.127  18.508  0.00  0.00    +0.000 A 
ATOM      9  C   UNL     1       7.456   5.792  17.167  0.00  0.00    +0.000 A 
ATOM     10  C   UNL     1       6.365   4.968  16.845  0.00  0.00    +0.000 A 
ENDROOT
BRANCH   4  11
ATOM     11  C   UNL     1       3.372   3.030  17.709  0.00  0.00    +0.000 C 
ATOM     12  C   UNL     1       2.112   3.475  17.802  0.00  0.00    +0.000 C 
ATOM     13  C   UNL     1       1.348   2.433  18.494  0.00  0.00    +0.000 C 
ATOM     14  O   UNL     1       0.167   2.491  18.771  0.00  0.00    +0.000 OA
ATOM     15  N   UNL     1       2.212   1.407  18.770  0.00  0.00    +0.000 N 
ATOM     16  C   UNL     1       3.539   1.666  18.301  0.00  0.00    +0.000 C 
ATOM     17  H   UNL     1       1.902   0.575  19.251  0.00  0.00    +0.000 HD
ENDBRANCH   4  11
TORSDOF 1
ENDMDL
MODEL 6
REMARK VINA RESULT:      -7.0      1.103      1.334
REMARK  Name = 
REMARK  2 active torsions:
REMARK  status: ('A' for Active; 'I' for Inactive)
REMARK    1  A    between atoms: C_1  and  N_2
REMARK    2  A    between atoms: C_4  and  C_5
REMARK                            x       y       z     vdW  Elec       q    Type
REMARK                         _______ _______ _______ _____ _____    ______ ____
ROOT
ATOM      1  C   UNL     1       1.603   6.853  20.734  0.00  0.00    +0.000 C 
ATOM      2  N   UNL     1       2.323   6.022  19.795  0.00  0.00    +0.000 N 
ATOM      3  C   UNL     1       3.432   6.417  19.090  0.00  0.00    +0.000 A 
ATOM      4  C   UNL     1       3.798   5.382  18.253  0.00  0.00    +0.000 A 
ATOM      5  C   UNL     1       2.893   4.298  18.496  0.00  0.00    +0.000 A 
ATOM      6  C   UNL     1       2.762   2.983  17.995  0.00  0.00    +0.000 A 
ATOM      7  C   UNL     1       1.727   2.159  18.447  0.00  0.00    +0.000 A 
ATOM      8  C   UNL     1       0.825   2.619  19.399  0.00  0.00    +0.000 A 
ATOM      9  C   UNL     1       0.937   3.908  19.927  0.00  0.00    +0.000 A 
ATOM     10  C   UNL     1       1.978   4.729  19.463  0.00  0.00    +0.000 A 
ENDROOT
BRANCH   4  11
ATOM     11  C   UNL     1       4.875   5.430  17.324  0.00  0.00    +0.000 C 
ATOM     12  C   UNL     1       5.920   4.598  17.231  0.00  0.00    +0.000 C 
ATOM     13  C   UNL     1       6.759   5.098  16.137  0.00  0.00    +0.000 C 
ATOM     14  O   UNL     1       7.806   4.604  15.770  0.00  0.00    +0.000 OA
ATOM     15  N   UNL     1       6.148   6.214  15.629  0.00  0.00    +0.000 N 
ATOM     16  C   UNL     1       4.922   6.520  16.300  0.00  0.00    +0.000 C 
ATOM     17  H   UNL     1       6.554   6.731  14.863  0.00  0.00    +0.000 HD
ENDBRANCH   4  11
TORSDOF 1
ENDMDL
MODEL 7
REMARK VINA RESULT:      -6.9      1.384      1.417
REMARK  Name = 
REMARK  2 active torsions:
REMARK  status: ('A' for Active; 'I' for Inactive)
REMARK    1  A    between atoms: C_1  and  N_2
REMARK    2  A    between atoms: C_4  and  C_5
REMARK                            x       y       z     vdW  Elec       q    Type
REMARK                         _______ _______ _______ _____ _____    ______ ____
ROOT
ATOM      1  C   UNL     1       2.043   7.563  19.698  0.00  0.00    +0.000 C 
ATOM      2  N   UNL     1       2.890   6.465  19.289  0.00  0.00    +0.000 N 
ATOM      3  C   UNL     1       3.800   6.517  18.264  0.00  0.00    +0.000 A 
ATOM      4  C   UNL     1       4.369   5.267  18.132  0.00  0.00    +0.000 A 
ATOM      5  C   UNL     1       3.807   4.433  19.153  0.00  0.00    +0.000 A 
ATOM      6  C   UNL     1       3.997   3.092  19.556  0.00  0.00    +0.000 A 
ATOM      7  C   UNL     1       3.254   2.566  20.618  0.00  0.00    +0.000 A 
ATOM      8  C   UNL     1       2.333   3.358  21.294  0.00  0.00    +0.000 A 
ATOM      9  C   UNL     1       2.133   4.693  20.931  0.00  0.00    +0.000 A 
ATOM     10  C   UNL     1       2.880   5.209  19.859  0.00  0.00    +0.000 A 
ENDROOT
BRANCH   4  11
ATOM     11  C   UNL     1       5.324   4.909  17.140  0.00  0.00    +0.000 C 
ATOM     12  C   UNL     1       5.096   4.512  15.881  0.00  0.00    +0.000 C 
ATOM     13  C   UNL     1       6.405   4.231  15.284  0.00  0.00    +0.000 C 
ATOM     14  O   UNL     1       6.594   3.833  14.152  0.00  0.00    +0.000 OA
ATOM     15  N   UNL     1       7.354   4.490  16.238  0.00  0.00    +0.000 N 
ATOM     16  C   UNL     1       6.783   4.946  17.468  0.00  0.00    +0.000 C 
ATOM     17  H   UNL     1       8.337   4.361  16.048  0.00  0.00    +0.000 HD
ENDBRANCH   4  11
TORSDOF 1
ENDMDL
MODEL 8
REMARK VINA RESULT:      -6.9      2.658      5.322
REMARK  Name = 
REMARK  2 active torsions:
REMARK  status: ('A' for Active; 'I' for Inactive)
REMARK    1  A    between atoms: C_1  and  N_2
REMARK    2  A    between atoms: C_4  and  C_5
REMARK                            x       y       z     vdW  Elec       q    Type
REMARK                         _______ _______ _______ _____ _____    ______ ____
ROOT
ATOM      1  C   UNL     1       7.749   5.695  19.302  0.00  0.00    +0.000 C 
ATOM      2  N   UNL     1       6.547   5.222  18.652  0.00  0.00    +0.000 N 
ATOM      3  C   UNL     1       5.370   4.937  19.297  0.00  0.00    +0.000 A 
ATOM      4  C   UNL     1       4.476   4.454  18.362  0.00  0.00    +0.000 A 
ATOM      5  C   UNL     1       5.131   4.490  17.088  0.00  0.00    +0.000 A 
ATOM      6  C   UNL     1       4.750   4.167  15.767  0.00  0.00    +0.000 A 
ATOM      7  C   UNL     1       5.664   4.308  14.718  0.00  0.00    +0.000 A 
ATOM      8  C   UNL     1       6.950   4.778  14.962  0.00  0.00    +0.000 A 
ATOM      9  C   UNL     1       7.353   5.122  16.255  0.00  0.00    +0.000 A 
ATOM     10  C   UNL     1       6.428   4.971  17.302  0.00  0.00    +0.000 A 
ENDROOT
BRANCH   4  11
ATOM     11  C   UNL     1       3.159   4.000  18.655  0.00  0.00    +0.000 C 
ATOM     12  C   UNL     1       2.510   2.957  18.122  0.00  0.00    +0.000 C 
ATOM     13  C   UNL     1       1.177   2.935  18.732  0.00  0.00    +0.000 C 
ATOM     14  O   UNL     1       0.300   2.134  18.480  0.00  0.00    +0.000 OA
ATOM     15  N   UNL     1       1.114   3.981  19.615  0.00  0.00    +0.000 N 
ATOM     16  C   UNL     1       2.332   4.729  19.665  0.00  0.00    +0.000 C 
ATOM     17  H   UNL     1       0.279   4.163  20.153  0.00  0.00    +0.000 HD
ENDBRANCH   4  11
TORSDOF 1
ENDMDL
MODEL 9
REMARK VINA RESULT:      -6.8      2.836      4.806
REMARK  Name = 
REMARK  2 active torsions:
REMARK  status: ('A' for Active; 'I' for Inactive)
REMARK    1  A    between atoms: C_1  and  N_2
REMARK    2  A    between atoms: C_4  and  C_5
REMARK                            x       y       z     vdW  Elec       q    Type
REMARK                         _______ _______ _______ _____ _____    ______ ____
ROOT
ATOM      1  C   UNL     1       5.961   4.493  16.656  0.00  0.00    +0.000 C 
ATOM      2  N   UNL     1       4.697   4.920  17.213  0.00  0.00    +0.000 N 
ATOM      3  C   UNL     1       4.349   6.225  17.455  0.00  0.00    +0.000 A 
ATOM      4  C   UNL     1       3.100   6.233  18.044  0.00  0.00    +0.000 A 
ATOM      5  C   UNL     1       2.657   4.872  18.121  0.00  0.00    +0.000 A 
ATOM      6  C   UNL     1       1.482   4.235  18.579  0.00  0.00    +0.000 A 
ATOM      7  C   UNL     1       1.371   2.842  18.524  0.00  0.00    +0.000 A 
ATOM      8  C   UNL     1       2.408   2.073  18.009  0.00  0.00    +0.000 A 
ATOM      9  C   UNL     1       3.577   2.673  17.533  0.00  0.00    +0.000 A 
ATOM     10  C   UNL     1       3.680   4.072  17.597  0.00  0.00    +0.000 A 
ENDROOT
BRANCH   4  11
ATOM     11  C   UNL     1       2.420   7.400  18.491  0.00  0.00    +0.000 C 
ATOM     12  C   UNL     1       2.079   8.480  17.776  0.00  0.00    +0.000 C 
ATOM     13  C   UNL     1       1.430   9.411  18.704  0.00  0.00    +0.000 C 
ATOM     14  O   UNL     1       0.999  10.509  18.415  0.00  0.00    +0.000 OA
ATOM     15  N   UNL     1       1.415   8.816  19.938  0.00  0.00    +0.000 N 
ATOM     16  C   UNL     1       2.009   7.514  19.925  0.00  0.00    +0.000 C 
ATOM     17  H   UNL     1       1.014   9.281  20.739  0.00  0.00    +0.000 HD
ENDBRANCH   4  11
TORSDOF 1
ENDMDL
