MODEL 1
REMARK VINA RESULT:      -8.4      0.000      0.000
REMARK  Name = 
REMARK  4 active torsions:
REMARK  status: ('A' for Active; 'I' for Inactive)
REMARK    1  A    between atoms: C_1  and  C_2
REMARK    2  A    between atoms: C_2  and  C_3
REMARK    3  A    between atoms: C_5  and  C_6
REMARK    4  A    between atoms: C_18  and  C_19
REMARK                            x       y       z     vdW  Elec       q    Type
REMARK                         _______ _______ _______ _____ _____    ______ ____
ROOT
ATOM      1  C   UNL     1       6.195   3.556  15.565  0.00  0.00    +0.000 C 
ATOM      2  C   UNL     1       6.610   5.005  15.307  0.00  0.00    +0.000 C 
ATOM      3  C   UNL     1       7.102   5.176  13.879  0.00  0.00    +0.000 C 
ATOM      4  O   UNL     1       7.636   5.421  16.213  0.00  0.00    +0.000 OA
ATOM      5  C   UNL     1       6.920   5.886  17.362  0.00  0.00    +0.000 C 
ATOM      6  C   UNL     1       5.583   6.375  16.820  0.00  0.00    +0.000 C 
ATOM      7  O   UNL     1       5.466   5.827  15.504  0.00  0.00    +0.000 OA
ENDROOT
BRANCH   6   8
ATOM      8  C   UNL     1       4.426   5.977  17.750  0.00  0.00    +0.000 C 
ATOM      9  O   UNL     1       4.330   4.837  18.210  0.00  0.00    +0.000 OA
ATOM     10  N   UNL     1       3.542   6.988  18.113  0.00  0.00    +0.000 N 
ATOM     11  C   UNL     1       2.565   6.682  19.170  0.00  0.00    +0.000 C 
ATOM     12  C   UNL     1       2.091   7.956  19.893  0.00  0.00    +0.000 C 
ATOM     13  N   UNL     1       1.552   8.855  18.867  0.00  0.00    +0.000 N 
ATOM     14  C   UNL     1       0.564   9.747  19.245  0.00  0.00    +0.000 A 
ATOM     15  C   UNL     1      -0.314  10.222  18.270  0.00  0.00    +0.000 A 
ATOM     16  C   UNL     1      -1.412  10.993  18.635  0.00  0.00    +0.000 A 
ATOM     17  C   UNL     1      -1.599  11.302  19.971  0.00  0.00    +0.000 A 
ATOM     18  C   UNL     1      -0.677  10.817  20.881  0.00  0.00    +0.000 A 
ATOM     19  N   UNL     1       0.382  10.044  20.548  0.00  0.00    +0.000 NA
ATOM     20  C   UNL     1       2.562   9.301  17.903  0.00  0.00    +0.000 C 
ATOM     21  C   UNL     1       3.145   8.067  17.189  0.00  0.00    +0.000 C 
ENDBRANCH   6   8
BRANCH   5  22
ATOM     22  C   UNL     1       7.584   7.022  18.143  0.00  0.00    +0.000 C 
ATOM     23  O   UNL     1       8.174   6.783  19.199  0.00  0.00    +0.000 OA
ATOM     24  N   UNL     1       7.474   8.252  17.534  0.00  0.00    +0.000 N 
ATOM     25  C   UNL     1       8.183   9.328  17.997  0.00  0.00    +0.000 A 
ATOM     26  N   UNL     1       9.199   9.318  18.815  0.00  0.00    +0.000 NA
ATOM     27  C   UNL     1       9.640  10.600  19.035  0.00  0.00    +0.000 A 
ATOM     28  C   UNL     1      10.727  10.973  19.853  0.00  0.00    +0.000 A 
ATOM     29  C   UNL     1      11.057  12.323  20.010  0.00  0.00    +0.000 A 
ATOM     30  C   UNL     1      10.308  13.304  19.367  0.00  0.00    +0.000 A 
ATOM     31  C   UNL     1       9.231  12.963  18.538  0.00  0.00    +0.000 A 
ATOM     32  C   UNL     1       8.921  11.602  18.374  0.00  0.00    +0.000 A 
ATOM     33  S   UNL     1       7.701  10.849  17.404  0.00  0.00    +0.000 S 
ATOM     34  H   UNL     1       6.783   8.390  16.809  0.00  0.00    +0.000 HD
ENDBRANCH   5  22
TORSDOF 2
ENDMDL
MODEL 2
REMARK VINA RESULT:      -7.9      4.523      7.848
REMARK  Name = 
REMARK  4 active torsions:
REMARK  status: ('A' for Active; 'I' for Inactive)
REMARK    1  A    between atoms: C_1  and  C_2
REMARK    2  A    between atoms: C_2  and  C_3
REMARK    3  A    between atoms: C_5  and  C_6
REMARK    4  A    between atoms: C_18  and  C_19
REMARK                            x       y       z     vdW  Elec       q    Type
REMARK                         _______ _______ _______ _____ _____    ______ ____
ROOT
ATOM      1  C   UNL     1      -2.575  12.423  20.829  0.00  0.00    +0.000 C 
ATOM      2  C   UNL     1      -1.429  12.362  21.841  0.00  0.00    +0.000 C 
ATOM      3  C   UNL     1      -1.966  12.154  23.248  0.00  0.00    +0.000 C 
ATOM      4  O   UNL     1      -0.642  13.556  21.807  0.00  0.00    +0.000 OA
ATOM      5  C   UNL     1       0.323  13.309  20.779  0.00  0.00    +0.000 C 
ATOM      6  C   UNL     1       0.509  11.798  20.769  0.00  0.00    +0.000 C 
ATOM      7  O   UNL     1      -0.600  11.259  21.495  0.00  0.00    +0.000 OA
ENDROOT
BRANCH   6   8
ATOM      8  C   UNL     1       0.615  11.260  19.334  0.00  0.00    +0.000 C 
ATOM      9  O   UNL     1       0.279  11.941  18.361  0.00  0.00    +0.000 OA
ATOM     10  N   UNL     1       1.188  10.001  19.180  0.00  0.00    +0.000 N 
ATOM     11  C   UNL     1       1.501   9.564  17.811  0.00  0.00    +0.000 C 
ATOM     12  C   UNL     1       2.626   8.514  17.791  0.00  0.00    +0.000 C 
ATOM     13  N   UNL     1       2.194   7.408  18.653  0.00  0.00    +0.000 N 
ATOM     14  C   UNL     1       2.677   6.143  18.370  0.00  0.00    +0.000 A 
ATOM     15  C   UNL     1       1.933   5.037  18.785  0.00  0.00    +0.000 A 
ATOM     16  C   UNL     1       2.302   3.757  18.385  0.00  0.00    +0.000 A 
ATOM     17  C   UNL     1       3.429   3.600  17.596  0.00  0.00    +0.000 A 
ATOM     18  C   UNL     1       4.131   4.738  17.242  0.00  0.00    +0.000 A 
ATOM     19  N   UNL     1       3.774   5.993  17.600  0.00  0.00    +0.000 NA
ATOM     20  C   UNL     1       2.043   7.798  20.058  0.00  0.00    +0.000 C 
ATOM     21  C   UNL     1       0.981   8.911  20.152  0.00  0.00    +0.000 C 
ENDBRANCH   6   8
BRANCH   5  22
ATOM     22  C   UNL     1       1.687  13.975  20.976  0.00  0.00    +0.000 C 
ATOM     23  O   UNL     1       2.077  14.258  22.111  0.00  0.00    +0.000 OA
ATOM     24  N   UNL     1       2.385  14.168  19.805  0.00  0.00    +0.000 N 
ATOM     25  C   UNL     1       3.695  14.563  19.829  0.00  0.00    +0.000 A 
ATOM     26  N   UNL     1       4.514  14.541  20.844  0.00  0.00    +0.000 NA
ATOM     27  C   UNL     1       5.747  15.014  20.465  0.00  0.00    +0.000 A 
ATOM     28  C   UNL     1       6.882  15.123  21.296  0.00  0.00    +0.000 A 
ATOM     29  C   UNL     1       8.076  15.646  20.788  0.00  0.00    +0.000 A 
ATOM     30  C   UNL     1       8.145  16.069  19.464  0.00  0.00    +0.000 A 
ATOM     31  C   UNL     1       7.037  15.962  18.612  0.00  0.00    +0.000 A 
ATOM     32  C   UNL     1       5.849  15.417  19.130  0.00  0.00    +0.000 A 
ATOM     33  S   UNL     1       4.335  15.110  18.349  0.00  0.00    +0.000 S 
ATOM     34  H   UNL     1       1.897  14.126  18.921  0.00  0.00    +0.000 HD
ENDBRANCH   5  22
TORSDOF 2
ENDMDL
MODEL 3
REMARK VINA RESULT:      -7.7      5.236     10.010
REMARK  Name = 
REMARK  4 active torsions:
REMARK  status: ('A' for Active; 'I' for Inactive)
REMARK    1  A    between atoms: C_1  and  C_2
REMARK    2  A    between atoms: C_2  and  C_3
REMARK    3  A    between atoms: C_5  and  C_6
REMARK    4  A    between atoms: C_18  and  C_19
REMARK                            x       y       z     vdW  Elec       q    Type
REMARK                         _______ _______ _______ _____ _____    ______ ____
ROOT
ATOM      1  C   UNL     1      -3.574  14.006  23.445  0.00  0.00    +0.000 C 
ATOM      2  C   UNL     1      -3.279  13.155  22.209  0.00  0.00    +0.000 C 
ATOM      3  C   UNL     1      -4.562  12.836  21.458  0.00  0.00    +0.000 C 
ATOM      4  O   UNL     1      -2.623  11.934  22.564  0.00  0.00    +0.000 OA
ATOM      5  C   UNL     1      -1.234  12.280  22.591  0.00  0.00    +0.000 C 
ATOM      6  C   UNL     1      -1.094  13.425  21.598  0.00  0.00    +0.000 C 
ATOM      7  O   UNL     1      -2.420  13.905  21.358  0.00  0.00    +0.000 OA
ENDROOT
BRANCH   6   8
ATOM      8  C   UNL     1      -0.142  14.509  22.129  0.00  0.00    +0.000 C 
ATOM      9  O   UNL     1      -0.479  15.280  23.030  0.00  0.00    +0.000 OA
ATOM     10  N   UNL     1       1.145  14.521  21.601  0.00  0.00    +0.000 N 
ATOM     11  C   UNL     1       2.132  15.399  22.249  0.00  0.00    +0.000 C 
ATOM     12  C   UNL     1       3.572  14.905  22.018  0.00  0.00    +0.000 C 
ATOM     13  N   UNL     1       3.764  14.812  20.567  0.00  0.00    +0.000 N 
ATOM     14  C   UNL     1       5.047  14.979  20.074  0.00  0.00    +0.000 A 
ATOM     15  C   UNL     1       5.203  15.412  18.757  0.00  0.00    +0.000 A 
ATOM     16  C   UNL     1       6.466  15.740  18.276  0.00  0.00    +0.000 A 
ATOM     17  C   UNL     1       7.559  15.603  19.114  0.00  0.00    +0.000 A 
ATOM     18  C   UNL     1       7.333  15.146  20.399  0.00  0.00    +0.000 A 
ATOM     19  N   UNL     1       6.110  14.846  20.893  0.00  0.00    +0.000 NA
ATOM     20  C   UNL     1       2.899  13.813  19.934  0.00  0.00    +0.000 C 
ATOM     21  C   UNL     1       1.429  14.197  20.190  0.00  0.00    +0.000 C 
ENDBRANCH   6   8
BRANCH   5  22
ATOM     22  C   UNL     1      -0.264  11.163  22.200  0.00  0.00    +0.000 C 
ATOM     23  O   UNL     1       0.197  10.414  23.064  0.00  0.00    +0.000 OA
ATOM     24  N   UNL     1      -0.021  11.088  20.847  0.00  0.00    +0.000 N 
ATOM     25  C   UNL     1       0.658  10.024  20.316  0.00  0.00    +0.000 A 
ATOM     26  N   UNL     1       0.909   8.877  20.884  0.00  0.00    +0.000 NA
ATOM     27  C   UNL     1       1.612   8.069  20.024  0.00  0.00    +0.000 A 
ATOM     28  C   UNL     1       2.045   6.753  20.292  0.00  0.00    +0.000 A 
ATOM     29  C   UNL     1       2.777   6.046  19.333  0.00  0.00    +0.000 A 
ATOM     30  C   UNL     1       3.088   6.641  18.114  0.00  0.00    +0.000 A 
ATOM     31  C   UNL     1       2.661   7.941  17.815  0.00  0.00    +0.000 A 
ATOM     32  C   UNL     1       1.911   8.635  18.780  0.00  0.00    +0.000 A 
ATOM     33  S   UNL     1       1.205  10.214  18.715  0.00  0.00    +0.000 S 
ATOM     34  H   UNL     1      -0.249  11.875  20.254  0.00  0.00    +0.000 HD
ENDBRANCH   5  22
TORSDOF 2
ENDMDL
MODEL 4
REMARK VINA RESULT:      -7.6      5.146      8.925
REMARK  Name = 
REMARK  4 active torsions:
REMARK  status: ('A' for Active; 'I' for Inactive)
REMARK    1  A    between atoms: C_1  and  C_2
REMARK    2  A    between atoms: C_2  and  C_3
REMARK    3  A    between atoms: C_5  and  C_6
REMARK    4  A    between atoms: C_18  and  C_19
REMARK                            x       y       z     vdW  Elec       q    Type
REMARK                         _______ _______ _______ _____ _____    ______ ____
ROOT
ATOM      1  C   UNL     1       1.523  14.721  18.800  0.00  0.00    +0.000 C 
ATOM      2  C   UNL     1       1.896  13.547  19.707  0.00  0.00    +0.000 C 
ATOM      3  C   UNL     1       2.930  13.973  20.736  0.00  0.00    +0.000 C 
ATOM      4  O   UNL     1       2.407  12.447  18.949  0.00  0.00    +0.000 OA
ATOM      5  C   UNL     1       1.239  11.712  18.568  0.00  0.00    +0.000 C 
ATOM      6  C   UNL     1       0.224  11.990  19.669  0.00  0.00    +0.000 C 
ATOM      7  O   UNL     1       0.717  13.127  20.383  0.00  0.00    +0.000 OA
ENDROOT
BRANCH   6   8
ATOM      8  C   UNL     1      -1.183  12.199  19.088  0.00  0.00    +0.000 C 
ATOM      9  O   UNL     1      -1.397  12.140  17.875  0.00  0.00    +0.000 OA
ATOM     10  N   UNL     1      -2.216  12.373  20.004  0.00  0.00    +0.000 N 
ATOM     11  C   UNL     1      -3.591  12.353  19.482  0.00  0.00    +0.000 C 
ATOM     12  C   UNL     1      -4.606  11.945  20.566  0.00  0.00    +0.000 C 
ATOM     13  N   UNL     1      -4.438  12.882  21.682  0.00  0.00    +0.000 N 
ATOM     14  C   UNL     1      -5.539  13.138  22.480  0.00  0.00    +0.000 A 
ATOM     15  C   UNL     1      -5.591  14.346  23.178  0.00  0.00    +0.000 A 
ATOM     16  C   UNL     1      -6.745  14.707  23.863  0.00  0.00    +0.000 A 
ATOM     17  C   UNL     1      -7.824  13.840  23.864  0.00  0.00    +0.000 A 
ATOM     18  C   UNL     1      -7.695  12.650  23.171  0.00  0.00    +0.000 A 
ATOM     19  N   UNL     1      -6.590  12.292  22.477  0.00  0.00    +0.000 NA
ATOM     20  C   UNL     1      -3.122  12.789  22.320  0.00  0.00    +0.000 C 
ATOM     21  C   UNL     1      -2.040  13.108  21.270  0.00  0.00    +0.000 C 
ENDBRANCH   6   8
BRANCH   5  22
ATOM     22  C   UNL     1       1.423  10.199  18.432  0.00  0.00    +0.000 C 
ATOM     23  O   UNL     1       1.639   9.700  17.326  0.00  0.00    +0.000 OA
ATOM     24  N   UNL     1       1.354   9.522  19.630  0.00  0.00    +0.000 N 
ATOM     25  C   UNL     1       1.697   8.199  19.705  0.00  0.00    +0.000 A 
ATOM     26  N   UNL     1       2.358   7.497  18.827  0.00  0.00    +0.000 NA
ATOM     27  C   UNL     1       2.507   6.206  19.271  0.00  0.00    +0.000 A 
ATOM     28  C   UNL     1       3.178   5.169  18.590  0.00  0.00    +0.000 A 
ATOM     29  C   UNL     1       3.236   3.887  19.146  0.00  0.00    +0.000 A 
ATOM     30  C   UNL     1       2.622   3.627  20.368  0.00  0.00    +0.000 A 
ATOM     31  C   UNL     1       1.958   4.640  21.072  0.00  0.00    +0.000 A 
ATOM     32  C   UNL     1       1.923   5.929  20.512  0.00  0.00    +0.000 A 
ATOM     33  S   UNL     1       1.235   7.391  21.131  0.00  0.00    +0.000 S 
ATOM     34  H   UNL     1       0.943   9.974  20.435  0.00  0.00    +0.000 HD
ENDBRANCH   5  22
TORSDOF 2
ENDMDL
MODEL 5
REMARK VINA RESULT:      -7.6      4.493      8.813
REMARK  Name = 
REMARK  4 active torsions:
REMARK  status: ('A' for Active; 'I' for Inactive)
REMARK    1  A    between atoms: C_1  and  C_2
REMARK    2  A    between atoms: C_2  and  C_3
REMARK    3  A    between atoms: C_5  and  C_6
REMARK    4  A    between atoms: C_18  and  C_19
REMARK                            x       y       z     vdW  Elec       q    Type
REMARK                         _______ _______ _______ _____ _____    ______ ____
ROOT
ATOM      1  C   UNL     1      -2.620  12.394  19.899  0.00  0.00    +0.000 C 
ATOM      2  C   UNL     1      -1.707  11.644  18.927  0.00  0.00    +0.000 C 
ATOM      3  C   UNL     1      -2.386  11.474  17.577  0.00  0.00    +0.000 C 
ATOM      4  O   UNL     1      -1.347  10.358  19.440  0.00  0.00    +0.000 OA
ATOM      5  C   UNL     1      -0.190  10.615  20.244  0.00  0.00    +0.000 C 
ATOM      6  C   UNL     1       0.464  11.837  19.612  0.00  0.00    +0.000 C 
ATOM      7  O   UNL     1      -0.525  12.416  18.755  0.00  0.00    +0.000 OA
ENDROOT
BRANCH   6   8
ATOM      8  C   UNL     1       0.982  12.808  20.685  0.00  0.00    +0.000 C 
ATOM      9  O   UNL     1       0.386  12.971  21.752  0.00  0.00    +0.000 OA
ATOM     10  N   UNL     1       2.202  13.427  20.428  0.00  0.00    +0.000 N 
ATOM     11  C   UNL     1       2.820  14.182  21.529  0.00  0.00    +0.000 C 
ATOM     12  C   UNL     1       4.347  14.287  21.361  0.00  0.00    +0.000 C 
ATOM     13  N   UNL     1       4.591  14.898  20.049  0.00  0.00    +0.000 N 
ATOM     14  C   UNL     1       5.752  15.631  19.886  0.00  0.00    +0.000 A 
ATOM     15  C   UNL     1       5.782  16.620  18.901  0.00  0.00    +0.000 A 
ATOM     16  C   UNL     1       6.871  17.482  18.810  0.00  0.00    +0.000 A 
ATOM     17  C   UNL     1       7.927  17.322  19.689  0.00  0.00    +0.000 A 
ATOM     18  C   UNL     1       7.841  16.306  20.624  0.00  0.00    +0.000 A 
ATOM     19  N   UNL     1       6.780  15.475  20.745  0.00  0.00    +0.000 NA
ATOM     20  C   UNL     1       4.127  14.068  18.932  0.00  0.00    +0.000 C 
ATOM     21  C   UNL     1       2.608  13.850  19.075  0.00  0.00    +0.000 C 
ENDBRANCH   6   8
BRANCH   5  22
ATOM     22  C   UNL     1       0.837   9.482  20.310  0.00  0.00    +0.000 C 
ATOM     23  O   UNL     1       1.091   8.943  21.389  0.00  0.00    +0.000 OA
ATOM     24  N   UNL     1       1.372   9.146  19.087  0.00  0.00    +0.000 N 
ATOM     25  C   UNL     1       2.147   8.027  18.947  0.00  0.00    +0.000 A 
ATOM     26  N   UNL     1       2.260   7.029  19.779  0.00  0.00    +0.000 NA
ATOM     27  C   UNL     1       3.132   6.093  19.277  0.00  0.00    +0.000 A 
ATOM     28  C   UNL     1       3.488   4.877  19.897  0.00  0.00    +0.000 A 
ATOM     29  C   UNL     1       4.410   4.021  19.286  0.00  0.00    +0.000 A 
ATOM     30  C   UNL     1       4.987   4.370  18.068  0.00  0.00    +0.000 A 
ATOM     31  C   UNL     1       4.643   5.566  17.423  0.00  0.00    +0.000 A 
ATOM     32  C   UNL     1       3.701   6.409  18.039  0.00  0.00    +0.000 A 
ATOM     33  S   UNL     1       3.035   7.912  17.499  0.00  0.00    +0.000 S 
ATOM     34  H   UNL     1       1.285   9.788  18.311  0.00  0.00    +0.000 HD
ENDBRANCH   5  22
TORSDOF 2
ENDMDL
MODEL 6
REMARK VINA RESULT:      -7.5      4.874      8.054
REMARK  Name = 
REMARK  4 active torsions:
REMARK  status: ('A' for Active; 'I' for Inactive)
REMARK    1  A    between atoms: C_1  and  C_2
REMARK    2  A    between atoms: C_2  and  C_3
REMARK    3  A    between atoms: C_5  and  C_6
REMARK    4  A    between atoms: C_18  and  C_19
REMARK                            x       y       z     vdW  Elec       q    Type
REMARK                         _______ _______ _______ _____ _____    ______ ____
ROOT
ATOM      1  C   UNL     1      -2.870  12.647  20.099  0.00  0.00    +0.000 C 
ATOM      2  C   UNL     1      -1.906  12.733  21.284  0.00  0.00    +0.000 C 
ATOM      3  C   UNL     1      -2.672  12.904  22.586  0.00  0.00    +0.000 C 
ATOM      4  O   UNL     1      -0.989  13.820  21.129  0.00  0.00    +0.000 OA
ATOM      5  C   UNL     1       0.086  13.263  20.365  0.00  0.00    +0.000 C 
ATOM      6  C   UNL     1       0.092  11.782  20.717  0.00  0.00    +0.000 C 
ATOM      7  O   UNL     1      -1.170  11.518  21.337  0.00  0.00    +0.000 OA
ENDROOT
BRANCH   6   8
ATOM      8  C   UNL     1       0.352  10.916  19.474  0.00  0.00    +0.000 C 
ATOM      9  O   UNL     1       0.153  11.343  18.335  0.00  0.00    +0.000 OA
ATOM     10  N   UNL     1       0.903   9.658  19.695  0.00  0.00    +0.000 N 
ATOM     11  C   UNL     1       1.363   8.905  18.518  0.00  0.00    +0.000 C 
ATOM     12  C   UNL     1       2.453   7.882  18.885  0.00  0.00    +0.000 C 
ATOM     13  N   UNL     1       1.890   7.014  19.926  0.00  0.00    +0.000 N 
ATOM     14  C   UNL     1       2.367   5.718  20.012  0.00  0.00    +0.000 A 
ATOM     15  C   UNL     1       1.549   4.744  20.585  0.00  0.00    +0.000 A 
ATOM     16  C   UNL     1       1.926   3.406  20.549  0.00  0.00    +0.000 A 
ATOM     17  C   UNL     1       3.133   3.065  19.963  0.00  0.00    +0.000 A 
ATOM     18  C   UNL     1       3.904   4.085  19.436  0.00  0.00    +0.000 A 
ATOM     19  N   UNL     1       3.543   5.389  19.439  0.00  0.00    +0.000 NA
ATOM     20  C   UNL     1       1.586   7.729  21.169  0.00  0.00    +0.000 C 
ATOM     21  C   UNL     1       0.552   8.831  20.866  0.00  0.00    +0.000 C 
ENDBRANCH   6   8
BRANCH   5  22
ATOM     22  C   UNL     1       1.473  13.846  20.648  0.00  0.00    +0.000 C 
ATOM     23  O   UNL     1       2.064  13.553  21.689  0.00  0.00    +0.000 OA
ATOM     24  N   UNL     1       1.951  14.653  19.640  0.00  0.00    +0.000 N 
ATOM     25  C   UNL     1       3.250  15.085  19.648  0.00  0.00    +0.000 A 
ATOM     26  N   UNL     1       4.238  14.622  20.364  0.00  0.00    +0.000 NA
ATOM     27  C   UNL     1       5.390  15.317  20.082  0.00  0.00    +0.000 A 
ATOM     28  C   UNL     1       6.657  15.084  20.657  0.00  0.00    +0.000 A 
ATOM     29  C   UNL     1       7.747  15.884  20.298  0.00  0.00    +0.000 A 
ATOM     30  C   UNL     1       7.584  16.917  19.379  0.00  0.00    +0.000 A 
ATOM     31  C   UNL     1       6.339  17.163  18.784  0.00  0.00    +0.000 A 
ATOM     32  C   UNL     1       5.256  16.341  19.139  0.00  0.00    +0.000 A 
ATOM     33  S   UNL     1       3.622  16.348  18.568  0.00  0.00    +0.000 S 
ATOM     34  H   UNL     1       1.312  15.021  18.949  0.00  0.00    +0.000 HD
ENDBRANCH   5  22
TORSDOF 2
ENDMDL
MODEL 7
REMARK VINA RESULT:      -7.2      5.312      8.522
REMARK  Name = 
REMARK  4 active torsions:
REMARK  status: ('A' for Active; 'I' for Inactive)
REMARK    1  A    between atoms: C_1  and  C_2
REMARK    2  A    between atoms: C_2  and  C_3
REMARK    3  A    between atoms: C_5  and  C_6
REMARK    4  A    between atoms: C_18  and  C_19
REMARK                            x       y       z     vdW  Elec       q    Type
REMARK                         _______ _______ _______ _____ _____    ______ ____
ROOT
ATOM      1  C   UNL     1       0.241  13.009  18.331  0.00  0.00    +0.000 C 
ATOM      2  C   UNL     1       1.495  12.355  18.914  0.00  0.00    +0.000 C 
ATOM      3  C   UNL     1       2.746  12.921  18.262  0.00  0.00    +0.000 C 
ATOM      4  O   UNL     1       1.470  10.935  18.736  0.00  0.00    +0.000 OA
ATOM      5  C   UNL     1       0.753  10.453  19.878  0.00  0.00    +0.000 C 
ATOM      6  C   UNL     1       1.017  11.481  20.970  0.00  0.00    +0.000 C 
ATOM      7  O   UNL     1       1.529  12.641  20.307  0.00  0.00    +0.000 OA
ENDROOT
BRANCH   6   8
ATOM      8  C   UNL     1      -0.252  11.761  21.790  0.00  0.00    +0.000 C 
ATOM      9  O   UNL     1      -0.223  11.837  23.021  0.00  0.00    +0.000 OA
ATOM     10  N   UNL     1      -1.417  12.008  21.071  0.00  0.00    +0.000 N 
ATOM     11  C   UNL     1      -2.585  12.493  21.822  0.00  0.00    +0.000 C 
ATOM     12  C   UNL     1      -3.553  13.283  20.923  0.00  0.00    +0.000 C 
ATOM     13  N   UNL     1      -3.923  12.399  19.813  0.00  0.00    +0.000 N 
ATOM     14  C   UNL     1      -5.160  12.589  19.222  0.00  0.00    +0.000 A 
ATOM     15  C   UNL     1      -5.757  11.511  18.566  0.00  0.00    +0.000 A 
ATOM     16  C   UNL     1      -7.062  11.615  18.098  0.00  0.00    +0.000 A 
ATOM     17  C   UNL     1      -7.742  12.809  18.268  0.00  0.00    +0.000 A 
ATOM     18  C   UNL     1      -7.080  13.843  18.906  0.00  0.00    +0.000 A 
ATOM     19  N   UNL     1      -5.821  13.752  19.391  0.00  0.00    +0.000 NA
ATOM     20  C   UNL     1      -2.788  12.046  18.955  0.00  0.00    +0.000 C 
ATOM     21  C   UNL     1      -1.732  11.315  19.807  0.00  0.00    +0.000 C 
ENDBRANCH   6   8
BRANCH   5  22
ATOM     22  C   UNL     1       1.168   9.071  20.387  0.00  0.00    +0.000 C 
ATOM     23  O   UNL     1       0.810   8.692  21.504  0.00  0.00    +0.000 OA
ATOM     24  N   UNL     1       1.912   8.347  19.483  0.00  0.00    +0.000 N 
ATOM     25  C   UNL     1       2.187   7.025  19.703  0.00  0.00    +0.000 A 
ATOM     26  N   UNL     1       1.612   6.225  20.559  0.00  0.00    +0.000 NA
ATOM     27  C   UNL     1       2.165   4.969  20.475  0.00  0.00    +0.000 A 
ATOM     28  C   UNL     1       1.786   3.846  21.240  0.00  0.00    +0.000 A 
ATOM     29  C   UNL     1       2.450   2.627  21.071  0.00  0.00    +0.000 A 
ATOM     30  C   UNL     1       3.493   2.520  20.156  0.00  0.00    +0.000 A 
ATOM     31  C   UNL     1       3.883   3.616  19.375  0.00  0.00    +0.000 A 
ATOM     32  C   UNL     1       3.196   4.831  19.540  0.00  0.00    +0.000 A 
ATOM     33  S   UNL     1       3.395   6.340  18.718  0.00  0.00    +0.000 S 
ATOM     34  H   UNL     1       2.351   8.821  18.705  0.00  0.00    +0.000 HD
ENDBRANCH   5  22
TORSDOF 2
ENDMDL
MODEL 8
REMARK VINA RESULT:      -7.2      4.788      9.422
REMARK  Name = 
REMARK  4 active torsions:
REMARK  status: ('A' for Active; 'I' for Inactive)
REMARK    1  A    between atoms: C_1  and  C_2
REMARK    2  A    between atoms: C_2  and  C_3
REMARK    3  A    between atoms: C_5  and  C_6
REMARK    4  A    between atoms: C_18  and  C_19
REMARK                            x       y       z     vdW  Elec       q    Type
REMARK                         _______ _______ _______ _____ _____    ______ ____
ROOT
ATOM      1  C   UNL     1      -2.563  13.565  21.281  0.00  0.00    +0.000 C 
ATOM      2  C   UNL     1      -1.918  12.744  20.162  0.00  0.00    +0.000 C 
ATOM      3  C   UNL     1      -2.862  12.620  18.977  0.00  0.00    +0.000 C 
ATOM      4  O   UNL     1      -1.557  11.437  20.619  0.00  0.00    +0.000 OA
ATOM      5  C   UNL     1      -0.248  11.611  21.173  0.00  0.00    +0.000 C 
ATOM      6  C   UNL     1       0.354  12.777  20.401  0.00  0.00    +0.000 C 
ATOM      7  O   UNL     1      -0.740  13.425  19.746  0.00  0.00    +0.000 OA
ENDROOT
BRANCH   6   8
ATOM      8  C   UNL     1       1.144  13.711  21.332  0.00  0.00    +0.000 C 
ATOM      9  O   UNL     1       0.713  14.035  22.441  0.00  0.00    +0.000 OA
ATOM     10  N   UNL     1       2.406  14.103  20.896  0.00  0.00    +0.000 N 
ATOM     11  C   UNL     1       3.264  14.809  21.860  0.00  0.00    +0.000 C 
ATOM     12  C   UNL     1       4.757  14.650  21.519  0.00  0.00    +0.000 C 
ATOM     13  N   UNL     1       4.934  15.132  20.144  0.00  0.00    +0.000 N 
ATOM     14  C   UNL     1       6.169  15.652  19.798  0.00  0.00    +0.000 A 
ATOM     15  C   UNL     1       6.236  16.561  18.742  0.00  0.00    +0.000 A 
ATOM     16  C   UNL     1       7.428  17.223  18.465  0.00  0.00    +0.000 A 
ATOM     17  C   UNL     1       8.544  16.943  19.234  0.00  0.00    +0.000 A 
ATOM     18  C   UNL     1       8.411  16.014  20.250  0.00  0.00    +0.000 A 
ATOM     19  N   UNL     1       7.255  15.378  20.550  0.00  0.00    +0.000 NA
ATOM     20  C   UNL     1       4.215  14.325  19.154  0.00  0.00    +0.000 C 
ATOM     21  C   UNL     1       2.709  14.371  19.478  0.00  0.00    +0.000 C 
ENDBRANCH   6   8
BRANCH   5  22
ATOM     22  C   UNL     1       0.686  10.404  21.058  0.00  0.00    +0.000 C 
ATOM     23  O   UNL     1       1.115   9.855  22.075  0.00  0.00    +0.000 OA
ATOM     24  N   UNL     1       0.937  10.019  19.760  0.00  0.00    +0.000 N 
ATOM     25  C   UNL     1       1.584   8.843  19.492  0.00  0.00    +0.000 A 
ATOM     26  N   UNL     1       1.792   7.846  20.307  0.00  0.00    +0.000 NA
ATOM     27  C   UNL     1       2.474   6.843  19.661  0.00  0.00    +0.000 A 
ATOM     28  C   UNL     1       2.860   5.609  20.225  0.00  0.00    +0.000 A 
ATOM     29  C   UNL     1       3.575   4.682  19.460  0.00  0.00    +0.000 A 
ATOM     30  C   UNL     1       3.916   4.977  18.144  0.00  0.00    +0.000 A 
ATOM     31  C   UNL     1       3.536   6.190  17.554  0.00  0.00    +0.000 A 
ATOM     32  C   UNL     1       2.802   7.106  18.327  0.00  0.00    +0.000 A 
ATOM     33  S   UNL     1       2.151   8.651  17.898  0.00  0.00    +0.000 S 
ATOM     34  H   UNL     1       0.741  10.660  19.002  0.00  0.00    +0.000 HD
ENDBRANCH   5  22
TORSDOF 2
ENDMDL
MODEL 9
REMARK VINA RESULT:      -7.0      5.474     10.910
REMARK  Name = 
REMARK  4 active torsions:
REMARK  status: ('A' for Active; 'I' for Inactive)
REMARK    1  A    between atoms: C_1  and  C_2
REMARK    2  A    between atoms: C_2  and  C_3
REMARK    3  A    between atoms: C_5  and  C_6
REMARK    4  A    between atoms: C_18  and  C_19
REMARK                            x       y       z     vdW  Elec       q    Type
REMARK                         _______ _______ _______ _____ _____    ______ ____
ROOT
ATOM      1  C   UNL     1       3.184  13.954  20.337  0.00  0.00    +0.000 C 
ATOM      2  C   UNL     1       1.993  14.041  19.381  0.00  0.00    +0.000 C 
ATOM      3  C   UNL     1       2.332  14.909  18.180  0.00  0.00    +0.000 C 
ATOM      4  O   UNL     1       0.839  14.573  20.038  0.00  0.00    +0.000 OA
ATOM      5  C   UNL     1       0.214  13.428  20.627  0.00  0.00    +0.000 C 
ATOM      6  C   UNL     1       0.602  12.262  19.727  0.00  0.00    +0.000 C 
ATOM      7  O   UNL     1       1.697  12.725  18.931  0.00  0.00    +0.000 OA
ENDROOT
BRANCH   6   8
ATOM      8  C   UNL     1       0.937  11.010  20.552  0.00  0.00    +0.000 C 
ATOM      9  O   UNL     1       0.770  10.976  21.774  0.00  0.00    +0.000 OA
ATOM     10  N   UNL     1       1.356   9.889  19.842  0.00  0.00    +0.000 N 
ATOM     11  C   UNL     1       1.467   8.623  20.583  0.00  0.00    +0.000 C 
ATOM     12  C   UNL     1       1.331   7.404  19.652  0.00  0.00    +0.000 C 
ATOM     13  N   UNL     1       2.358   7.544  18.613  0.00  0.00    +0.000 N 
ATOM     14  C   UNL     1       2.853   6.387  18.037  0.00  0.00    +0.000 A 
ATOM     15  C   UNL     1       4.128   6.419  17.470  0.00  0.00    +0.000 A 
ATOM     16  C   UNL     1       4.723   5.243  17.023  0.00  0.00    +0.000 A 
ATOM     17  C   UNL     1       4.019   4.056  17.125  0.00  0.00    +0.000 A 
ATOM     18  C   UNL     1       2.751   4.102  17.676  0.00  0.00    +0.000 A 
ATOM     19  N   UNL     1       2.166   5.231  18.139  0.00  0.00    +0.000 NA
ATOM     20  C   UNL     1       2.156   8.717  17.758  0.00  0.00    +0.000 C 
ATOM     21  C   UNL     1       2.200   9.983  18.636  0.00  0.00    +0.000 C 
ENDBRANCH   6   8
BRANCH   5  22
ATOM     22  C   UNL     1      -1.312  13.486  20.733  0.00  0.00    +0.000 C 
ATOM     23  O   UNL     1      -1.993  13.698  19.727  0.00  0.00    +0.000 OA
ATOM     24  N   UNL     1      -1.789  13.250  22.003  0.00  0.00    +0.000 N 
ATOM     25  C   UNL     1      -3.128  13.067  22.224  0.00  0.00    +0.000 A 
ATOM     26  N   UNL     1      -4.052  12.814  21.339  0.00  0.00    +0.000 NA
ATOM     27  C   UNL     1      -5.274  12.691  21.956  0.00  0.00    +0.000 A 
ATOM     28  C   UNL     1      -6.499  12.406  21.317  0.00  0.00    +0.000 A 
ATOM     29  C   UNL     1      -7.679  12.333  22.064  0.00  0.00    +0.000 A 
ATOM     30  C   UNL     1      -7.651  12.550  23.438  0.00  0.00    +0.000 A 
ATOM     31  C   UNL     1      -6.447  12.823  24.102  0.00  0.00    +0.000 A 
ATOM     32  C   UNL     1      -5.265  12.876  23.343  0.00  0.00    +0.000 A 
ATOM     33  S   UNL     1      -3.632  13.144  23.848  0.00  0.00    +0.000 S 
ATOM     34  H   UNL     1      -1.163  13.322  22.793  0.00  0.00    +0.000 HD
ENDBRANCH   5  22
TORSDOF 2
ENDMDL
