MODEL 1
REMARK VINA RESULT:      -8.3      0.000      0.000
REMARK  Name = 
REMARK  9 active torsions:
REMARK  status: ('A' for Active; 'I' for Inactive)
REMARK    1  A    between atoms: C_1  and  C_2
REMARK    2  A    between atoms: C_2  and  O_3
REMARK    3  A    between atoms: O_3  and  C_4
REMARK    4  A    between atoms: C_4  and  C_6
REMARK    5  A    between atoms: C_8  and  C_9
REMARK    6  A    between atoms: C_13  and  C_14
REMARK    7  A    between atoms: C_22  and  S_23
REMARK    8  A    between atoms: S_23  and  C_24
REMARK    9  A    between atoms: C_26  and  O_27
REMARK                            x       y       z     vdW  Elec       q    Type
REMARK                         _______ _______ _______ _____ _____    ______ ____
ROOT
ATOM      1  C   UNL     1       3.064   4.455  18.584  0.00  0.00    +0.000 A 
ATOM      2  C   UNL     1       2.435   5.603  19.042  0.00  0.00    +0.000 A 
ATOM      3  C   UNL     1       2.745   6.816  18.457  0.00  0.00    +0.000 A 
ATOM      4  N   UNL     1       3.690   6.908  17.486  0.00  0.00    +0.000 NA
ATOM      5  C   UNL     1       4.319   5.809  17.028  0.00  0.00    +0.000 A 
ATOM      6  N   UNL     1       5.237   5.978  16.065  0.00  0.00    +0.000 NA
ATOM      7  C   UNL     1       5.861   4.897  15.576  0.00  0.00    +0.000 A 
ATOM      8  N   UNL     1       5.618   3.647  15.968  0.00  0.00    +0.000 NA
ATOM      9  C   UNL     1       4.702   3.514  16.921  0.00  0.00    +0.000 A 
ATOM     10  C   UNL     1       4.011   4.551  17.541  0.00  0.00    +0.000 A 
ENDROOT
BRANCH   3  11
ATOM     11  C   UNL     1       2.093   8.056  18.939  0.00  0.00    +0.000 A 
ATOM     12  C   UNL     1       1.883   9.149  18.070  0.00  0.00    +0.000 A 
ATOM     13  C   UNL     1       1.116  10.253  18.443  0.00  0.00    +0.000 A 
ATOM     14  C   UNL     1       0.567  10.311  19.717  0.00  0.00    +0.000 A 
ATOM     15  C   UNL     1       0.809   9.281  20.638  0.00  0.00    +0.000 A 
ATOM     16  C   UNL     1       1.576   8.165  20.240  0.00  0.00    +0.000 A 
BRANCH  15  17
ATOM     17  C   UNL     1       0.239   9.352  22.034  0.00  0.00    +0.000 C 
ATOM     18  F   UNL     1      -0.785   8.478  22.246  0.00  0.00    +0.000 F 
ATOM     19  F   UNL     1       1.166   9.073  22.990  0.00  0.00    +0.000 F 
ATOM     20  F   UNL     1      -0.256  10.584  22.333  0.00  0.00    +0.000 F 
ENDBRANCH  15  17
ENDBRANCH   3  11
BRANCH   1  21
ATOM     21  C   UNL     1       2.719   3.192  19.282  0.00  0.00    +0.000 C 
ATOM     22  O   UNL     1       2.013   2.310  18.834  0.00  0.00    +0.000 OA
BRANCH  21  23
ATOM     23  O   UNL     1       3.354   3.191  20.485  0.00  0.00    +0.000 OA
BRANCH  23  25
ATOM     24  C   UNL     1       1.262   2.899  21.745  0.00  0.00    +0.000 C 
ATOM     25  C   UNL     1       2.706   2.477  21.548  0.00  0.00    +0.000 C 
ENDBRANCH  23  25
ENDBRANCH  21  23
ENDBRANCH   1  21
BRANCH   7  26
ATOM     26  S   UNL     1       7.107   5.027  14.316  0.00  0.00    +0.000 S 
ATOM     27  C   UNL     1       6.502   3.885  13.057  0.00  0.00    +0.000 C 
ENDBRANCH   7  26
BRANCH   9  28
ATOM     28  O   UNL     1       4.455   2.211  17.193  0.00  0.00    +0.000 OA
ATOM     29  H   UNL     1       3.589   2.270  17.642  0.00  0.00    +0.000 HD
ENDBRANCH   9  28
TORSDOF 7
ENDMDL
MODEL 2
REMARK VINA RESULT:      -8.0      0.942      1.411
REMARK  Name = 
REMARK  9 active torsions:
REMARK  status: ('A' for Active; 'I' for Inactive)
REMARK    1  A    between atoms: C_1  and  C_2
REMARK    2  A    between atoms: C_2  and  O_3
REMARK    3  A    between atoms: O_3  and  C_4
REMARK    4  A    between atoms: C_4  and  C_6
REMARK    5  A    between atoms: C_8  and  C_9
REMARK    6  A    between atoms: C_13  and  C_14
REMARK    7  A    between atoms: C_22  and  S_23
REMARK    8  A    between atoms: S_23  and  C_24
REMARK    9  A    between atoms: C_26  and  O_27
REMARK                            x       y       z     vdW  Elec       q    Type
REMARK                         _______ _______ _______ _____ _____    ______ ____
ROOT
ATOM      1  C   UNL     1       3.012   4.703  19.386  0.00  0.00    +0.000 A 
ATOM      2  C   UNL     1       2.350   5.854  19.786  0.00  0.00    +0.000 A 
ATOM      3  C   UNL     1       2.517   7.013  19.053  0.00  0.00    +0.000 A 
ATOM      4  N   UNL     1       3.356   7.056  17.987  0.00  0.00    +0.000 NA
ATOM      5  C   UNL     1       4.014   5.954  17.580  0.00  0.00    +0.000 A 
ATOM      6  N   UNL     1       4.822   6.074  16.517  0.00  0.00    +0.000 NA
ATOM      7  C   UNL     1       5.473   4.986  16.078  0.00  0.00    +0.000 A 
ATOM      8  N   UNL     1       5.356   3.773  16.618  0.00  0.00    +0.000 NA
ATOM      9  C   UNL     1       4.547   3.688  17.668  0.00  0.00    +0.000 A 
ATOM     10  C   UNL     1       3.847   4.743  18.247  0.00  0.00    +0.000 A 
ENDROOT
BRANCH   3  11
ATOM     11  C   UNL     1       1.828   8.256  19.472  0.00  0.00    +0.000 A 
ATOM     12  C   UNL     1       1.580   9.293  18.545  0.00  0.00    +0.000 A 
ATOM     13  C   UNL     1       0.780  10.391  18.863  0.00  0.00    +0.000 A 
ATOM     14  C   UNL     1       0.233  10.500  20.135  0.00  0.00    +0.000 A 
ATOM     15  C   UNL     1       0.511   9.530  21.108  0.00  0.00    +0.000 A 
ATOM     16  C   UNL     1       1.312   8.419  20.767  0.00  0.00    +0.000 A 
BRANCH  15  17
ATOM     17  C   UNL     1      -0.055   9.659  22.501  0.00  0.00    +0.000 C 
ATOM     18  F   UNL     1      -0.635  10.869  22.740  0.00  0.00    +0.000 F 
ATOM     19  F   UNL     1      -1.018   8.731  22.761  0.00  0.00    +0.000 F 
ATOM     20  F   UNL     1       0.891   9.504  23.467  0.00  0.00    +0.000 F 
ENDBRANCH  15  17
ENDBRANCH   3  11
BRANCH   1  21
ATOM     21  C   UNL     1       2.825   3.503  20.239  0.00  0.00    +0.000 C 
ATOM     22  O   UNL     1       3.718   2.804  20.677  0.00  0.00    +0.000 OA
BRANCH  21  23
ATOM     23  O   UNL     1       1.492   3.351  20.462  0.00  0.00    +0.000 OA
BRANCH  23  25
ATOM     24  C   UNL     1       1.114   1.774  18.613  0.00  0.00    +0.000 C 
ATOM     25  C   UNL     1       0.684   3.048  19.316  0.00  0.00    +0.000 C 
ENDBRANCH  23  25
ENDBRANCH  21  23
ENDBRANCH   1  21
BRANCH   7  26
ATOM     26  S   UNL     1       6.580   5.054  14.691  0.00  0.00    +0.000 S 
ATOM     27  C   UNL     1       5.897   3.799  13.590  0.00  0.00    +0.000 C 
ENDBRANCH   7  26
BRANCH   9  28
ATOM     28  O   UNL     1       4.420   2.410  18.094  0.00  0.00    +0.000 OA
ATOM     29  H   UNL     1       3.453   2.345  18.219  0.00  0.00    +0.000 HD
ENDBRANCH   9  28
TORSDOF 7
ENDMDL
MODEL 3
REMARK VINA RESULT:      -8.0      4.907      7.509
REMARK  Name = 
REMARK  9 active torsions:
REMARK  status: ('A' for Active; 'I' for Inactive)
REMARK    1  A    between atoms: C_1  and  C_2
REMARK    2  A    between atoms: C_2  and  O_3
REMARK    3  A    between atoms: O_3  and  C_4
REMARK    4  A    between atoms: C_4  and  C_6
REMARK    5  A    between atoms: C_8  and  C_9
REMARK    6  A    between atoms: C_13  and  C_14
REMARK    7  A    between atoms: C_22  and  S_23
REMARK    8  A    between atoms: S_23  and  C_24
REMARK    9  A    between atoms: C_26  and  O_27
REMARK                            x       y       z     vdW  Elec       q    Type
REMARK                         _______ _______ _______ _____ _____    ______ ____
ROOT
ATOM      1  C   UNL     1       4.099   3.875  18.555  0.00  0.00    +0.000 A 
ATOM      2  C   UNL     1       4.769   3.747  17.348  0.00  0.00    +0.000 A 
ATOM      3  C   UNL     1       4.817   4.829  16.490  0.00  0.00    +0.000 A 
ATOM      4  N   UNL     1       4.176   5.990  16.784  0.00  0.00    +0.000 NA
ATOM      5  C   UNL     1       3.515   6.138  17.947  0.00  0.00    +0.000 A 
ATOM      6  N   UNL     1       2.910   7.314  18.168  0.00  0.00    +0.000 NA
ATOM      7  C   UNL     1       2.263   7.496  19.329  0.00  0.00    +0.000 A 
ATOM      8  N   UNL     1       2.194   6.586  20.301  0.00  0.00    +0.000 NA
ATOM      9  C   UNL     1       2.804   5.433  20.050  0.00  0.00    +0.000 A 
ATOM     10  C   UNL     1       3.474   5.102  18.876  0.00  0.00    +0.000 A 
ENDROOT
BRANCH   3  11
ATOM     11  C   UNL     1       5.517   4.709  15.190  0.00  0.00    +0.000 A 
ATOM     12  C   UNL     1       6.864   5.111  15.053  0.00  0.00    +0.000 A 
ATOM     13  C   UNL     1       7.601   4.845  13.899  0.00  0.00    +0.000 A 
ATOM     14  C   UNL     1       6.995   4.199  12.829  0.00  0.00    +0.000 A 
ATOM     15  C   UNL     1       5.640   3.845  12.893  0.00  0.00    +0.000 A 
ATOM     16  C   UNL     1       4.912   4.110  14.073  0.00  0.00    +0.000 A 
BRANCH  15  17
ATOM     17  C   UNL     1       4.968   3.171  11.722  0.00  0.00    +0.000 C 
ATOM     18  F   UNL     1       5.532   1.974  11.391  0.00  0.00    +0.000 F 
ATOM     19  F   UNL     1       3.653   2.907  11.956  0.00  0.00    +0.000 F 
ATOM     20  F   UNL     1       5.008   3.925  10.591  0.00  0.00    +0.000 F 
ENDBRANCH  15  17
ENDBRANCH   3  11
BRANCH   1  21
ATOM     21  C   UNL     1       4.046   2.665  19.412  0.00  0.00    +0.000 C 
ATOM     22  O   UNL     1       4.721   2.475  20.405  0.00  0.00    +0.000 OA
BRANCH  21  23
ATOM     23  O   UNL     1       3.096   1.834  18.906  0.00  0.00    +0.000 OA
BRANCH  23  25
ATOM     24  C   UNL     1       0.738   2.515  18.741  0.00  0.00    +0.000 C 
ATOM     25  C   UNL     1       1.821   1.846  19.566  0.00  0.00    +0.000 C 
ENDBRANCH  23  25
ENDBRANCH  21  23
ENDBRANCH   1  21
BRANCH   7  26
ATOM     26  S   UNL     1       1.415   9.012  19.700  0.00  0.00    +0.000 S 
ATOM     27  C   UNL     1       1.222   9.755  18.067  0.00  0.00    +0.000 C 
ENDBRANCH   7  26
BRANCH   9  28
ATOM     28  O   UNL     1       2.760   4.606  21.121  0.00  0.00    +0.000 OA
ATOM     29  H   UNL     1       3.199   5.151  21.802  0.00  0.00    +0.000 HD
ENDBRANCH   9  28
TORSDOF 7
ENDMDL
MODEL 4
REMARK VINA RESULT:      -8.0      0.617      1.097
REMARK  Name = 
REMARK  9 active torsions:
REMARK  status: ('A' for Active; 'I' for Inactive)
REMARK    1  A    between atoms: C_1  and  C_2
REMARK    2  A    between atoms: C_2  and  O_3
REMARK    3  A    between atoms: O_3  and  C_4
REMARK    4  A    between atoms: C_4  and  C_6
REMARK    5  A    between atoms: C_8  and  C_9
REMARK    6  A    between atoms: C_13  and  C_14
REMARK    7  A    between atoms: C_22  and  S_23
REMARK    8  A    between atoms: S_23  and  C_24
REMARK    9  A    between atoms: C_26  and  O_27
REMARK                            x       y       z     vdW  Elec       q    Type
REMARK                         _______ _______ _______ _____ _____    ______ ____
ROOT
ATOM      1  C   UNL     1       2.663   4.565  18.828  0.00  0.00    +0.000 A 
ATOM      2  C   UNL     1       2.087   5.742  19.280  0.00  0.00    +0.000 A 
ATOM      3  C   UNL     1       2.494   6.943  18.730  0.00  0.00    +0.000 A 
ATOM      4  N   UNL     1       3.481   6.991  17.799  0.00  0.00    +0.000 NA
ATOM      5  C   UNL     1       4.060   5.863  17.347  0.00  0.00    +0.000 A 
ATOM      6  N   UNL     1       5.025   5.991  16.424  0.00  0.00    +0.000 NA
ATOM      7  C   UNL     1       5.603   4.881  15.941  0.00  0.00    +0.000 A 
ATOM      8  N   UNL     1       5.268   3.642  16.301  0.00  0.00    +0.000 NA
ATOM      9  C   UNL     1       4.308   3.550  17.215  0.00  0.00    +0.000 A 
ATOM     10  C   UNL     1       3.657   4.619  17.825  0.00  0.00    +0.000 A 
ENDROOT
BRANCH   3  11
ATOM     11  C   UNL     1       1.899   8.213  19.208  0.00  0.00    +0.000 A 
ATOM     12  C   UNL     1       1.716   9.302  18.329  0.00  0.00    +0.000 A 
ATOM     13  C   UNL     1       1.000  10.440  18.702  0.00  0.00    +0.000 A 
ATOM     14  C   UNL     1       0.475  10.534  19.984  0.00  0.00    +0.000 A 
ATOM     15  C   UNL     1       0.693   9.506  20.913  0.00  0.00    +0.000 A 
ATOM     16  C   UNL     1       1.410   8.357  20.517  0.00  0.00    +0.000 A 
BRANCH  15  17
ATOM     17  C   UNL     1       0.151   9.616  22.318  0.00  0.00    +0.000 C 
ATOM     18  F   UNL     1       1.085   9.364  23.279  0.00  0.00    +0.000 F 
ATOM     19  F   UNL     1      -0.336  10.857  22.593  0.00  0.00    +0.000 F 
ATOM     20  F   UNL     1      -0.869   8.747  22.554  0.00  0.00    +0.000 F 
ENDBRANCH  15  17
ENDBRANCH   3  11
BRANCH   1  21
ATOM     21  C   UNL     1       2.215   3.314  19.489  0.00  0.00    +0.000 C 
ATOM     22  O   UNL     1       1.594   2.418  18.953  0.00  0.00    +0.000 OA
BRANCH  21  23
ATOM     23  O   UNL     1       2.647   3.344  20.778  0.00  0.00    +0.000 OA
BRANCH  23  25
ATOM     24  C   UNL     1       4.667   1.946  20.667  0.00  0.00    +0.000 C 
ATOM     25  C   UNL     1       3.288   2.156  21.264  0.00  0.00    +0.000 C 
ENDBRANCH  23  25
ENDBRANCH  21  23
ENDBRANCH   1  21
BRANCH   7  26
ATOM     26  S   UNL     1       6.904   4.954  14.734  0.00  0.00    +0.000 S 
ATOM     27  C   UNL     1       6.294   3.851  13.443  0.00  0.00    +0.000 C 
ENDBRANCH   7  26
BRANCH   9  28
ATOM     28  O   UNL     1       3.972   2.261  17.454  0.00  0.00    +0.000 OA
ATOM     29  H   UNL     1       4.403   1.809  16.703  0.00  0.00    +0.000 HD
ENDBRANCH   9  28
TORSDOF 7
ENDMDL
MODEL 5
REMARK VINA RESULT:      -7.9      4.861      7.512
REMARK  Name = 
REMARK  9 active torsions:
REMARK  status: ('A' for Active; 'I' for Inactive)
REMARK    1  A    between atoms: C_1  and  C_2
REMARK    2  A    between atoms: C_2  and  O_3
REMARK    3  A    between atoms: O_3  and  C_4
REMARK    4  A    between atoms: C_4  and  C_6
REMARK    5  A    between atoms: C_8  and  C_9
REMARK    6  A    between atoms: C_13  and  C_14
REMARK    7  A    between atoms: C_22  and  S_23
REMARK    8  A    between atoms: S_23  and  C_24
REMARK    9  A    between atoms: C_26  and  O_27
REMARK                            x       y       z     vdW  Elec       q    Type
REMARK                         _______ _______ _______ _____ _____    ______ ____
ROOT
ATOM      1  C   UNL     1       4.029   4.016  18.916  0.00  0.00    +0.000 A 
ATOM      2  C   UNL     1       4.734   3.896  17.728  0.00  0.00    +0.000 A 
ATOM      3  C   UNL     1       4.761   4.965  16.853  0.00  0.00    +0.000 A 
ATOM      4  N   UNL     1       4.066   6.103  17.111  0.00  0.00    +0.000 NA
ATOM      5  C   UNL     1       3.370   6.243  18.255  0.00  0.00    +0.000 A 
ATOM      6  N   UNL     1       2.712   7.397  18.440  0.00  0.00    +0.000 NA
ATOM      7  C   UNL     1       2.028   7.570  19.581  0.00  0.00    +0.000 A 
ATOM      8  N   UNL     1       1.971   6.674  20.566  0.00  0.00    +0.000 NA
ATOM      9  C   UNL     1       2.634   5.543  20.351  0.00  0.00    +0.000 A 
ATOM     10  C   UNL     1       3.347   5.220  19.200  0.00  0.00    +0.000 A 
ENDROOT
BRANCH   3  11
ATOM     11  C   UNL     1       5.499   4.853  15.573  0.00  0.00    +0.000 A 
ATOM     12  C   UNL     1       6.840   5.283  15.471  0.00  0.00    +0.000 A 
ATOM     13  C   UNL     1       7.614   5.027  14.339  0.00  0.00    +0.000 A 
ATOM     14  C   UNL     1       7.052   4.362  13.257  0.00  0.00    +0.000 A 
ATOM     15  C   UNL     1       5.703   3.979  13.287  0.00  0.00    +0.000 A 
ATOM     16  C   UNL     1       4.938   4.234  14.444  0.00  0.00    +0.000 A 
BRANCH  15  17
ATOM     17  C   UNL     1       5.079   3.283  12.102  0.00  0.00    +0.000 C 
ATOM     18  F   UNL     1       5.291   3.930  10.921  0.00  0.00    +0.000 F 
ATOM     19  F   UNL     1       5.561   2.022  11.923  0.00  0.00    +0.000 F 
ATOM     20  F   UNL     1       3.729   3.159  12.220  0.00  0.00    +0.000 F 
ENDBRANCH  15  17
ENDBRANCH   3  11
BRANCH   1  21
ATOM     21  C   UNL     1       4.003   2.819  19.792  0.00  0.00    +0.000 C 
ATOM     22  O   UNL     1       4.976   2.294  20.297  0.00  0.00    +0.000 OA
BRANCH  21  23
ATOM     23  O   UNL     1       2.706   2.440  19.947  0.00  0.00    +0.000 OA
BRANCH  23  25
ATOM     24  C   UNL     1       0.632   2.416  18.625  0.00  0.00    +0.000 C 
ATOM     25  C   UNL     1       2.053   1.909  18.785  0.00  0.00    +0.000 C 
ENDBRANCH  23  25
ENDBRANCH  21  23
ENDBRANCH   1  21
BRANCH   7  26
ATOM     26  S   UNL     1       1.111   9.056  19.904  0.00  0.00    +0.000 S 
ATOM     27  C   UNL     1       1.196   9.179  21.702  0.00  0.00    +0.000 C 
ENDBRANCH   7  26
BRANCH   9  28
ATOM     28  O   UNL     1       2.595   4.732  21.434  0.00  0.00    +0.000 OA
ATOM     29  H   UNL     1       1.681   4.874  21.747  0.00  0.00    +0.000 HD
ENDBRANCH   9  28
TORSDOF 7
ENDMDL
MODEL 6
REMARK VINA RESULT:      -7.8      1.593      2.119
REMARK  Name = 
REMARK  9 active torsions:
REMARK  status: ('A' for Active; 'I' for Inactive)
REMARK    1  A    between atoms: C_1  and  C_2
REMARK    2  A    between atoms: C_2  and  O_3
REMARK    3  A    between atoms: O_3  and  C_4
REMARK    4  A    between atoms: C_4  and  C_6
REMARK    5  A    between atoms: C_8  and  C_9
REMARK    6  A    between atoms: C_13  and  C_14
REMARK    7  A    between atoms: C_22  and  S_23
REMARK    8  A    between atoms: S_23  and  C_24
REMARK    9  A    between atoms: C_26  and  O_27
REMARK                            x       y       z     vdW  Elec       q    Type
REMARK                         _______ _______ _______ _____ _____    ______ ____
ROOT
ATOM      1  C   UNL     1       2.718   4.551  20.453  0.00  0.00    +0.000 A 
ATOM      2  C   UNL     1       1.987   5.715  20.634  0.00  0.00    +0.000 A 
ATOM      3  C   UNL     1       2.345   6.849  19.931  0.00  0.00    +0.000 A 
ATOM      4  N   UNL     1       3.428   6.856  19.112  0.00  0.00    +0.000 NA
ATOM      5  C   UNL     1       4.158   5.740  18.922  0.00  0.00    +0.000 A 
ATOM      6  N   UNL     1       5.211   5.824  18.095  0.00  0.00    +0.000 NA
ATOM      7  C   UNL     1       5.941   4.722  17.872  0.00  0.00    +0.000 A 
ATOM      8  N   UNL     1       5.680   3.527  18.403  0.00  0.00    +0.000 NA
ATOM      9  C   UNL     1       4.630   3.478  19.215  0.00  0.00    +0.000 A 
ATOM     10  C   UNL     1       3.815   4.552  19.563  0.00  0.00    +0.000 A 
ENDROOT
BRANCH   3  11
ATOM     11  C   UNL     1       1.584   8.106  20.121  0.00  0.00    +0.000 A 
ATOM     12  C   UNL     1       1.239   8.916  19.017  0.00  0.00    +0.000 A 
ATOM     13  C   UNL     1       0.374  10.004  19.141  0.00  0.00    +0.000 A 
ATOM     14  C   UNL     1      -0.142  10.335  20.387  0.00  0.00    +0.000 A 
ATOM     15  C   UNL     1       0.230   9.601  21.523  0.00  0.00    +0.000 A 
ATOM     16  C   UNL     1       1.096   8.496  21.378  0.00  0.00    +0.000 A 
BRANCH  15  17
ATOM     17  C   UNL     1      -0.304   9.974  22.884  0.00  0.00    +0.000 C 
ATOM     18  F   UNL     1       0.484   9.545  23.911  0.00  0.00    +0.000 F 
ATOM     19  F   UNL     1      -0.421  11.321  23.048  0.00  0.00    +0.000 F 
ATOM     20  F   UNL     1      -1.539   9.455  23.122  0.00  0.00    +0.000 F 
ENDBRANCH  15  17
ENDBRANCH   3  11
BRANCH   1  21
ATOM     21  C   UNL     1       2.310   3.381  21.269  0.00  0.00    +0.000 C 
ATOM     22  O   UNL     1       2.384   3.306  22.479  0.00  0.00    +0.000 OA
BRANCH  21  23
ATOM     23  O   UNL     1       1.817   2.434  20.426  0.00  0.00    +0.000 OA
BRANCH  23  25
ATOM     24  C   UNL     1       0.990   2.631  18.118  0.00  0.00    +0.000 C 
ATOM     25  C   UNL     1       0.714   2.829  19.597  0.00  0.00    +0.000 C 
ENDBRANCH  23  25
ENDBRANCH  21  23
ENDBRANCH   1  21
BRANCH   7  26
ATOM     26  S   UNL     1       7.365   4.743  16.810  0.00  0.00    +0.000 S 
ATOM     27  C   UNL     1       6.632   4.517  15.177  0.00  0.00    +0.000 C 
ENDBRANCH   7  26
BRANCH   9  28
ATOM     28  O   UNL     1       4.386   2.215  19.636  0.00  0.00    +0.000 OA
ATOM     29  H   UNL     1       5.283   1.922  19.890  0.00  0.00    +0.000 HD
ENDBRANCH   9  28
TORSDOF 7
ENDMDL
MODEL 7
REMARK VINA RESULT:      -7.6      2.313      2.966
REMARK  Name = 
REMARK  9 active torsions:
REMARK  status: ('A' for Active; 'I' for Inactive)
REMARK    1  A    between atoms: C_1  and  C_2
REMARK    2  A    between atoms: C_2  and  O_3
REMARK    3  A    between atoms: O_3  and  C_4
REMARK    4  A    between atoms: C_4  and  C_6
REMARK    5  A    between atoms: C_8  and  C_9
REMARK    6  A    between atoms: C_13  and  C_14
REMARK    7  A    between atoms: C_22  and  S_23
REMARK    8  A    between atoms: S_23  and  C_24
REMARK    9  A    between atoms: C_26  and  O_27
REMARK                            x       y       z     vdW  Elec       q    Type
REMARK                         _______ _______ _______ _____ _____    ______ ____
ROOT
ATOM      1  C   UNL     1       2.453   4.464  20.579  0.00  0.00    +0.000 A 
ATOM      2  C   UNL     1       1.702   5.612  20.779  0.00  0.00    +0.000 A 
ATOM      3  C   UNL     1       2.099   6.787  20.170  0.00  0.00    +0.000 A 
ATOM      4  N   UNL     1       3.236   6.847  19.430  0.00  0.00    +0.000 NA
ATOM      5  C   UNL     1       3.986   5.747  19.225  0.00  0.00    +0.000 A 
ATOM      6  N   UNL     1       5.092   5.884  18.479  0.00  0.00    +0.000 NA
ATOM      7  C   UNL     1       5.844   4.800  18.242  0.00  0.00    +0.000 A 
ATOM      8  N   UNL     1       5.557   3.575  18.682  0.00  0.00    +0.000 NA
ATOM      9  C   UNL     1       4.454   3.474  19.415  0.00  0.00    +0.000 A 
ATOM     10  C   UNL     1       3.609   4.522  19.769  0.00  0.00    +0.000 A 
ENDROOT
BRANCH   3  11
ATOM     11  C   UNL     1       1.317   8.028  20.381  0.00  0.00    +0.000 A 
ATOM     12  C   UNL     1       0.465   8.165  21.498  0.00  0.00    +0.000 A 
ATOM     13  C   UNL     1      -0.142   9.380  21.819  0.00  0.00    +0.000 A 
ATOM     14  C   UNL     1       0.060  10.487  21.005  0.00  0.00    +0.000 A 
ATOM     15  C   UNL     1       0.842  10.378  19.846  0.00  0.00    +0.000 A 
ATOM     16  C   UNL     1       1.458   9.145  19.542  0.00  0.00    +0.000 A 
BRANCH  15  17
ATOM     17  C   UNL     1       1.040  11.569  18.941  0.00  0.00    +0.000 C 
ATOM     18  F   UNL     1      -0.087  11.924  18.259  0.00  0.00    +0.000 F 
ATOM     19  F   UNL     1       1.425  12.683  19.622  0.00  0.00    +0.000 F 
ATOM     20  F   UNL     1       1.994  11.354  17.995  0.00  0.00    +0.000 F 
ENDBRANCH  15  17
ENDBRANCH   3  11
BRANCH   1  21
ATOM     21  C   UNL     1       1.999   3.246  21.294  0.00  0.00    +0.000 C 
ATOM     22  O   UNL     1       2.612   2.675  22.175  0.00  0.00    +0.000 OA
BRANCH  21  23
ATOM     23  O   UNL     1       0.774   2.908  20.809  0.00  0.00    +0.000 OA
BRANCH  23  25
ATOM     24  C   UNL     1       1.173   1.763  18.669  0.00  0.00    +0.000 C 
ATOM     25  C   UNL     1       0.609   2.977  19.386  0.00  0.00    +0.000 C 
ENDBRANCH  23  25
ENDBRANCH  21  23
ENDBRANCH   1  21
BRANCH   7  26
ATOM     26  S   UNL     1       7.338   4.889  17.284  0.00  0.00    +0.000 S 
ATOM     27  C   UNL     1       6.753   4.510  15.621  0.00  0.00    +0.000 C 
ENDBRANCH   7  26
BRANCH   9  28
ATOM     28  O   UNL     1       4.192   2.187  19.743  0.00  0.00    +0.000 OA
ATOM     29  H   UNL     1       3.447   1.984  19.144  0.00  0.00    +0.000 HD
ENDBRANCH   9  28
TORSDOF 7
ENDMDL
MODEL 8
REMARK VINA RESULT:      -7.6      1.211      1.657
REMARK  Name = 
REMARK  9 active torsions:
REMARK  status: ('A' for Active; 'I' for Inactive)
REMARK    1  A    between atoms: C_1  and  C_2
REMARK    2  A    between atoms: C_2  and  O_3
REMARK    3  A    between atoms: O_3  and  C_4
REMARK    4  A    between atoms: C_4  and  C_6
REMARK    5  A    between atoms: C_8  and  C_9
REMARK    6  A    between atoms: C_13  and  C_14
REMARK    7  A    between atoms: C_22  and  S_23
REMARK    8  A    between atoms: S_23  and  C_24
REMARK    9  A    between atoms: C_26  and  O_27
REMARK                            x       y       z     vdW  Elec       q    Type
REMARK                         _______ _______ _______ _____ _____    ______ ____
ROOT
ATOM      1  C   UNL     1       2.859   4.470  19.817  0.00  0.00    +0.000 A 
ATOM      2  C   UNL     1       2.281   5.672  20.199  0.00  0.00    +0.000 A 
ATOM      3  C   UNL     1       2.409   6.771  19.372  0.00  0.00    +0.000 A 
ATOM      4  N   UNL     1       3.132   6.707  18.224  0.00  0.00    +0.000 NA
ATOM      5  C   UNL     1       3.707   5.554  17.833  0.00  0.00    +0.000 A 
ATOM      6  N   UNL     1       4.402   5.568  16.686  0.00  0.00    +0.000 NA
ATOM      7  C   UNL     1       4.966   4.428  16.263  0.00  0.00    +0.000 A 
ATOM      8  N   UNL     1       4.867   3.260  16.897  0.00  0.00    +0.000 NA
ATOM      9  C   UNL     1       4.170   3.280  18.028  0.00  0.00    +0.000 A 
ATOM     10  C   UNL     1       3.570   4.399  18.598  0.00  0.00    +0.000 A 
ENDROOT
BRANCH   3  11
ATOM     11  C   UNL     1       1.809   8.066  19.768  0.00  0.00    +0.000 A 
ATOM     12  C   UNL     1       1.644   9.105  18.826  0.00  0.00    +0.000 A 
ATOM     13  C   UNL     1       0.924  10.263  19.122  0.00  0.00    +0.000 A 
ATOM     14  C   UNL     1       0.378  10.429  20.389  0.00  0.00    +0.000 A 
ATOM     15  C   UNL     1       0.578   9.455  21.377  0.00  0.00    +0.000 A 
ATOM     16  C   UNL     1       1.299   8.284  21.058  0.00  0.00    +0.000 A 
BRANCH  15  17
ATOM     17  C   UNL     1       0.014   9.644  22.764  0.00  0.00    +0.000 C 
ATOM     18  F   UNL     1       0.912   9.379  23.755  0.00  0.00    +0.000 F 
ATOM     19  F   UNL     1      -0.413  10.918  22.984  0.00  0.00    +0.000 F 
ATOM     20  F   UNL     1      -1.056   8.839  23.007  0.00  0.00    +0.000 F 
ENDBRANCH  15  17
ENDBRANCH   3  11
BRANCH   1  21
ATOM     21  C   UNL     1       2.723   3.340  20.769  0.00  0.00    +0.000 C 
ATOM     22  O   UNL     1       3.636   2.822  21.382  0.00  0.00    +0.000 OA
BRANCH  21  23
ATOM     23  O   UNL     1       1.405   3.016  20.850  0.00  0.00    +0.000 OA
BRANCH  23  25
ATOM     24  C   UNL     1       0.483   2.518  18.624  0.00  0.00    +0.000 C 
ATOM     25  C   UNL     1       0.946   1.983  19.967  0.00  0.00    +0.000 C 
ENDBRANCH  23  25
ENDBRANCH  21  23
ENDBRANCH   1  21
BRANCH   7  26
ATOM     26  S   UNL     1       5.923   4.356  14.768  0.00  0.00    +0.000 S 
ATOM     27  C   UNL     1       7.506   5.047  15.289  0.00  0.00    +0.000 C 
ENDBRANCH   7  26
BRANCH   9  28
ATOM     28  O   UNL     1       4.046   2.040  18.556  0.00  0.00    +0.000 OA
ATOM     29  H   UNL     1       4.610   2.112  19.350  0.00  0.00    +0.000 HD
ENDBRANCH   9  28
TORSDOF 7
ENDMDL
MODEL 9
REMARK VINA RESULT:      -7.5      3.294      5.020
REMARK  Name = 
REMARK  9 active torsions:
REMARK  status: ('A' for Active; 'I' for Inactive)
REMARK    1  A    between atoms: C_1  and  C_2
REMARK    2  A    between atoms: C_2  and  O_3
REMARK    3  A    between atoms: O_3  and  C_4
REMARK    4  A    between atoms: C_4  and  C_6
REMARK    5  A    between atoms: C_8  and  C_9
REMARK    6  A    between atoms: C_13  and  C_14
REMARK    7  A    between atoms: C_22  and  S_23
REMARK    8  A    between atoms: S_23  and  C_24
REMARK    9  A    between atoms: C_26  and  O_27
REMARK                            x       y       z     vdW  Elec       q    Type
REMARK                         _______ _______ _______ _____ _____    ______ ____
ROOT
ATOM      1  C   UNL     1       4.351   6.594  17.267  0.00  0.00    +0.000 A 
ATOM      2  C   UNL     1       3.607   7.764  17.259  0.00  0.00    +0.000 A 
ATOM      3  C   UNL     1       2.604   7.927  18.196  0.00  0.00    +0.000 A 
ATOM      4  N   UNL     1       2.303   6.943  19.083  0.00  0.00    +0.000 NA
ATOM      5  C   UNL     1       3.008   5.796  19.108  0.00  0.00    +0.000 A 
ATOM      6  N   UNL     1       2.655   4.873  20.015  0.00  0.00    +0.000 NA
ATOM      7  C   UNL     1       3.354   3.731  20.075  0.00  0.00    +0.000 A 
ATOM      8  N   UNL     1       4.404   3.451  19.302  0.00  0.00    +0.000 NA
ATOM      9  C   UNL     1       4.729   4.387  18.416  0.00  0.00    +0.000 A 
ATOM     10  C   UNL     1       4.064   5.594  18.223  0.00  0.00    +0.000 A 
ENDROOT
BRANCH   3  11
ATOM     11  C   UNL     1       1.789   9.164  18.197  0.00  0.00    +0.000 A 
ATOM     12  C   UNL     1       0.380   9.102  18.136  0.00  0.00    +0.000 A 
ATOM     13  C   UNL     1      -0.418  10.233  18.316  0.00  0.00    +0.000 A 
ATOM     14  C   UNL     1       0.179  11.469  18.526  0.00  0.00    +0.000 A 
ATOM     15  C   UNL     1       1.576  11.589  18.524  0.00  0.00    +0.000 A 
ATOM     16  C   UNL     1       2.368  10.434  18.352  0.00  0.00    +0.000 A 
BRANCH  15  17
ATOM     17  C   UNL     1       2.229  12.935  18.721  0.00  0.00    +0.000 C 
ATOM     18  F   UNL     1       1.431  13.982  18.365  0.00  0.00    +0.000 F 
ATOM     19  F   UNL     1       2.577  13.162  20.018  0.00  0.00    +0.000 F 
ATOM     20  F   UNL     1       3.370  13.074  17.993  0.00  0.00    +0.000 F 
ENDBRANCH  15  17
ENDBRANCH   3  11
BRANCH   1  21
ATOM     21  C   UNL     1       5.383   6.462  16.209  0.00  0.00    +0.000 C 
ATOM     22  O   UNL     1       5.356   5.662  15.294  0.00  0.00    +0.000 OA
BRANCH  21  23
ATOM     23  O   UNL     1       6.335   7.407  16.432  0.00  0.00    +0.000 OA
BRANCH  23  25
ATOM     24  C   UNL     1       8.073   8.330  17.908  0.00  0.00    +0.000 C 
ATOM     25  C   UNL     1       7.313   7.103  17.437  0.00  0.00    +0.000 C 
ENDBRANCH  23  25
ENDBRANCH  21  23
ENDBRANCH   1  21
BRANCH   7  26
ATOM     26  S   UNL     1       2.945   2.443  21.228  0.00  0.00    +0.000 S 
ATOM     27  C   UNL     1       1.219   2.801  21.609  0.00  0.00    +0.000 C 
ENDBRANCH   7  26
BRANCH   9  28
ATOM     28  O   UNL     1       5.854   4.059  17.739  0.00  0.00    +0.000 OA
ATOM     29  H   UNL     1       6.095   3.214  18.165  0.00  0.00    +0.000 HD
ENDBRANCH   9  28
TORSDOF 7
ENDMDL
