MODEL 1
REMARK VINA RESULT:      -6.3      0.000      0.000
REMARK  Name = 
REMARK  7 active torsions:
REMARK  status: ('A' for Active; 'I' for Inactive)
REMARK    1  A    between atoms: C_1  and  C_2
REMARK    2  A    between atoms: C_2  and  C_4
REMARK    3  A    between atoms: C_5  and  C_6
REMARK    4  A    between atoms: C_13  and  C_14
REMARK    5  A    between atoms: N_22  and  C_23
REMARK    6  A    between atoms: C_23  and  C_24
REMARK    7  A    between atoms: C_24  and  N_25
REMARK                            x       y       z     vdW  Elec       q    Type
REMARK                         _______ _______ _______ _____ _____    ______ ____
ROOT
ATOM      1  C   UNL     1      -3.543  12.819  21.107  0.00  0.00    +0.000 A 
ATOM      2  C   UNL     1      -3.109  12.283  19.939  0.00  0.00    +0.000 A 
ATOM      3  C   UNL     1      -4.167  11.696  19.030  0.00  0.00    +0.000 A 
ATOM      4  N   UNL     1      -5.434  11.689  19.321  0.00  0.00    +0.000 NA
ATOM      5  N   UNL     1      -5.845  12.206  20.517  0.00  0.00    +0.000 N 
ATOM      6  C   UNL     1      -4.984  12.714  21.472  0.00  0.00    +0.000 A 
ATOM      7  O   UNL     1      -5.378  13.088  22.573  0.00  0.00    +0.000 OA
ENDROOT
BRANCH   2   8
ATOM      8  C   UNL     1      -1.677  12.324  19.576  0.00  0.00    +0.000 A 
ATOM      9  C   UNL     1      -1.178  13.399  18.819  0.00  0.00    +0.000 A 
ATOM     10  C   UNL     1       0.172  13.447  18.464  0.00  0.00    +0.000 A 
ATOM     11  C   UNL     1       1.016  12.396  18.815  0.00  0.00    +0.000 A 
ATOM     12 CL   UNL     1       2.669  12.437  18.342  0.00  0.00    +0.000 Cl
ATOM     13  C   UNL     1       0.527  11.309  19.539  0.00  0.00    +0.000 A 
ATOM     14  C   UNL     1      -0.814  11.279  19.934  0.00  0.00    +0.000 A 
ENDBRANCH   2   8
BRANCH   3  15
ATOM     15  C   UNL     1      -3.797  11.124  17.678  0.00  0.00    +0.000 A 
ATOM     16  C   UNL     1      -2.929  10.040  17.503  0.00  0.00    +0.000 A 
ATOM     17  C   UNL     1      -2.559   9.600  16.228  0.00  0.00    +0.000 A 
ATOM     18  C   UNL     1      -3.129  10.183  15.104  0.00  0.00    +0.000 A 
ATOM     19 CL   UNL     1      -2.687   9.626  13.539  0.00  0.00    +0.000 Cl
ATOM     20  C   UNL     1      -4.069  11.199  15.251  0.00  0.00    +0.000 A 
ATOM     21  C   UNL     1      -4.396  11.672  16.530  0.00  0.00    +0.000 A 
ENDBRANCH   3  15
BRANCH   1  23
ATOM     22  C   UNL     1      -1.911  12.781  23.150  0.00  0.00    +0.000 C 
ATOM     23  C   UNL     1      -2.613  13.541  22.055  0.00  0.00    +0.000 C 
ATOM     24  O   UNL     1      -2.428  14.756  21.974  0.00  0.00    +0.000 OA
ENDBRANCH   1  23
BRANCH   5  25
ATOM     25  C   UNL     1      -7.268  12.046  20.844  0.00  0.00    +0.000 C 
BRANCH  25  26
ATOM     26  C   UNL     1      -7.706  10.578  21.016  0.00  0.00    +0.000 C 
BRANCH  26  27
ATOM     27  N   UNL     1      -7.600   9.817  19.765  0.00  0.00    +0.000 NA
ATOM     28  H   UNL     1      -7.628  10.457  18.972  0.00  0.00    +0.000 HD
ATOM     29  H   UNL     1      -8.415   9.211  19.675  0.00  0.00    +0.000 HD
ENDBRANCH  26  27
ENDBRANCH  25  26
ENDBRANCH   5  25
TORSDOF 6
ENDMDL
MODEL 2
REMARK VINA RESULT:      -6.1      1.784      4.898
REMARK  Name = 
REMARK  7 active torsions:
REMARK  status: ('A' for Active; 'I' for Inactive)
REMARK    1  A    between atoms: C_1  and  C_2
REMARK    2  A    between atoms: C_2  and  C_4
REMARK    3  A    between atoms: C_5  and  C_6
REMARK    4  A    between atoms: C_13  and  C_14
REMARK    5  A    between atoms: N_22  and  C_23
REMARK    6  A    between atoms: C_23  and  C_24
REMARK    7  A    between atoms: C_24  and  N_25
REMARK                            x       y       z     vdW  Elec       q    Type
REMARK                         _______ _______ _______ _____ _____    ______ ____
ROOT
ATOM      1  C   UNL     1      -5.453  11.785  19.760  0.00  0.00    +0.000 A 
ATOM      2  C   UNL     1      -4.192  11.861  19.266  0.00  0.00    +0.000 A 
ATOM      3  C   UNL     1      -3.150  12.485  20.167  0.00  0.00    +0.000 A 
ATOM      4  N   UNL     1      -3.413  12.936  21.358  0.00  0.00    +0.000 NA
ATOM      5  N   UNL     1      -4.697  12.879  21.823  0.00  0.00    +0.000 N 
ATOM      6  C   UNL     1      -5.760  12.395  21.084  0.00  0.00    +0.000 A 
ATOM      7  O   UNL     1      -6.916  12.441  21.497  0.00  0.00    +0.000 OA
ENDROOT
BRANCH   2   8
ATOM      8  C   UNL     1      -3.870  11.311  17.932  0.00  0.00    +0.000 A 
ATOM      9  C   UNL     1      -4.388  11.927  16.779  0.00  0.00    +0.000 A 
ATOM     10  C   UNL     1      -4.095  11.415  15.513  0.00  0.00    +0.000 A 
ATOM     11  C   UNL     1      -3.332  10.256  15.396  0.00  0.00    +0.000 A 
ATOM     12 CL   UNL     1      -3.006   9.603  13.839  0.00  0.00    +0.000 Cl
ATOM     13  C   UNL     1      -2.837   9.618  16.534  0.00  0.00    +0.000 A 
ATOM     14  C   UNL     1      -3.091  10.153  17.801  0.00  0.00    +0.000 A 
ENDBRANCH   2   8
BRANCH   3  15
ATOM     15  C   UNL     1      -1.700  12.567  19.736  0.00  0.00    +0.000 A 
ATOM     16  C   UNL     1      -1.163  13.639  19.015  0.00  0.00    +0.000 A 
ATOM     17  C   UNL     1       0.164  13.629  18.574  0.00  0.00    +0.000 A 
ATOM     18  C   UNL     1       1.003  12.582  18.931  0.00  0.00    +0.000 A 
ATOM     19 CL   UNL     1       2.639  12.582  18.404  0.00  0.00    +0.000 Cl
ATOM     20  C   UNL     1       0.521  11.548  19.729  0.00  0.00    +0.000 A 
ATOM     21  C   UNL     1      -0.825  11.537  20.124  0.00  0.00    +0.000 A 
ENDBRANCH   3  15
BRANCH   1  23
ATOM     22  C   UNL     1      -6.781   9.603  19.199  0.00  0.00    +0.000 C 
ATOM     23  C   UNL     1      -6.567  11.082  19.017  0.00  0.00    +0.000 C 
ATOM     24  O   UNL     1      -7.300  11.688  18.234  0.00  0.00    +0.000 OA
ENDBRANCH   1  23
BRANCH   5  25
ATOM     25  C   UNL     1      -4.954  13.526  23.116  0.00  0.00    +0.000 C 
BRANCH  25  26
ATOM     26  C   UNL     1      -4.148  12.925  24.283  0.00  0.00    +0.000 C 
BRANCH  26  27
ATOM     27  N   UNL     1      -4.941  11.978  25.077  0.00  0.00    +0.000 NA
ATOM     28  H   UNL     1      -4.599  11.968  26.038  0.00  0.00    +0.000 HD
ATOM     29  H   UNL     1      -4.799  11.038  24.710  0.00  0.00    +0.000 HD
ENDBRANCH  26  27
ENDBRANCH  25  26
ENDBRANCH   5  25
TORSDOF 6
ENDMDL
MODEL 3
REMARK VINA RESULT:      -6.0      0.473      1.032
REMARK  Name = 
REMARK  7 active torsions:
REMARK  status: ('A' for Active; 'I' for Inactive)
REMARK    1  A    between atoms: C_1  and  C_2
REMARK    2  A    between atoms: C_2  and  C_4
REMARK    3  A    between atoms: C_5  and  C_6
REMARK    4  A    between atoms: C_13  and  C_14
REMARK    5  A    between atoms: N_22  and  C_23
REMARK    6  A    between atoms: C_23  and  C_24
REMARK    7  A    between atoms: C_24  and  N_25
REMARK                            x       y       z     vdW  Elec       q    Type
REMARK                         _______ _______ _______ _____ _____    ______ ____
ROOT
ATOM      1  C   UNL     1      -3.189  12.947  21.342  0.00  0.00    +0.000 A 
ATOM      2  C   UNL     1      -2.826  12.454  20.132  0.00  0.00    +0.000 A 
ATOM      3  C   UNL     1      -3.936  11.889  19.273  0.00  0.00    +0.000 A 
ATOM      4  N   UNL     1      -5.182  11.860  19.644  0.00  0.00    +0.000 NA
ATOM      5  N   UNL     1      -5.519  12.333  20.881  0.00  0.00    +0.000 N 
ATOM      6  C   UNL     1      -4.602  12.817  21.795  0.00  0.00    +0.000 A 
ATOM      7  O   UNL     1      -4.927  13.150  22.932  0.00  0.00    +0.000 OA
ENDROOT
BRANCH   2   8
ATOM      8  C   UNL     1      -1.421  12.521  19.679  0.00  0.00    +0.000 A 
ATOM      9  C   UNL     1      -0.989  13.608  18.898  0.00  0.00    +0.000 A 
ATOM     10  C   UNL     1       0.335  13.680  18.460  0.00  0.00    +0.000 A 
ATOM     11  C   UNL     1       1.217  12.642  18.750  0.00  0.00    +0.000 A 
ATOM     12 CL   UNL     1       2.835  12.713  18.174  0.00  0.00    +0.000 Cl
ATOM     13  C   UNL     1       0.792  11.544  19.498  0.00  0.00    +0.000 A 
ATOM     14  C   UNL     1      -0.520  11.489  19.976  0.00  0.00    +0.000 A 
ENDBRANCH   2   8
BRANCH   3  15
ATOM     15  C   UNL     1      -3.650  11.365  17.881  0.00  0.00    +0.000 A 
ATOM     16  C   UNL     1      -4.351  11.770  16.740  0.00  0.00    +0.000 A 
ATOM     17  C   UNL     1      -4.100  11.198  15.488  0.00  0.00    +0.000 A 
ATOM     18  C   UNL     1      -3.074  10.274  15.345  0.00  0.00    +0.000 A 
ATOM     19 CL   UNL     1      -2.755   9.586  13.802  0.00  0.00    +0.000 Cl
ATOM     20  C   UNL     1      -2.297   9.924  16.445  0.00  0.00    +0.000 A 
ATOM     21  C   UNL     1      -2.588  10.461  17.708  0.00  0.00    +0.000 A 
ENDBRANCH   3  15
BRANCH   1  23
ATOM     22  C   UNL     1      -1.420  12.854  23.267  0.00  0.00    +0.000 C 
ATOM     23  C   UNL     1      -2.204  13.645  22.253  0.00  0.00    +0.000 C 
ATOM     24  O   UNL     1      -2.040  14.865  22.208  0.00  0.00    +0.000 OA
ENDBRANCH   1  23
BRANCH   5  25
ATOM     25  C   UNL     1      -6.917  12.149  21.293  0.00  0.00    +0.000 C 
BRANCH  25  26
ATOM     26  C   UNL     1      -7.691  11.132  20.431  0.00  0.00    +0.000 C 
BRANCH  26  27
ATOM     27  N   UNL     1      -7.373   9.744  20.789  0.00  0.00    +0.000 NA
ATOM     28  H   UNL     1      -6.793   9.328  20.061  0.00  0.00    +0.000 HD
ATOM     29  H   UNL     1      -8.237   9.202  20.814  0.00  0.00    +0.000 HD
ENDBRANCH  26  27
ENDBRANCH  25  26
ENDBRANCH   5  25
TORSDOF 6
ENDMDL
MODEL 4
REMARK VINA RESULT:      -6.0      2.803      5.521
REMARK  Name = 
REMARK  7 active torsions:
REMARK  status: ('A' for Active; 'I' for Inactive)
REMARK    1  A    between atoms: C_1  and  C_2
REMARK    2  A    between atoms: C_2  and  C_4
REMARK    3  A    between atoms: C_5  and  C_6
REMARK    4  A    between atoms: C_13  and  C_14
REMARK    5  A    between atoms: N_22  and  C_23
REMARK    6  A    between atoms: C_23  and  C_24
REMARK    7  A    between atoms: C_24  and  N_25
REMARK                            x       y       z     vdW  Elec       q    Type
REMARK                         _______ _______ _______ _____ _____    ______ ____
ROOT
ATOM      1  C   UNL     1      -4.866  12.282  19.698  0.00  0.00    +0.000 A 
ATOM      2  C   UNL     1      -3.615  12.567  20.138  0.00  0.00    +0.000 A 
ATOM      3  C   UNL     1      -2.481  12.283  19.178  0.00  0.00    +0.000 A 
ATOM      4  N   UNL     1      -2.658  11.794  17.987  0.00  0.00    +0.000 NA
ATOM      5  N   UNL     1      -3.925  11.484  17.577  0.00  0.00    +0.000 N 
ATOM      6  C   UNL     1      -5.047  11.628  18.372  0.00  0.00    +0.000 A 
ATOM      7  O   UNL     1      -6.159  11.256  18.005  0.00  0.00    +0.000 OA
ENDROOT
BRANCH   2   8
ATOM      8  C   UNL     1      -3.402  13.166  21.473  0.00  0.00    +0.000 A 
ATOM      9  C   UNL     1      -3.338  14.564  21.609  0.00  0.00    +0.000 A 
ATOM     10  C   UNL     1      -3.132  15.143  22.863  0.00  0.00    +0.000 A 
ATOM     11  C   UNL     1      -2.932  14.328  23.975  0.00  0.00    +0.000 A 
ATOM     12 CL   UNL     1      -2.637  15.042  25.511  0.00  0.00    +0.000 Cl
ATOM     13  C   UNL     1      -2.962  12.939  23.848  0.00  0.00    +0.000 A 
ATOM     14  C   UNL     1      -3.213  12.357  22.602  0.00  0.00    +0.000 A 
ENDBRANCH   2   8
BRANCH   3  15
ATOM     15  C   UNL     1      -1.050  12.618  19.547  0.00  0.00    +0.000 A 
ATOM     16  C   UNL     1      -0.223  11.773  20.294  0.00  0.00    +0.000 A 
ATOM     17  C   UNL     1       1.066  12.164  20.674  0.00  0.00    +0.000 A 
ATOM     18  C   UNL     1       1.580  13.375  20.229  0.00  0.00    +0.000 A 
ATOM     19 CL   UNL     1       3.170  13.843  20.682  0.00  0.00    +0.000 Cl
ATOM     20  C   UNL     1       0.813  14.192  19.404  0.00  0.00    +0.000 A 
ATOM     21  C   UNL     1      -0.498  13.820  19.071  0.00  0.00    +0.000 A 
ENDBRANCH   3  15
BRANCH   1  23
ATOM     22  C   UNL     1      -6.804  13.935  20.293  0.00  0.00    +0.000 C 
ATOM     23  C   UNL     1      -6.098  12.621  20.506  0.00  0.00    +0.000 C 
ATOM     24  O   UNL     1      -6.536  11.855  21.366  0.00  0.00    +0.000 OA
ENDBRANCH   1  23
BRANCH   5  25
ATOM     25  C   UNL     1      -4.046  10.809  16.278  0.00  0.00    +0.000 C 
BRANCH  25  26
ATOM     26  C   UNL     1      -2.700  10.337  15.695  0.00  0.00    +0.000 C 
BRANCH  26  27
ATOM     27  N   UNL     1      -2.773  10.101  14.248  0.00  0.00    +0.000 NA
ATOM     28  H   UNL     1      -3.747  10.117  13.948  0.00  0.00    +0.000 HD
ATOM     29  H   UNL     1      -2.424   9.163  14.047  0.00  0.00    +0.000 HD
ENDBRANCH  26  27
ENDBRANCH  25  26
ENDBRANCH   5  25
TORSDOF 6
ENDMDL
MODEL 5
REMARK VINA RESULT:      -5.9      2.794      5.685
REMARK  Name = 
REMARK  7 active torsions:
REMARK  status: ('A' for Active; 'I' for Inactive)
REMARK    1  A    between atoms: C_1  and  C_2
REMARK    2  A    between atoms: C_2  and  C_4
REMARK    3  A    between atoms: C_5  and  C_6
REMARK    4  A    between atoms: C_13  and  C_14
REMARK    5  A    between atoms: N_22  and  C_23
REMARK    6  A    between atoms: C_23  and  C_24
REMARK    7  A    between atoms: C_24  and  N_25
REMARK                            x       y       z     vdW  Elec       q    Type
REMARK                         _______ _______ _______ _____ _____    ______ ____
ROOT
ATOM      1  C   UNL     1      -4.871  12.217  19.705  0.00  0.00    +0.000 A 
ATOM      2  C   UNL     1      -3.630  12.573  20.121  0.00  0.00    +0.000 A 
ATOM      3  C   UNL     1      -2.499  12.350  19.141  0.00  0.00    +0.000 A 
ATOM      4  N   UNL     1      -2.671  11.845  17.955  0.00  0.00    +0.000 NA
ATOM      5  N   UNL     1      -3.925  11.463  17.570  0.00  0.00    +0.000 N 
ATOM      6  C   UNL     1      -5.039  11.548  18.384  0.00  0.00    +0.000 A 
ATOM      7  O   UNL     1      -6.134  11.113  18.039  0.00  0.00    +0.000 OA
ENDROOT
BRANCH   2   8
ATOM      8  C   UNL     1      -3.427  13.190  21.449  0.00  0.00    +0.000 A 
ATOM      9  C   UNL     1      -3.267  12.372  22.582  0.00  0.00    +0.000 A 
ATOM     10  C   UNL     1      -3.078  12.941  23.843  0.00  0.00    +0.000 A 
ATOM     11  C   UNL     1      -3.107  14.326  23.987  0.00  0.00    +0.000 A 
ATOM     12 CL   UNL     1      -2.916  15.025  25.546  0.00  0.00    +0.000 Cl
ATOM     13  C   UNL     1      -3.295  15.148  22.875  0.00  0.00    +0.000 A 
ATOM     14  C   UNL     1      -3.439  14.583  21.605  0.00  0.00    +0.000 A 
ENDBRANCH   2   8
BRANCH   3  15
ATOM     15  C   UNL     1      -1.083  12.766  19.482  0.00  0.00    +0.000 A 
ATOM     16  C   UNL     1      -0.530  14.002  19.130  0.00  0.00    +0.000 A 
ATOM     17  C   UNL     1       0.808  14.306  19.400  0.00  0.00    +0.000 A 
ATOM     18  C   UNL     1       1.589  13.407  20.114  0.00  0.00    +0.000 A 
ATOM     19 CL   UNL     1       3.228  13.792  20.462  0.00  0.00    +0.000 Cl
ATOM     20  C   UNL     1       1.037  12.210  20.561  0.00  0.00    +0.000 A 
ATOM     21  C   UNL     1      -0.290  11.888  20.241  0.00  0.00    +0.000 A 
ENDBRANCH   3  15
BRANCH   1  23
ATOM     22  C   UNL     1      -6.857  13.785  20.366  0.00  0.00    +0.000 C 
ATOM     23  C   UNL     1      -6.106  12.490  20.534  0.00  0.00    +0.000 C 
ATOM     24  O   UNL     1      -6.508  11.685  21.374  0.00  0.00    +0.000 OA
ENDBRANCH   1  23
BRANCH   5  25
ATOM     25  C   UNL     1      -4.031  10.777  16.275  0.00  0.00    +0.000 C 
BRANCH  25  26
ATOM     26  C   UNL     1      -2.670  10.464  15.624  0.00  0.00    +0.000 C 
BRANCH  26  27
ATOM     27  N   UNL     1      -2.801  10.104  14.207  0.00  0.00    +0.000 NA
ATOM     28  H   UNL     1      -3.150   9.149  14.127  0.00  0.00    +0.000 HD
ATOM     29  H   UNL     1      -1.877  10.110  13.776  0.00  0.00    +0.000 HD
ENDBRANCH  26  27
ENDBRANCH  25  26
ENDBRANCH   5  25
TORSDOF 6
ENDMDL
MODEL 6
REMARK VINA RESULT:      -5.8      1.791      4.869
REMARK  Name = 
REMARK  7 active torsions:
REMARK  status: ('A' for Active; 'I' for Inactive)
REMARK    1  A    between atoms: C_1  and  C_2
REMARK    2  A    between atoms: C_2  and  C_4
REMARK    3  A    between atoms: C_5  and  C_6
REMARK    4  A    between atoms: C_13  and  C_14
REMARK    5  A    between atoms: N_22  and  C_23
REMARK    6  A    between atoms: C_23  and  C_24
REMARK    7  A    between atoms: C_24  and  N_25
REMARK                            x       y       z     vdW  Elec       q    Type
REMARK                         _______ _______ _______ _____ _____    ______ ____
ROOT
ATOM      1  C   UNL     1      -5.431  11.892  19.718  0.00  0.00    +0.000 A 
ATOM      2  C   UNL     1      -4.168  11.900  19.225  0.00  0.00    +0.000 A 
ATOM      3  C   UNL     1      -3.102  12.508  20.109  0.00  0.00    +0.000 A 
ATOM      4  N   UNL     1      -3.347  13.005  21.285  0.00  0.00    +0.000 NA
ATOM      5  N   UNL     1      -4.633  13.015  21.748  0.00  0.00    +0.000 N 
ATOM      6  C   UNL     1      -5.715  12.554  21.022  0.00  0.00    +0.000 A 
ATOM      7  O   UNL     1      -6.869  12.660  21.430  0.00  0.00    +0.000 OA
ENDROOT
BRANCH   2   8
ATOM      8  C   UNL     1      -3.866  11.298  17.909  0.00  0.00    +0.000 A 
ATOM      9  C   UNL     1      -3.076  10.137  17.836  0.00  0.00    +0.000 A 
ATOM     10  C   UNL     1      -2.779   9.561  16.598  0.00  0.00    +0.000 A 
ATOM     11  C   UNL     1      -3.222  10.173  15.428  0.00  0.00    +0.000 A 
ATOM     12 CL   UNL     1      -2.821   9.486  13.904  0.00  0.00    +0.000 Cl
ATOM     13  C   UNL     1      -3.981  11.342  15.485  0.00  0.00    +0.000 A 
ATOM     14  C   UNL     1      -4.318  11.897  16.724  0.00  0.00    +0.000 A 
ENDBRANCH   2   8
BRANCH   3  15
ATOM     15  C   UNL     1      -1.649  12.517  19.680  0.00  0.00    +0.000 A 
ATOM     16  C   UNL     1      -0.741  11.500  19.993  0.00  0.00    +0.000 A 
ATOM     17  C   UNL     1       0.609  11.594  19.639  0.00  0.00    +0.000 A 
ATOM     18  C   UNL     1       1.051  12.671  18.882  0.00  0.00    +0.000 A 
ATOM     19 CL   UNL     1       2.707  12.773  18.433  0.00  0.00    +0.000 Cl
ATOM     20  C   UNL     1       0.150  13.649  18.475  0.00  0.00    +0.000 A 
ATOM     21  C   UNL     1      -1.192  13.577  18.878  0.00  0.00    +0.000 A 
ENDBRANCH   3  15
BRANCH   1  23
ATOM     22  C   UNL     1      -6.828   9.743  19.193  0.00  0.00    +0.000 C 
ATOM     23  C   UNL     1      -6.572  11.214  18.993  0.00  0.00    +0.000 C 
ATOM     24  O   UNL     1      -7.295  11.832  18.210  0.00  0.00    +0.000 OA
ENDBRANCH   1  23
BRANCH   5  25
ATOM     25  C   UNL     1      -4.865  13.711  23.021  0.00  0.00    +0.000 C 
BRANCH  25  26
ATOM     26  C   UNL     1      -4.404  12.916  24.257  0.00  0.00    +0.000 C 
BRANCH  26  27
ATOM     27  N   UNL     1      -3.554  11.773  23.899  0.00  0.00    +0.000 NA
ATOM     28  H   UNL     1      -3.355  11.796  22.899  0.00  0.00    +0.000 HD
ATOM     29  H   UNL     1      -4.069  10.910  24.071  0.00  0.00    +0.000 HD
ENDBRANCH  26  27
ENDBRANCH  25  26
ENDBRANCH   5  25
TORSDOF 6
ENDMDL
MODEL 7
REMARK VINA RESULT:      -5.8      2.795      5.586
REMARK  Name = 
REMARK  7 active torsions:
REMARK  status: ('A' for Active; 'I' for Inactive)
REMARK    1  A    between atoms: C_1  and  C_2
REMARK    2  A    between atoms: C_2  and  C_4
REMARK    3  A    between atoms: C_5  and  C_6
REMARK    4  A    between atoms: C_13  and  C_14
REMARK    5  A    between atoms: N_22  and  C_23
REMARK    6  A    between atoms: C_23  and  C_24
REMARK    7  A    between atoms: C_24  and  N_25
REMARK                            x       y       z     vdW  Elec       q    Type
REMARK                         _______ _______ _______ _____ _____    ______ ____
ROOT
ATOM      1  C   UNL     1      -4.881  12.332  19.798  0.00  0.00    +0.000 A 
ATOM      2  C   UNL     1      -3.623  12.614  20.219  0.00  0.00    +0.000 A 
ATOM      3  C   UNL     1      -2.505  12.342  19.236  0.00  0.00    +0.000 A 
ATOM      4  N   UNL     1      -2.703  11.864  18.043  0.00  0.00    +0.000 NA
ATOM      5  N   UNL     1      -3.976  11.558  17.652  0.00  0.00    +0.000 N 
ATOM      6  C   UNL     1      -5.084  11.693  18.468  0.00  0.00    +0.000 A 
ATOM      7  O   UNL     1      -6.202  11.323  18.116  0.00  0.00    +0.000 OA
ENDROOT
BRANCH   2   8
ATOM      8  C   UNL     1      -3.387  13.199  21.555  0.00  0.00    +0.000 A 
ATOM      9  C   UNL     1      -3.231  12.356  22.670  0.00  0.00    +0.000 A 
ATOM     10  C   UNL     1      -3.012  12.896  23.939  0.00  0.00    +0.000 A 
ATOM     11  C   UNL     1      -3.006  14.278  24.109  0.00  0.00    +0.000 A 
ATOM     12 CL   UNL     1      -2.778  14.942  25.679  0.00  0.00    +0.000 Cl
ATOM     13  C   UNL     1      -3.190  15.126  23.017  0.00  0.00    +0.000 A 
ATOM     14  C   UNL     1      -3.365  14.589  21.738  0.00  0.00    +0.000 A 
ENDBRANCH   2   8
BRANCH   3  15
ATOM     15  C   UNL     1      -1.069  12.674  19.583  0.00  0.00    +0.000 A 
ATOM     16  C   UNL     1      -0.239  11.839  20.338  0.00  0.00    +0.000 A 
ATOM     17  C   UNL     1       1.056  12.228  20.697  0.00  0.00    +0.000 A 
ATOM     18  C   UNL     1       1.573  13.427  20.224  0.00  0.00    +0.000 A 
ATOM     19 CL   UNL     1       3.171  13.893  20.651  0.00  0.00    +0.000 Cl
ATOM     20  C   UNL     1       0.803  14.234  19.391  0.00  0.00    +0.000 A 
ATOM     21  C   UNL     1      -0.514  13.863  19.079  0.00  0.00    +0.000 A 
ENDBRANCH   3  15
BRANCH   1  23
ATOM     22  C   UNL     1      -6.811  13.976  20.441  0.00  0.00    +0.000 C 
ATOM     23  C   UNL     1      -6.100  12.662  20.630  0.00  0.00    +0.000 C 
ATOM     24  O   UNL     1      -6.520  11.887  21.490  0.00  0.00    +0.000 OA
ENDBRANCH   1  23
BRANCH   5  25
ATOM     25  C   UNL     1      -4.119  10.897  16.348  0.00  0.00    +0.000 C 
BRANCH  25  26
ATOM     26  C   UNL     1      -2.788  10.723  15.590  0.00  0.00    +0.000 C 
BRANCH  26  27
ATOM     27  N   UNL     1      -1.904   9.746  16.236  0.00  0.00    +0.000 NA
ATOM     28  H   UNL     1      -1.496   9.134  15.530  0.00  0.00    +0.000 HD
ATOM     29  H   UNL     1      -2.459   9.149  16.849  0.00  0.00    +0.000 HD
ENDBRANCH  26  27
ENDBRANCH  25  26
ENDBRANCH   5  25
TORSDOF 6
ENDMDL
MODEL 8
REMARK VINA RESULT:      -5.8      1.815      4.821
REMARK  Name = 
REMARK  7 active torsions:
REMARK  status: ('A' for Active; 'I' for Inactive)
REMARK    1  A    between atoms: C_1  and  C_2
REMARK    2  A    between atoms: C_2  and  C_4
REMARK    3  A    between atoms: C_5  and  C_6
REMARK    4  A    between atoms: C_13  and  C_14
REMARK    5  A    between atoms: N_22  and  C_23
REMARK    6  A    between atoms: C_23  and  C_24
REMARK    7  A    between atoms: C_24  and  N_25
REMARK                            x       y       z     vdW  Elec       q    Type
REMARK                         _______ _______ _______ _____ _____    ______ ____
ROOT
ATOM      1  C   UNL     1      -5.152  11.861  19.830  0.00  0.00    +0.000 A 
ATOM      2  C   UNL     1      -3.908  11.888  19.291  0.00  0.00    +0.000 A 
ATOM      3  C   UNL     1      -2.809  12.465  20.156  0.00  0.00    +0.000 A 
ATOM      4  N   UNL     1      -3.010  12.920  21.357  0.00  0.00    +0.000 NA
ATOM      5  N   UNL     1      -4.278  12.913  21.867  0.00  0.00    +0.000 N 
ATOM      6  C   UNL     1      -5.387  12.476  21.166  0.00  0.00    +0.000 A 
ATOM      7  O   UNL     1      -6.524  12.567  21.621  0.00  0.00    +0.000 OA
ENDROOT
BRANCH   2   8
ATOM      8  C   UNL     1      -3.656  11.333  17.944  0.00  0.00    +0.000 A 
ATOM      9  C   UNL     1      -4.256  11.927  16.819  0.00  0.00    +0.000 A 
ATOM     10  C   UNL     1      -4.030  11.410  15.542  0.00  0.00    +0.000 A 
ATOM     11  C   UNL     1      -3.252  10.264  15.389  0.00  0.00    +0.000 A 
ATOM     12 CL   UNL     1      -3.009   9.604  13.820  0.00  0.00    +0.000 Cl
ATOM     13  C   UNL     1      -2.676   9.647  16.499  0.00  0.00    +0.000 A 
ATOM     14  C   UNL     1      -2.864  10.188  17.775  0.00  0.00    +0.000 A 
ENDBRANCH   2   8
BRANCH   3  15
ATOM     15  C   UNL     1      -1.374  12.490  19.673  0.00  0.00    +0.000 A 
ATOM     16  C   UNL     1      -0.452  11.467  19.923  0.00  0.00    +0.000 A 
ATOM     17  C   UNL     1       0.884  11.575  19.522  0.00  0.00    +0.000 A 
ATOM     18  C   UNL     1       1.295  12.674  18.780  0.00  0.00    +0.000 A 
ATOM     19 CL   UNL     1       2.933  12.795  18.273  0.00  0.00    +0.000 Cl
ATOM     20  C   UNL     1       0.377  13.661  18.435  0.00  0.00    +0.000 A 
ATOM     21  C   UNL     1      -0.948  13.574  18.885  0.00  0.00    +0.000 A 
ENDBRANCH   3  15
BRANCH   1  23
ATOM     22  C   UNL     1      -7.292  12.046  18.338  0.00  0.00    +0.000 C 
ATOM     23  C   UNL     1      -6.319  11.208  19.124  0.00  0.00    +0.000 C 
ATOM     24  O   UNL     1      -6.517   9.994  19.196  0.00  0.00    +0.000 OA
ENDBRANCH   1  23
BRANCH   5  25
ATOM     25  C   UNL     1      -4.462  13.563  23.171  0.00  0.00    +0.000 C 
BRANCH  25  26
ATOM     26  C   UNL     1      -4.260  12.619  24.372  0.00  0.00    +0.000 C 
BRANCH  26  27
ATOM     27  N   UNL     1      -5.510  11.970  24.786  0.00  0.00    +0.000 NA
ATOM     28  H   UNL     1      -5.298  11.142  25.341  0.00  0.00    +0.000 HD
ATOM     29  H   UNL     1      -6.005  11.642  23.956  0.00  0.00    +0.000 HD
ENDBRANCH  26  27
ENDBRANCH  25  26
ENDBRANCH   5  25
TORSDOF 6
ENDMDL
MODEL 9
REMARK VINA RESULT:      -5.8      2.807      5.386
REMARK  Name = 
REMARK  7 active torsions:
REMARK  status: ('A' for Active; 'I' for Inactive)
REMARK    1  A    between atoms: C_1  and  C_2
REMARK    2  A    between atoms: C_2  and  C_4
REMARK    3  A    between atoms: C_5  and  C_6
REMARK    4  A    between atoms: C_13  and  C_14
REMARK    5  A    between atoms: N_22  and  C_23
REMARK    6  A    between atoms: C_23  and  C_24
REMARK    7  A    between atoms: C_24  and  N_25
REMARK                            x       y       z     vdW  Elec       q    Type
REMARK                         _______ _______ _______ _____ _____    ______ ____
ROOT
ATOM      1  C   UNL     1      -3.355  11.706  18.670  0.00  0.00    +0.000 A 
ATOM      2  C   UNL     1      -2.881  12.407  19.729  0.00  0.00    +0.000 A 
ATOM      3  C   UNL     1      -3.892  12.811  20.779  0.00  0.00    +0.000 A 
ATOM      4  N   UNL     1      -5.156  12.517  20.704  0.00  0.00    +0.000 NA
ATOM      5  N   UNL     1      -5.617  11.838  19.611  0.00  0.00    +0.000 N 
ATOM      6  C   UNL     1      -4.819  11.463  18.546  0.00  0.00    +0.000 A 
ATOM      7  O   UNL     1      -5.282  10.933  17.539  0.00  0.00    +0.000 OA
ENDROOT
BRANCH   2   8
ATOM      8  C   UNL     1      -1.439  12.709  19.851  0.00  0.00    +0.000 A 
ATOM      9  C   UNL     1      -0.618  11.889  20.645  0.00  0.00    +0.000 A 
ATOM     10  C   UNL     1       0.745  12.166  20.772  0.00  0.00    +0.000 A 
ATOM     11  C   UNL     1       1.281  13.294  20.156  0.00  0.00    +0.000 A 
ATOM     12 CL   UNL     1       2.951  13.656  20.347  0.00  0.00    +0.000 Cl
ATOM     13  C   UNL     1       0.471  14.133  19.391  0.00  0.00    +0.000 A 
ATOM     14  C   UNL     1      -0.884  13.834  19.224  0.00  0.00    +0.000 A 
ENDBRANCH   2   8
BRANCH   3  15
ATOM     15  C   UNL     1      -3.460  13.547  22.031  0.00  0.00    +0.000 A 
ATOM     16  C   UNL     1      -3.094  14.897  22.051  0.00  0.00    +0.000 A 
ATOM     17  C   UNL     1      -2.628  15.509  23.219  0.00  0.00    +0.000 A 
ATOM     18  C   UNL     1      -2.610  14.798  24.411  0.00  0.00    +0.000 A 
ATOM     19 CL   UNL     1      -2.054  15.559  25.849  0.00  0.00    +0.000 Cl
ATOM     20  C   UNL     1      -3.059  13.481  24.440  0.00  0.00    +0.000 A 
ATOM     21  C   UNL     1      -3.475  12.856  23.255  0.00  0.00    +0.000 A 
ENDBRANCH   3  15
BRANCH   1  23
ATOM     22  C   UNL     1      -1.757   9.815  17.824  0.00  0.00    +0.000 C 
ATOM     23  C   UNL     1      -2.441  11.140  17.607  0.00  0.00    +0.000 C 
ATOM     24  O   UNL     1      -2.213  11.751  16.562  0.00  0.00    +0.000 OA
ENDBRANCH   1  23
BRANCH   5  25
ATOM     25  C   UNL     1      -7.072  11.656  19.519  0.00  0.00    +0.000 C 
BRANCH  25  26
ATOM     26  C   UNL     1      -7.580  10.360  20.181  0.00  0.00    +0.000 C 
BRANCH  26  27
ATOM     27  N   UNL     1      -7.480   9.202  19.284  0.00  0.00    +0.000 NA
ATOM     28  H   UNL     1      -8.071   9.350  18.467  0.00  0.00    +0.000 HD
ATOM     29  H   UNL     1      -7.849   8.380  19.762  0.00  0.00    +0.000 HD
ENDBRANCH  26  27
ENDBRANCH  25  26
ENDBRANCH   5  25
TORSDOF 6
ENDMDL
