MODEL 1
REMARK VINA RESULT:      -7.2      0.000      0.000
REMARK  Name = 
REMARK  10 active torsions:
REMARK  status: ('A' for Active; 'I' for Inactive)
REMARK    1  A    between atoms: O_1  and  C_2
REMARK    2  A    between atoms: C_2  and  C_3
REMARK    3  A    between atoms: C_3  and  C_4
REMARK    4  A    between atoms: C_4  and  C_5
REMARK    5  A    between atoms: C_5  and  C_6
REMARK    6  A    between atoms: C_6  and  C_7
REMARK    7  A    between atoms: C_7  and  O_8
REMARK    8  A    between atoms: C_7  and  C_9
REMARK    9  A    between atoms: C_12  and  C_13
REMARK   10  A    between atoms: C_18  and  O_19
REMARK                            x       y       z     vdW  Elec       q    Type
REMARK                         _______ _______ _______ _____ _____    ______ ____
ROOT
ATOM      1  C   UNL     1       6.115   4.432  16.432  0.00  0.00    +0.000 A 
ATOM      2  C   UNL     1       4.897   3.815  16.133  0.00  0.00    +0.000 A 
ATOM      3  C   UNL     1       3.972   3.524  17.146  0.00  0.00    +0.000 A 
ATOM      4  C   UNL     1       4.236   3.812  18.498  0.00  0.00    +0.000 A 
ATOM      5  C   UNL     1       5.481   4.397  18.783  0.00  0.00    +0.000 A 
ATOM      6  C   UNL     1       6.395   4.718  17.773  0.00  0.00    +0.000 A 
ENDROOT
BRANCH   4   7
ATOM      7  C   UNL     1       3.247   3.499  19.569  0.00  0.00    +0.000 A 
ATOM      8  C   UNL     1       1.988   4.136  19.574  0.00  0.00    +0.000 A 
ATOM      9  C   UNL     1       1.031   3.887  20.566  0.00  0.00    +0.000 A 
ATOM     10  C   UNL     1       1.300   2.978  21.578  0.00  0.00    +0.000 A 
ATOM     11  C   UNL     1       2.524   2.318  21.603  0.00  0.00    +0.000 A 
ATOM     12  C   UNL     1       3.486   2.582  20.616  0.00  0.00    +0.000 A 
BRANCH  12  13
ATOM     13  O   UNL     1       4.690   1.928  20.704  0.00  0.00    +0.000 OA
ATOM     14  H   UNL     1       5.335   2.371  20.130  0.00  0.00    +0.000 HD
ENDBRANCH  12  13
ENDBRANCH   4   7
BRANCH   1  15
ATOM     15  C   UNL     1       7.073   4.806  15.318  0.00  0.00    +0.000 C 
BRANCH  15  16
ATOM     16  O   UNL     1       7.724   6.041  15.607  0.00  0.00    +0.000 OA
ATOM     17  H   UNL     1       8.665   5.858  15.761  0.00  0.00    +0.000 HD
ENDBRANCH  15  16
BRANCH  15  18
ATOM     18  C   UNL     1       6.346   4.913  13.971  0.00  0.00    +0.000 C 
BRANCH  18  19
ATOM     19  C   UNL     1       7.312   4.935  12.783  0.00  0.00    +0.000 C 
BRANCH  19  20
ATOM     20  C   UNL     1       7.134   3.680  11.929  0.00  0.00    +0.000 C 
BRANCH  20  21
ATOM     21  C   UNL     1       5.719   3.121  12.040  0.00  0.00    +0.000 C 
BRANCH  21  22
ATOM     22  C   UNL     1       5.613   1.755  11.377  0.00  0.00    +0.000 C 
BRANCH  22  23
ATOM     23  O   UNL     1       6.915   1.204  11.244  0.00  0.00    +0.000 OA
ATOM     24  H   UNL     1       7.526   1.802  11.707  0.00  0.00    +0.000 HD
ENDBRANCH  22  23
ENDBRANCH  21  22
ENDBRANCH  20  21
ENDBRANCH  19  20
ENDBRANCH  18  19
ENDBRANCH  15  18
ENDBRANCH   1  15
TORSDOF 10
ENDMDL
MODEL 2
REMARK VINA RESULT:      -7.1      1.953      7.330
REMARK  Name = 
REMARK  10 active torsions:
REMARK  status: ('A' for Active; 'I' for Inactive)
REMARK    1  A    between atoms: O_1  and  C_2
REMARK    2  A    between atoms: C_2  and  C_3
REMARK    3  A    between atoms: C_3  and  C_4
REMARK    4  A    between atoms: C_4  and  C_5
REMARK    5  A    between atoms: C_5  and  C_6
REMARK    6  A    between atoms: C_6  and  C_7
REMARK    7  A    between atoms: C_7  and  O_8
REMARK    8  A    between atoms: C_7  and  C_9
REMARK    9  A    between atoms: C_12  and  C_13
REMARK   10  A    between atoms: C_18  and  O_19
REMARK                            x       y       z     vdW  Elec       q    Type
REMARK                         _______ _______ _______ _____ _____    ______ ____
ROOT
ATOM      1  C   UNL     1       4.303   5.585  17.953  0.00  0.00    +0.000 A 
ATOM      2  C   UNL     1       4.540   4.244  17.636  0.00  0.00    +0.000 A 
ATOM      3  C   UNL     1       5.074   3.885  16.390  0.00  0.00    +0.000 A 
ATOM      4  C   UNL     1       5.366   4.844  15.403  0.00  0.00    +0.000 A 
ATOM      5  C   UNL     1       5.085   6.181  15.726  0.00  0.00    +0.000 A 
ATOM      6  C   UNL     1       4.582   6.550  16.979  0.00  0.00    +0.000 A 
ENDROOT
BRANCH   4   7
ATOM      7  C   UNL     1       5.933   4.453  14.081  0.00  0.00    +0.000 A 
ATOM      8  C   UNL     1       5.189   3.629  13.209  0.00  0.00    +0.000 A 
ATOM      9  C   UNL     1       5.686   3.223  11.964  0.00  0.00    +0.000 A 
ATOM     10  C   UNL     1       6.939   3.643  11.544  0.00  0.00    +0.000 A 
ATOM     11  C   UNL     1       7.699   4.467  12.367  0.00  0.00    +0.000 A 
ATOM     12  C   UNL     1       7.205   4.860  13.621  0.00  0.00    +0.000 A 
BRANCH  12  13
ATOM     13  O   UNL     1       8.008   5.647  14.408  0.00  0.00    +0.000 OA
ATOM     14  H   UNL     1       7.656   5.657  15.311  0.00  0.00    +0.000 HD
ENDBRANCH  12  13
ENDBRANCH   4   7
BRANCH   1  15
ATOM     15  C   UNL     1       3.794   5.964  19.330  0.00  0.00    +0.000 C 
BRANCH  15  16
ATOM     16  O   UNL     1       4.421   5.170  20.335  0.00  0.00    +0.000 OA
ATOM     17  H   UNL     1       5.309   4.934  20.023  0.00  0.00    +0.000 HD
ENDBRANCH  15  16
BRANCH  15  18
ATOM     18  C   UNL     1       2.271   5.800  19.425  0.00  0.00    +0.000 C 
BRANCH  18  19
ATOM     19  C   UNL     1       1.843   4.987  20.650  0.00  0.00    +0.000 C 
BRANCH  19  20
ATOM     20  C   UNL     1       0.792   3.948  20.260  0.00  0.00    +0.000 C 
BRANCH  20  21
ATOM     21  C   UNL     1       1.125   3.286  18.926  0.00  0.00    +0.000 C 
BRANCH  21  22
ATOM     22  C   UNL     1       1.923   2.006  19.131  0.00  0.00    +0.000 C 
BRANCH  22  23
ATOM     23  O   UNL     1       2.425   1.570  17.876  0.00  0.00    +0.000 OA
ATOM     24  H   UNL     1       1.817   0.886  17.548  0.00  0.00    +0.000 HD
ENDBRANCH  22  23
ENDBRANCH  21  22
ENDBRANCH  20  21
ENDBRANCH  19  20
ENDBRANCH  18  19
ENDBRANCH  15  18
ENDBRANCH   1  15
TORSDOF 10
ENDMDL
MODEL 3
REMARK VINA RESULT:      -7.1      1.792      2.320
REMARK  Name = 
REMARK  10 active torsions:
REMARK  status: ('A' for Active; 'I' for Inactive)
REMARK    1  A    between atoms: O_1  and  C_2
REMARK    2  A    between atoms: C_2  and  C_3
REMARK    3  A    between atoms: C_3  and  C_4
REMARK    4  A    between atoms: C_4  and  C_5
REMARK    5  A    between atoms: C_5  and  C_6
REMARK    6  A    between atoms: C_6  and  C_7
REMARK    7  A    between atoms: C_7  and  O_8
REMARK    8  A    between atoms: C_7  and  C_9
REMARK    9  A    between atoms: C_12  and  C_13
REMARK   10  A    between atoms: C_18  and  O_19
REMARK                            x       y       z     vdW  Elec       q    Type
REMARK                         _______ _______ _______ _____ _____    ______ ____
ROOT
ATOM      1  C   UNL     1       6.171   4.380  15.853  0.00  0.00    +0.000 A 
ATOM      2  C   UNL     1       6.669   4.681  17.124  0.00  0.00    +0.000 A 
ATOM      3  C   UNL     1       5.866   4.530  18.264  0.00  0.00    +0.000 A 
ATOM      4  C   UNL     1       4.528   4.101  18.178  0.00  0.00    +0.000 A 
ATOM      5  C   UNL     1       4.035   3.840  16.890  0.00  0.00    +0.000 A 
ATOM      6  C   UNL     1       4.840   3.958  15.751  0.00  0.00    +0.000 A 
ENDROOT
BRANCH   4   7
ATOM      7  C   UNL     1       3.681   3.943  19.395  0.00  0.00    +0.000 A 
ATOM      8  C   UNL     1       3.572   2.682  20.019  0.00  0.00    +0.000 A 
ATOM      9  C   UNL     1       2.777   2.481  21.156  0.00  0.00    +0.000 A 
ATOM     10  C   UNL     1       2.079   3.541  21.712  0.00  0.00    +0.000 A 
ATOM     11  C   UNL     1       2.170   4.804  21.136  0.00  0.00    +0.000 A 
ATOM     12  C   UNL     1       2.955   4.999  19.988  0.00  0.00    +0.000 A 
BRANCH  12  13
ATOM     13  O   UNL     1       2.986   6.257  19.440  0.00  0.00    +0.000 OA
ATOM     14  H   UNL     1       3.530   6.833  19.998  0.00  0.00    +0.000 HD
ENDBRANCH  12  13
ENDBRANCH   4   7
BRANCH   1  15
ATOM     15  C   UNL     1       7.073   4.479  14.639  0.00  0.00    +0.000 C 
BRANCH  15  16
ATOM     16  O   UNL     1       7.875   5.657  14.700  0.00  0.00    +0.000 OA
ATOM     17  H   UNL     1       8.800   5.386  14.815  0.00  0.00    +0.000 HD
ENDBRANCH  15  16
BRANCH  15  18
ATOM     18  C   UNL     1       6.258   4.482  13.338  0.00  0.00    +0.000 C 
BRANCH  18  19
ATOM     19  C   UNL     1       6.847   3.551  12.275  0.00  0.00    +0.000 C 
BRANCH  19  20
ATOM     20  C   UNL     1       5.740   2.725  11.619  0.00  0.00    +0.000 C 
BRANCH  20  21
ATOM     21  C   UNL     1       4.361   3.321  11.885  0.00  0.00    +0.000 C 
BRANCH  21  22
ATOM     22  C   UNL     1       3.420   3.077  10.713  0.00  0.00    +0.000 C 
BRANCH  22  23
ATOM     23  O   UNL     1       3.270   4.285   9.983  0.00  0.00    +0.000 OA
ATOM     24  H   UNL     1       2.507   4.754  10.362  0.00  0.00    +0.000 HD
ENDBRANCH  22  23
ENDBRANCH  21  22
ENDBRANCH  20  21
ENDBRANCH  19  20
ENDBRANCH  18  19
ENDBRANCH  15  18
ENDBRANCH   1  15
TORSDOF 10
ENDMDL
MODEL 4
REMARK VINA RESULT:      -7.1      1.835      7.430
REMARK  Name = 
REMARK  10 active torsions:
REMARK  status: ('A' for Active; 'I' for Inactive)
REMARK    1  A    between atoms: O_1  and  C_2
REMARK    2  A    between atoms: C_2  and  C_3
REMARK    3  A    between atoms: C_3  and  C_4
REMARK    4  A    between atoms: C_4  and  C_5
REMARK    5  A    between atoms: C_5  and  C_6
REMARK    6  A    between atoms: C_6  and  C_7
REMARK    7  A    between atoms: C_7  and  O_8
REMARK    8  A    between atoms: C_7  and  C_9
REMARK    9  A    between atoms: C_12  and  C_13
REMARK   10  A    between atoms: C_18  and  O_19
REMARK                            x       y       z     vdW  Elec       q    Type
REMARK                         _______ _______ _______ _____ _____    ______ ____
ROOT
ATOM      1  C   UNL     1       4.352   5.473  18.052  0.00  0.00    +0.000 A 
ATOM      2  C   UNL     1       4.585   6.451  17.081  0.00  0.00    +0.000 A 
ATOM      3  C   UNL     1       5.089   6.103  15.819  0.00  0.00    +0.000 A 
ATOM      4  C   UNL     1       5.405   4.772  15.487  0.00  0.00    +0.000 A 
ATOM      5  C   UNL     1       5.199   3.810  16.488  0.00  0.00    +0.000 A 
ATOM      6  C   UNL     1       4.667   4.146  17.739  0.00  0.00    +0.000 A 
ENDROOT
BRANCH   4   7
ATOM      7  C   UNL     1       5.940   4.411  14.143  0.00  0.00    +0.000 A 
ATOM      8  C   UNL     1       5.186   3.585  13.282  0.00  0.00    +0.000 A 
ATOM      9  C   UNL     1       5.652   3.207  12.016  0.00  0.00    +0.000 A 
ATOM     10  C   UNL     1       6.884   3.657  11.566  0.00  0.00    +0.000 A 
ATOM     11  C   UNL     1       7.653   4.484  12.377  0.00  0.00    +0.000 A 
ATOM     12  C   UNL     1       7.190   4.849  13.651  0.00  0.00    +0.000 A 
BRANCH  12  13
ATOM     13  O   UNL     1       8.001   5.640  14.426  0.00  0.00    +0.000 OA
ATOM     14  H   UNL     1       8.692   6.029  13.867  0.00  0.00    +0.000 HD
ENDBRANCH  12  13
ENDBRANCH   4   7
BRANCH   1  15
ATOM     15  C   UNL     1       3.739   5.855  19.385  0.00  0.00    +0.000 C 
BRANCH  15  16
ATOM     16  O   UNL     1       4.234   5.016  20.427  0.00  0.00    +0.000 OA
ATOM     17  H   UNL     1       3.854   4.131  20.308  0.00  0.00    +0.000 HD
ENDBRANCH  15  16
BRANCH  15  18
ATOM     18  C   UNL     1       2.208   5.766  19.341  0.00  0.00    +0.000 C 
BRANCH  18  19
ATOM     19  C   UNL     1       1.626   5.046  20.561  0.00  0.00    +0.000 C 
BRANCH  19  20
ATOM     20  C   UNL     1       0.827   3.818  20.125  0.00  0.00    +0.000 C 
BRANCH  20  21
ATOM     21  C   UNL     1       1.568   2.523  20.445  0.00  0.00    +0.000 C 
BRANCH  21  22
ATOM     22  C   UNL     1       2.226   1.944  19.200  0.00  0.00    +0.000 C 
BRANCH  22  23
ATOM     23  O   UNL     1       1.287   1.950  18.136  0.00  0.00    +0.000 OA
ATOM     24  H   UNL     1       1.753   2.271  17.346  0.00  0.00    +0.000 HD
ENDBRANCH  22  23
ENDBRANCH  21  22
ENDBRANCH  20  21
ENDBRANCH  19  20
ENDBRANCH  18  19
ENDBRANCH  15  18
ENDBRANCH   1  15
TORSDOF 10
ENDMDL
MODEL 5
REMARK VINA RESULT:      -7.1      1.545      1.918
REMARK  Name = 
REMARK  10 active torsions:
REMARK  status: ('A' for Active; 'I' for Inactive)
REMARK    1  A    between atoms: O_1  and  C_2
REMARK    2  A    between atoms: C_2  and  C_3
REMARK    3  A    between atoms: C_3  and  C_4
REMARK    4  A    between atoms: C_4  and  C_5
REMARK    5  A    between atoms: C_5  and  C_6
REMARK    6  A    between atoms: C_6  and  C_7
REMARK    7  A    between atoms: C_7  and  O_8
REMARK    8  A    between atoms: C_7  and  C_9
REMARK    9  A    between atoms: C_12  and  C_13
REMARK   10  A    between atoms: C_18  and  O_19
REMARK                            x       y       z     vdW  Elec       q    Type
REMARK                         _______ _______ _______ _____ _____    ______ ____
ROOT
ATOM      1  C   UNL     1       5.986   4.402  15.994  0.00  0.00    +0.000 A 
ATOM      2  C   UNL     1       6.403   4.491  17.325  0.00  0.00    +0.000 A 
ATOM      3  C   UNL     1       5.504   4.258  18.375  0.00  0.00    +0.000 A 
ATOM      4  C   UNL     1       4.150   3.953  18.141  0.00  0.00    +0.000 A 
ATOM      5  C   UNL     1       3.742   3.905  16.798  0.00  0.00    +0.000 A 
ATOM      6  C   UNL     1       4.641   4.107  15.744  0.00  0.00    +0.000 A 
ENDROOT
BRANCH   4   7
ATOM      7  C   UNL     1       3.201   3.706  19.264  0.00  0.00    +0.000 A 
ATOM      8  C   UNL     1       2.938   4.726  20.203  0.00  0.00    +0.000 A 
ATOM      9  C   UNL     1       2.066   4.537  21.283  0.00  0.00    +0.000 A 
ATOM     10  C   UNL     1       1.417   3.323  21.448  0.00  0.00    +0.000 A 
ATOM     11  C   UNL     1       1.637   2.295  20.537  0.00  0.00    +0.000 A 
ATOM     12  C   UNL     1       2.523   2.483  19.464  0.00  0.00    +0.000 A 
BRANCH  12  13
ATOM     13  O   UNL     1       2.731   1.427  18.613  0.00  0.00    +0.000 OA
ATOM     14  H   UNL     1       3.513   1.607  18.068  0.00  0.00    +0.000 HD
ENDBRANCH  12  13
ENDBRANCH   4   7
BRANCH   1  15
ATOM     15  C   UNL     1       6.985   4.586  14.868  0.00  0.00    +0.000 C 
BRANCH  15  16
ATOM     16  O   UNL     1       7.755   5.770  15.066  0.00  0.00    +0.000 OA
ATOM     17  H   UNL     1       7.473   6.177  15.901  0.00  0.00    +0.000 HD
ENDBRANCH  15  16
BRANCH  15  18
ATOM     18  C   UNL     1       6.283   4.653  13.505  0.00  0.00    +0.000 C 
BRANCH  18  19
ATOM     19  C   UNL     1       6.908   3.707  12.476  0.00  0.00    +0.000 C 
BRANCH  19  20
ATOM     20  C   UNL     1       5.825   2.869  11.797  0.00  0.00    +0.000 C 
BRANCH  20  21
ATOM     21  C   UNL     1       4.442   3.487  11.976  0.00  0.00    +0.000 C 
BRANCH  21  22
ATOM     22  C   UNL     1       3.514   3.100  10.832  0.00  0.00    +0.000 C 
BRANCH  22  23
ATOM     23  O   UNL     1       3.324   4.228   9.991  0.00  0.00    +0.000 OA
ATOM     24  H   UNL     1       2.366   4.374   9.922  0.00  0.00    +0.000 HD
ENDBRANCH  22  23
ENDBRANCH  21  22
ENDBRANCH  20  21
ENDBRANCH  19  20
ENDBRANCH  18  19
ENDBRANCH  15  18
ENDBRANCH   1  15
TORSDOF 10
ENDMDL
MODEL 6
REMARK VINA RESULT:      -7.1      3.914      6.179
REMARK  Name = 
REMARK  10 active torsions:
REMARK  status: ('A' for Active; 'I' for Inactive)
REMARK    1  A    between atoms: O_1  and  C_2
REMARK    2  A    between atoms: C_2  and  C_3
REMARK    3  A    between atoms: C_3  and  C_4
REMARK    4  A    between atoms: C_4  and  C_5
REMARK    5  A    between atoms: C_5  and  C_6
REMARK    6  A    between atoms: C_6  and  C_7
REMARK    7  A    between atoms: C_7  and  O_8
REMARK    8  A    between atoms: C_7  and  C_9
REMARK    9  A    between atoms: C_12  and  C_13
REMARK   10  A    between atoms: C_18  and  O_19
REMARK                            x       y       z     vdW  Elec       q    Type
REMARK                         _______ _______ _______ _____ _____    ______ ____
ROOT
ATOM      1  C   UNL     1       5.965   6.560  17.552  0.00  0.00    +0.000 A 
ATOM      2  C   UNL     1       6.189   5.452  18.375  0.00  0.00    +0.000 A 
ATOM      3  C   UNL     1       5.116   4.686  18.854  0.00  0.00    +0.000 A 
ATOM      4  C   UNL     1       3.779   5.010  18.554  0.00  0.00    +0.000 A 
ATOM      5  C   UNL     1       3.574   6.148  17.757  0.00  0.00    +0.000 A 
ATOM      6  C   UNL     1       4.641   6.898  17.250  0.00  0.00    +0.000 A 
ENDROOT
BRANCH   4   7
ATOM      7  C   UNL     1       2.645   4.190  19.067  0.00  0.00    +0.000 A 
ATOM      8  C   UNL     1       2.258   4.290  20.420  0.00  0.00    +0.000 A 
ATOM      9  C   UNL     1       1.208   3.530  20.952  0.00  0.00    +0.000 A 
ATOM     10  C   UNL     1       0.502   2.655  20.141  0.00  0.00    +0.000 A 
ATOM     11  C   UNL     1       0.843   2.536  18.798  0.00  0.00    +0.000 A 
ATOM     12  C   UNL     1       1.905   3.288  18.271  0.00  0.00    +0.000 A 
BRANCH  12  13
ATOM     13  O   UNL     1       2.222   3.110  16.947  0.00  0.00    +0.000 OA
ATOM     14  H   UNL     1       2.777   2.320  16.858  0.00  0.00    +0.000 HD
ENDBRANCH  12  13
ENDBRANCH   4   7
BRANCH   1  15
ATOM     15  C   UNL     1       7.138   7.335  16.983  0.00  0.00    +0.000 C 
BRANCH  15  16
ATOM     16  O   UNL     1       7.888   6.524  16.081  0.00  0.00    +0.000 OA
ATOM     17  H   UNL     1       7.820   6.915  15.195  0.00  0.00    +0.000 HD
ENDBRANCH  15  16
BRANCH  15  18
ATOM     18  C   UNL     1       8.059   7.848  18.097  0.00  0.00    +0.000 C 
BRANCH  18  19
ATOM     19  C   UNL     1       8.294   9.359  18.015  0.00  0.00    +0.000 C 
BRANCH  19  20
ATOM     20  C   UNL     1       9.236   9.813  19.129  0.00  0.00    +0.000 C 
BRANCH  20  21
ATOM     21  C   UNL     1       9.592  11.291  18.997  0.00  0.00    +0.000 C 
BRANCH  21  22
ATOM     22  C   UNL     1       9.373  12.030  20.310  0.00  0.00    +0.000 C 
BRANCH  22  23
ATOM     23  O   UNL     1       9.539  11.119  21.385  0.00  0.00    +0.000 OA
ATOM     24  H   UNL     1      10.319  10.576  21.181  0.00  0.00    +0.000 HD
ENDBRANCH  22  23
ENDBRANCH  21  22
ENDBRANCH  20  21
ENDBRANCH  19  20
ENDBRANCH  18  19
ENDBRANCH  15  18
ENDBRANCH   1  15
TORSDOF 10
ENDMDL
MODEL 7
REMARK VINA RESULT:      -7.0      3.008      3.494
REMARK  Name = 
REMARK  10 active torsions:
REMARK  status: ('A' for Active; 'I' for Inactive)
REMARK    1  A    between atoms: O_1  and  C_2
REMARK    2  A    between atoms: C_2  and  C_3
REMARK    3  A    between atoms: C_3  and  C_4
REMARK    4  A    between atoms: C_4  and  C_5
REMARK    5  A    between atoms: C_5  and  C_6
REMARK    6  A    between atoms: C_6  and  C_7
REMARK    7  A    between atoms: C_7  and  O_8
REMARK    8  A    between atoms: C_7  and  C_9
REMARK    9  A    between atoms: C_12  and  C_13
REMARK   10  A    between atoms: C_18  and  O_19
REMARK                            x       y       z     vdW  Elec       q    Type
REMARK                         _______ _______ _______ _____ _____    ______ ____
ROOT
ATOM      1  C   UNL     1       5.323   4.905  16.431  0.00  0.00    +0.000 A 
ATOM      2  C   UNL     1       4.166   4.423  17.049  0.00  0.00    +0.000 A 
ATOM      3  C   UNL     1       3.278   5.297  17.694  0.00  0.00    +0.000 A 
ATOM      4  C   UNL     1       3.524   6.681  17.770  0.00  0.00    +0.000 A 
ATOM      5  C   UNL     1       4.710   7.141  17.176  0.00  0.00    +0.000 A 
ATOM      6  C   UNL     1       5.584   6.278  16.504  0.00  0.00    +0.000 A 
ENDROOT
BRANCH   4   7
ATOM      7  C   UNL     1       2.575   7.603  18.457  0.00  0.00    +0.000 A 
ATOM      8  C   UNL     1       2.041   8.711  17.763  0.00  0.00    +0.000 A 
ATOM      9  C   UNL     1       1.157   9.613  18.370  0.00  0.00    +0.000 A 
ATOM     10  C   UNL     1       0.768   9.426  19.687  0.00  0.00    +0.000 A 
ATOM     11  C   UNL     1       1.260   8.340  20.402  0.00  0.00    +0.000 A 
ATOM     12  C   UNL     1       2.157   7.446  19.797  0.00  0.00    +0.000 A 
BRANCH  12  13
ATOM     13  O   UNL     1       2.639   6.409  20.556  0.00  0.00    +0.000 OA
ATOM     14  H   UNL     1       1.893   5.930  20.950  0.00  0.00    +0.000 HD
ENDBRANCH  12  13
ENDBRANCH   4   7
BRANCH   1  15
ATOM     15  C   UNL     1       6.235   3.958  15.677  0.00  0.00    +0.000 C 
BRANCH  15  16
ATOM     16  O   UNL     1       7.598   4.351  15.818  0.00  0.00    +0.000 OA
ATOM     17  H   UNL     1       8.154   3.661  15.423  0.00  0.00    +0.000 HD
ENDBRANCH  15  16
BRANCH  15  18
ATOM     18  C   UNL     1       5.870   3.902  14.187  0.00  0.00    +0.000 C 
BRANCH  18  19
ATOM     19  C   UNL     1       6.960   4.498  13.293  0.00  0.00    +0.000 C 
BRANCH  19  20
ATOM     20  C   UNL     1       6.922   3.857  11.906  0.00  0.00    +0.000 C 
BRANCH  20  21
ATOM     21  C   UNL     1       6.025   2.622  11.883  0.00  0.00    +0.000 C 
BRANCH  21  22
ATOM     22  C   UNL     1       6.654   1.500  11.069  0.00  0.00    +0.000 C 
BRANCH  22  23
ATOM     23  O   UNL     1       6.127   0.258  11.511  0.00  0.00    +0.000 OA
ATOM     24  H   UNL     1       5.839  -0.228  10.720  0.00  0.00    +0.000 HD
ENDBRANCH  22  23
ENDBRANCH  21  22
ENDBRANCH  20  21
ENDBRANCH  19  20
ENDBRANCH  18  19
ENDBRANCH  15  18
ENDBRANCH   1  15
TORSDOF 10
ENDMDL
MODEL 8
REMARK VINA RESULT:      -7.0      3.836      5.917
REMARK  Name = 
REMARK  10 active torsions:
REMARK  status: ('A' for Active; 'I' for Inactive)
REMARK    1  A    between atoms: O_1  and  C_2
REMARK    2  A    between atoms: C_2  and  C_3
REMARK    3  A    between atoms: C_3  and  C_4
REMARK    4  A    between atoms: C_4  and  C_5
REMARK    5  A    between atoms: C_5  and  C_6
REMARK    6  A    between atoms: C_6  and  C_7
REMARK    7  A    between atoms: C_7  and  O_8
REMARK    8  A    between atoms: C_7  and  C_9
REMARK    9  A    between atoms: C_12  and  C_13
REMARK   10  A    between atoms: C_18  and  O_19
REMARK                            x       y       z     vdW  Elec       q    Type
REMARK                         _______ _______ _______ _____ _____    ______ ____
ROOT
ATOM      1  C   UNL     1       5.926   6.551  17.518  0.00  0.00    +0.000 A 
ATOM      2  C   UNL     1       6.156   5.412  18.295  0.00  0.00    +0.000 A 
ATOM      3  C   UNL     1       5.086   4.648  18.782  0.00  0.00    +0.000 A 
ATOM      4  C   UNL     1       3.746   5.004  18.537  0.00  0.00    +0.000 A 
ATOM      5  C   UNL     1       3.536   6.172  17.786  0.00  0.00    +0.000 A 
ATOM      6  C   UNL     1       4.599   6.922  17.271  0.00  0.00    +0.000 A 
ENDROOT
BRANCH   4   7
ATOM      7  C   UNL     1       2.615   4.185  19.058  0.00  0.00    +0.000 A 
ATOM      8  C   UNL     1       2.026   3.195  18.243  0.00  0.00    +0.000 A 
ATOM      9  C   UNL     1       0.952   2.410  18.683  0.00  0.00    +0.000 A 
ATOM     10  C   UNL     1       0.443   2.583  19.961  0.00  0.00    +0.000 A 
ATOM     11  C   UNL     1       1.003   3.539  20.801  0.00  0.00    +0.000 A 
ATOM     12  C   UNL     1       2.069   4.334  20.352  0.00  0.00    +0.000 A 
BRANCH  12  13
ATOM     13  O   UNL     1       2.564   5.285  21.209  0.00  0.00    +0.000 OA
ATOM     14  H   UNL     1       2.847   4.855  22.031  0.00  0.00    +0.000 HD
ENDBRANCH  12  13
ENDBRANCH   4   7
BRANCH   1  15
ATOM     15  C   UNL     1       7.093   7.326  16.938  0.00  0.00    +0.000 C 
BRANCH  15  16
ATOM     16  O   UNL     1       7.894   6.486  16.109  0.00  0.00    +0.000 OA
ATOM     17  H   UNL     1       7.307   6.025  15.490  0.00  0.00    +0.000 HD
ENDBRANCH  15  16
BRANCH  15  18
ATOM     18  C   UNL     1       7.964   7.933  18.046  0.00  0.00    +0.000 C 
BRANCH  18  19
ATOM     19  C   UNL     1       8.053   9.459  17.954  0.00  0.00    +0.000 C 
BRANCH  19  20
ATOM     20  C   UNL     1       9.123   9.989  18.907  0.00  0.00    +0.000 C 
BRANCH  20  21
ATOM     21  C   UNL     1       9.891  11.158  18.296  0.00  0.00    +0.000 C 
BRANCH  21  22
ATOM     22  C   UNL     1       9.095  12.452  18.397  0.00  0.00    +0.000 C 
BRANCH  22  23
ATOM     23  O   UNL     1       9.240  13.178  17.185  0.00  0.00    +0.000 OA
ATOM     24  H   UNL     1       9.998  13.775  17.300  0.00  0.00    +0.000 HD
ENDBRANCH  22  23
ENDBRANCH  21  22
ENDBRANCH  20  21
ENDBRANCH  19  20
ENDBRANCH  18  19
ENDBRANCH  15  18
ENDBRANCH   1  15
TORSDOF 10
ENDMDL
MODEL 9
REMARK VINA RESULT:      -7.0      3.796      5.849
REMARK  Name = 
REMARK  10 active torsions:
REMARK  status: ('A' for Active; 'I' for Inactive)
REMARK    1  A    between atoms: O_1  and  C_2
REMARK    2  A    between atoms: C_2  and  C_3
REMARK    3  A    between atoms: C_3  and  C_4
REMARK    4  A    between atoms: C_4  and  C_5
REMARK    5  A    between atoms: C_5  and  C_6
REMARK    6  A    between atoms: C_6  and  C_7
REMARK    7  A    between atoms: C_7  and  O_8
REMARK    8  A    between atoms: C_7  and  C_9
REMARK    9  A    between atoms: C_12  and  C_13
REMARK   10  A    between atoms: C_18  and  O_19
REMARK                            x       y       z     vdW  Elec       q    Type
REMARK                         _______ _______ _______ _____ _____    ______ ____
ROOT
ATOM      1  C   UNL     1       6.055   6.620  17.543  0.00  0.00    +0.000 A 
ATOM      2  C   UNL     1       4.736   7.004  17.287  0.00  0.00    +0.000 A 
ATOM      3  C   UNL     1       3.660   6.250  17.778  0.00  0.00    +0.000 A 
ATOM      4  C   UNL     1       3.858   5.070  18.519  0.00  0.00    +0.000 A 
ATOM      5  C   UNL     1       5.190   4.680  18.734  0.00  0.00    +0.000 A 
ATOM      6  C   UNL     1       6.268   5.445  18.273  0.00  0.00    +0.000 A 
ENDROOT
BRANCH   4   7
ATOM      7  C   UNL     1       2.709   4.274  19.037  0.00  0.00    +0.000 A 
ATOM      8  C   UNL     1       2.134   3.262  18.239  0.00  0.00    +0.000 A 
ATOM      9  C   UNL     1       1.044   2.498  18.676  0.00  0.00    +0.000 A 
ATOM     10  C   UNL     1       0.505   2.713  19.935  0.00  0.00    +0.000 A 
ATOM     11  C   UNL     1       1.050   3.691  20.759  0.00  0.00    +0.000 A 
ATOM     12  C   UNL     1       2.133   4.466  20.312  0.00  0.00    +0.000 A 
BRANCH  12  13
ATOM     13  O   UNL     1       2.613   5.440  21.152  0.00  0.00    +0.000 OA
ATOM     14  H   UNL     1       3.432   5.127  21.566  0.00  0.00    +0.000 HD
ENDBRANCH  12  13
ENDBRANCH   4   7
BRANCH   1  15
ATOM     15  C   UNL     1       7.206   7.485  17.068  0.00  0.00    +0.000 C 
BRANCH  15  16
ATOM     16  O   UNL     1       8.018   6.775  16.135  0.00  0.00    +0.000 OA
ATOM     17  H   UNL     1       8.946   7.000  16.310  0.00  0.00    +0.000 HD
ENDBRANCH  15  16
BRANCH  15  18
ATOM     18  C   UNL     1       8.071   7.956  18.245  0.00  0.00    +0.000 C 
BRANCH  18  19
ATOM     19  C   UNL     1       8.506   9.417  18.105  0.00  0.00    +0.000 C 
BRANCH  19  20
ATOM     20  C   UNL     1       9.157   9.906  19.399  0.00  0.00    +0.000 C 
BRANCH  20  21
ATOM     21  C   UNL     1       9.976  11.173  19.173  0.00  0.00    +0.000 C 
BRANCH  21  22
ATOM     22  C   UNL     1      10.401  11.302  17.717  0.00  0.00    +0.000 C 
BRANCH  22  23
ATOM     23  O   UNL     1      11.797  11.556  17.666  0.00  0.00    +0.000 OA
ATOM     24  H   UNL     1      11.955  12.125  16.894  0.00  0.00    +0.000 HD
ENDBRANCH  22  23
ENDBRANCH  21  22
ENDBRANCH  20  21
ENDBRANCH  19  20
ENDBRANCH  18  19
ENDBRANCH  15  18
ENDBRANCH   1  15
TORSDOF 10
ENDMDL
