MODEL 1
REMARK VINA RESULT:      -6.9      0.000      0.000
REMARK  Name = 
REMARK  3 active torsions:
REMARK  status: ('A' for Active; 'I' for Inactive)
REMARK    1  A    between atoms: C_2  and  C_3
REMARK    2  A    between atoms: C_13  and  C_14
REMARK    3  A    between atoms: C_14  and  C_15
REMARK                            x       y       z     vdW  Elec       q    Type
REMARK                         _______ _______ _______ _____ _____    ______ ____
ROOT
ATOM      1  O   UNL     1       6.141   6.081  19.548  0.00  0.00    +0.000 OA
ATOM      2  C   UNL     1       5.379   5.408  18.853  0.00  0.00    +0.000 C 
ATOM      3  N   UNL     1       5.538   5.278  17.468  0.00  0.00    +0.000 N 
ATOM      4  C   UNL     1       4.644   4.589  16.544  0.00  0.00    +0.000 C 
ATOM      5  C   UNL     1       5.384   3.379  15.978  0.00  0.00    +0.000 C 
ATOM      6  C   UNL     1       6.633   3.829  15.194  0.00  0.00    +0.000 C 
ATOM      7  C   UNL     1       7.516   4.717  16.105  0.00  0.00    +0.000 C 
ATOM      8  C   UNL     1       6.736   5.823  16.830  0.00  0.00    +0.000 C 
ENDROOT
BRANCH   2   9
ATOM      9  C   UNL     1       4.249   4.747  19.551  0.00  0.00    +0.000 A 
ATOM     10  C   UNL     1       3.079   5.403  19.942  0.00  0.00    +0.000 A 
ATOM     11  C   UNL     1       2.114   4.723  20.680  0.00  0.00    +0.000 A 
ATOM     12  C   UNL     1       2.315   3.377  20.922  0.00  0.00    +0.000 A 
ATOM     13 CL   UNL     1       1.175   2.473  21.826  0.00  0.00    +0.000 Cl
ATOM     14  N   UNL     1       3.384   2.679  20.487  0.00  0.00    +0.000 NA
ATOM     15  C   UNL     1       4.326   3.382  19.804  0.00  0.00    +0.000 A 
ENDBRANCH   2   9
BRANCH   6  16
ATOM     16  C   UNL     1       6.276   4.556  13.876  0.00  0.00    +0.000 C 
BRANCH  16  17
ATOM     17  C   UNL     1       5.746   3.657  12.783  0.00  0.00    +0.000 A 
ATOM     18  C   UNL     1       4.477   3.883  12.225  0.00  0.00    +0.000 A 
ATOM     19  C   UNL     1       4.003   3.079  11.184  0.00  0.00    +0.000 A 
ATOM     20  C   UNL     1       4.789   2.041  10.689  0.00  0.00    +0.000 A 
ATOM     21  C   UNL     1       6.044   1.796  11.247  0.00  0.00    +0.000 A 
ATOM     22  C   UNL     1       6.520   2.599  12.285  0.00  0.00    +0.000 A 
ENDBRANCH  16  17
ENDBRANCH   6  16
TORSDOF 3
ENDMDL
MODEL 2
REMARK VINA RESULT:      -6.7      0.168      1.042
REMARK  Name = 
REMARK  3 active torsions:
REMARK  status: ('A' for Active; 'I' for Inactive)
REMARK    1  A    between atoms: C_2  and  C_3
REMARK    2  A    between atoms: C_13  and  C_14
REMARK    3  A    between atoms: C_14  and  C_15
REMARK                            x       y       z     vdW  Elec       q    Type
REMARK                         _______ _______ _______ _____ _____    ______ ____
ROOT
ATOM      1  O   UNL     1       6.082   6.247  19.413  0.00  0.00    +0.000 OA
ATOM      2  C   UNL     1       5.344   5.550  18.718  0.00  0.00    +0.000 C 
ATOM      3  N   UNL     1       5.529   5.398  17.337  0.00  0.00    +0.000 N 
ATOM      4  C   UNL     1       4.662   4.678  16.411  0.00  0.00    +0.000 C 
ATOM      5  C   UNL     1       5.432   3.470  15.880  0.00  0.00    +0.000 C 
ATOM      6  C   UNL     1       6.687   3.927  15.110  0.00  0.00    +0.000 C 
ATOM      7  C   UNL     1       7.539   4.846  16.020  0.00  0.00    +0.000 C 
ATOM      8  C   UNL     1       6.729   5.951  16.711  0.00  0.00    +0.000 C 
ENDROOT
BRANCH   2   9
ATOM      9  C   UNL     1       4.212   4.883  19.407  0.00  0.00    +0.000 A 
ATOM     10  C   UNL     1       3.019   5.522  19.752  0.00  0.00    +0.000 A 
ATOM     11  C   UNL     1       2.052   4.841  20.486  0.00  0.00    +0.000 A 
ATOM     12  C   UNL     1       2.278   3.507  20.771  0.00  0.00    +0.000 A 
ATOM     13 CL   UNL     1       1.137   2.602  21.674  0.00  0.00    +0.000 Cl
ATOM     14  N   UNL     1       3.372   2.822  20.381  0.00  0.00    +0.000 NA
ATOM     15  C   UNL     1       4.314   3.527  19.701  0.00  0.00    +0.000 A 
ENDBRANCH   2   9
BRANCH   6  16
ATOM     16  C   UNL     1       6.341   4.625  13.773  0.00  0.00    +0.000 C 
BRANCH  16  17
ATOM     17  C   UNL     1       5.819   3.702  12.696  0.00  0.00    +0.000 A 
ATOM     18  C   UNL     1       6.596   2.624  12.242  0.00  0.00    +0.000 A 
ATOM     19  C   UNL     1       6.099   1.742  11.277  0.00  0.00    +0.000 A 
ATOM     20  C   UNL     1       4.821   1.929  10.754  0.00  0.00    +0.000 A 
ATOM     21  C   UNL     1       4.047   3.006  11.184  0.00  0.00    +0.000 A 
ATOM     22  C   UNL     1       4.541   3.886  12.149  0.00  0.00    +0.000 A 
ENDBRANCH  16  17
ENDBRANCH   6  16
TORSDOF 3
ENDMDL
MODEL 3
REMARK VINA RESULT:      -6.7      3.165      4.053
REMARK  Name = 
REMARK  3 active torsions:
REMARK  status: ('A' for Active; 'I' for Inactive)
REMARK    1  A    between atoms: C_2  and  C_3
REMARK    2  A    between atoms: C_13  and  C_14
REMARK    3  A    between atoms: C_14  and  C_15
REMARK                            x       y       z     vdW  Elec       q    Type
REMARK                         _______ _______ _______ _____ _____    ______ ____
ROOT
ATOM      1  O   UNL     1       2.747   5.061  20.651  0.00  0.00    +0.000 OA
ATOM      2  C   UNL     1       3.046   5.765  19.688  0.00  0.00    +0.000 C 
ATOM      3  N   UNL     1       4.016   5.389  18.750  0.00  0.00    +0.000 N 
ATOM      4  C   UNL     1       4.511   6.187  17.633  0.00  0.00    +0.000 C 
ATOM      5  C   UNL     1       4.083   5.507  16.335  0.00  0.00    +0.000 C 
ATOM      6  C   UNL     1       4.704   4.099  16.234  0.00  0.00    +0.000 C 
ATOM      7  C   UNL     1       4.339   3.287  17.501  0.00  0.00    +0.000 C 
ATOM      8  C   UNL     1       4.590   4.046  18.812  0.00  0.00    +0.000 C 
ENDROOT
BRANCH   2   9
ATOM      9  C   UNL     1       2.343   7.066  19.569  0.00  0.00    +0.000 A 
ATOM     10  C   UNL     1       2.252   7.802  18.385  0.00  0.00    +0.000 A 
ATOM     11  C   UNL     1       1.657   9.060  18.392  0.00  0.00    +0.000 A 
ATOM     12  C   UNL     1       1.089   9.500  19.573  0.00  0.00    +0.000 A 
ATOM     13 CL   UNL     1       0.342  11.040  19.663  0.00  0.00    +0.000 Cl
ATOM     14  N   UNL     1       1.071   8.788  20.718  0.00  0.00    +0.000 NA
ATOM     15  C   UNL     1       1.696   7.581  20.687  0.00  0.00    +0.000 A 
ENDBRANCH   2   9
BRANCH   6  16
ATOM     16  C   UNL     1       6.235   4.141  16.015  0.00  0.00    +0.000 C 
BRANCH  16  17
ATOM     17  C   UNL     1       6.662   4.283  14.572  0.00  0.00    +0.000 A 
ATOM     18  C   UNL     1       6.074   3.491  13.572  0.00  0.00    +0.000 A 
ATOM     19  C   UNL     1       6.436   3.650  12.231  0.00  0.00    +0.000 A 
ATOM     20  C   UNL     1       7.390   4.600  11.873  0.00  0.00    +0.000 A 
ATOM     21  C   UNL     1       7.994   5.381  12.859  0.00  0.00    +0.000 A 
ATOM     22  C   UNL     1       7.632   5.224  14.199  0.00  0.00    +0.000 A 
ENDBRANCH  16  17
ENDBRANCH   6  16
TORSDOF 3
ENDMDL
MODEL 4
REMARK VINA RESULT:      -6.7      4.497      6.518
REMARK  Name = 
REMARK  3 active torsions:
REMARK  status: ('A' for Active; 'I' for Inactive)
REMARK    1  A    between atoms: C_2  and  C_3
REMARK    2  A    between atoms: C_13  and  C_14
REMARK    3  A    between atoms: C_14  and  C_15
REMARK                            x       y       z     vdW  Elec       q    Type
REMARK                         _______ _______ _______ _____ _____    ______ ____
ROOT
ATOM      1  O   UNL     1       0.121   7.693  21.625  0.00  0.00    +0.000 OA
ATOM      2  C   UNL     1       0.969   7.880  20.753  0.00  0.00    +0.000 C 
ATOM      3  N   UNL     1       1.849   6.876  20.328  0.00  0.00    +0.000 N 
ATOM      4  C   UNL     1       2.946   7.018  19.377  0.00  0.00    +0.000 C 
ATOM      5  C   UNL     1       2.610   6.194  18.136  0.00  0.00    +0.000 C 
ATOM      6  C   UNL     1       2.477   4.701  18.499  0.00  0.00    +0.000 C 
ATOM      7  C   UNL     1       1.441   4.543  19.639  0.00  0.00    +0.000 C 
ATOM      8  C   UNL     1       1.663   5.509  20.812  0.00  0.00    +0.000 C 
ENDROOT
BRANCH   2   9
ATOM      9  C   UNL     1       1.041   9.244  20.175  0.00  0.00    +0.000 A 
ATOM     10  C   UNL     1       1.112   9.511  18.805  0.00  0.00    +0.000 A 
ATOM     11  C   UNL     1       1.277  10.820  18.359  0.00  0.00    +0.000 A 
ATOM     12  C   UNL     1       1.273  11.830  19.304  0.00  0.00    +0.000 A 
ATOM     13 CL   UNL     1       1.475  13.465  18.834  0.00  0.00    +0.000 Cl
ATOM     14  N   UNL     1       1.116  11.630  20.628  0.00  0.00    +0.000 NA
ATOM     15  C   UNL     1       0.998  10.337  21.033  0.00  0.00    +0.000 A 
ENDBRANCH   2   9
BRANCH   6  16
ATOM     16  C   UNL     1       3.833   4.061  18.879  0.00  0.00    +0.000 C 
BRANCH  16  17
ATOM     17  C   UNL     1       4.926   4.240  17.850  0.00  0.00    +0.000 A 
ATOM     18  C   UNL     1       6.189   4.723  18.229  0.00  0.00    +0.000 A 
ATOM     19  C   UNL     1       7.216   4.850  17.288  0.00  0.00    +0.000 A 
ATOM     20  C   UNL     1       6.992   4.497  15.959  0.00  0.00    +0.000 A 
ATOM     21  C   UNL     1       5.736   4.032  15.568  0.00  0.00    +0.000 A 
ATOM     22  C   UNL     1       4.711   3.904  16.507  0.00  0.00    +0.000 A 
ENDBRANCH  16  17
ENDBRANCH   6  16
TORSDOF 3
ENDMDL
MODEL 5
REMARK VINA RESULT:      -6.7      4.398      6.397
REMARK  Name = 
REMARK  3 active torsions:
REMARK  status: ('A' for Active; 'I' for Inactive)
REMARK    1  A    between atoms: C_2  and  C_3
REMARK    2  A    between atoms: C_13  and  C_14
REMARK    3  A    between atoms: C_14  and  C_15
REMARK                            x       y       z     vdW  Elec       q    Type
REMARK                         _______ _______ _______ _____ _____    ______ ____
ROOT
ATOM      1  O   UNL     1       0.341   7.664  21.581  0.00  0.00    +0.000 OA
ATOM      2  C   UNL     1       1.143   7.790  20.656  0.00  0.00    +0.000 C 
ATOM      3  N   UNL     1       1.989   6.753  20.243  0.00  0.00    +0.000 N 
ATOM      4  C   UNL     1       3.036   6.826  19.230  0.00  0.00    +0.000 C 
ATOM      5  C   UNL     1       2.626   5.937  18.057  0.00  0.00    +0.000 C 
ATOM      6  C   UNL     1       2.498   4.470  18.512  0.00  0.00    +0.000 C 
ATOM      7  C   UNL     1       1.523   4.390  19.712  0.00  0.00    +0.000 C 
ATOM      8  C   UNL     1       1.816   5.418  20.814  0.00  0.00    +0.000 C 
ENDROOT
BRANCH   2   9
ATOM      9  C   UNL     1       1.197   9.118  19.997  0.00  0.00    +0.000 A 
ATOM     10  C   UNL     1       1.484   9.309  18.643  0.00  0.00    +0.000 A 
ATOM     11  C   UNL     1       1.611  10.599  18.135  0.00  0.00    +0.000 A 
ATOM     12  C   UNL     1       1.355  11.658  18.986  0.00  0.00    +0.000 A 
ATOM     13 CL   UNL     1       1.494  13.274  18.436  0.00  0.00    +0.000 Cl
ATOM     14  N   UNL     1       0.986  11.522  20.276  0.00  0.00    +0.000 NA
ATOM     15  C   UNL     1       0.910  10.251  20.751  0.00  0.00    +0.000 A 
ENDBRANCH   2   9
BRANCH   6  16
ATOM     16  C   UNL     1       3.866   3.834  18.856  0.00  0.00    +0.000 C 
BRANCH  16  17
ATOM     17  C   UNL     1       4.956   4.094  17.842  0.00  0.00    +0.000 A 
ATOM     18  C   UNL     1       4.750   3.802  16.484  0.00  0.00    +0.000 A 
ATOM     19  C   UNL     1       5.740   4.081  15.536  0.00  0.00    +0.000 A 
ATOM     20  C   UNL     1       6.946   4.653  15.935  0.00  0.00    +0.000 A 
ATOM     21  C   UNL     1       7.168   4.932  17.283  0.00  0.00    +0.000 A 
ATOM     22  C   UNL     1       6.180   4.655  18.230  0.00  0.00    +0.000 A 
ENDBRANCH  16  17
ENDBRANCH   6  16
TORSDOF 3
ENDMDL
MODEL 6
REMARK VINA RESULT:      -6.5      0.605      1.460
REMARK  Name = 
REMARK  3 active torsions:
REMARK  status: ('A' for Active; 'I' for Inactive)
REMARK    1  A    between atoms: C_2  and  C_3
REMARK    2  A    between atoms: C_13  and  C_14
REMARK    3  A    between atoms: C_14  and  C_15
REMARK                            x       y       z     vdW  Elec       q    Type
REMARK                         _______ _______ _______ _____ _____    ______ ____
ROOT
ATOM      1  O   UNL     1       6.272   5.943  19.550  0.00  0.00    +0.000 OA
ATOM      2  C   UNL     1       5.515   5.257  18.864  0.00  0.00    +0.000 C 
ATOM      3  N   UNL     1       5.629   5.171  17.470  0.00  0.00    +0.000 N 
ATOM      4  C   UNL     1       4.731   4.470  16.559  0.00  0.00    +0.000 C 
ATOM      5  C   UNL     1       5.500   3.308  15.934  0.00  0.00    +0.000 C 
ATOM      6  C   UNL     1       6.700   3.832  15.119  0.00  0.00    +0.000 C 
ATOM      7  C   UNL     1       7.578   4.732  16.024  0.00  0.00    +0.000 C 
ATOM      8  C   UNL     1       6.779   5.783  16.807  0.00  0.00    +0.000 C 
ENDROOT
BRANCH   2   9
ATOM      9  C   UNL     1       4.439   4.530  19.581  0.00  0.00    +0.000 A 
ATOM     10  C   UNL     1       4.468   3.160  19.853  0.00  0.00    +0.000 A 
ATOM     11  C   UNL     1       3.367   2.546  20.444  0.00  0.00    +0.000 A 
ATOM     12  C   UNL     1       2.308   3.347  20.828  0.00  0.00    +0.000 A 
ATOM     13 CL   UNL     1       0.916   2.665  21.558  0.00  0.00    +0.000 Cl
ATOM     14  N   UNL     1       2.273   4.686  20.669  0.00  0.00    +0.000 NA
ATOM     15  C   UNL     1       3.346   5.248  20.052  0.00  0.00    +0.000 A 
ENDBRANCH   2   9
BRANCH   6  16
ATOM     16  C   UNL     1       6.266   4.578  13.836  0.00  0.00    +0.000 C 
BRANCH  16  17
ATOM     17  C   UNL     1       5.798   3.681  12.712  0.00  0.00    +0.000 A 
ATOM     18  C   UNL     1       6.638   2.677  12.204  0.00  0.00    +0.000 A 
ATOM     19  C   UNL     1       6.192   1.818  11.194  0.00  0.00    +0.000 A 
ATOM     20  C   UNL     1       4.905   1.954  10.681  0.00  0.00    +0.000 A 
ATOM     21  C   UNL     1       4.067   2.959  11.166  0.00  0.00    +0.000 A 
ATOM     22  C   UNL     1       4.510   3.816  12.175  0.00  0.00    +0.000 A 
ENDBRANCH  16  17
ENDBRANCH   6  16
TORSDOF 3
ENDMDL
MODEL 7
REMARK VINA RESULT:      -6.5      5.862     10.203
REMARK  Name = 
REMARK  3 active torsions:
REMARK  status: ('A' for Active; 'I' for Inactive)
REMARK    1  A    between atoms: C_2  and  C_3
REMARK    2  A    between atoms: C_13  and  C_14
REMARK    3  A    between atoms: C_14  and  C_15
REMARK                            x       y       z     vdW  Elec       q    Type
REMARK                         _______ _______ _______ _____ _____    ______ ____
ROOT
ATOM      1  O   UNL     1       2.388   8.442  17.212  0.00  0.00    +0.000 OA
ATOM      2  C   UNL     1       2.231   7.915  18.312  0.00  0.00    +0.000 C 
ATOM      3  N   UNL     1       1.761   8.621  19.428  0.00  0.00    +0.000 N 
ATOM      4  C   UNL     1       1.631   8.119  20.791  0.00  0.00    +0.000 C 
ATOM      5  C   UNL     1       0.146   8.075  21.143  0.00  0.00    +0.000 C 
ATOM      6  C   UNL     1      -0.463   9.490  21.090  0.00  0.00    +0.000 C 
ATOM      7  C   UNL     1      -0.180  10.117  19.702  0.00  0.00    +0.000 C 
ATOM      8  C   UNL     1       1.284   9.992  19.258  0.00  0.00    +0.000 C 
ENDROOT
BRANCH   2   9
ATOM      9  C   UNL     1       2.590   6.479  18.422  0.00  0.00    +0.000 A 
ATOM     10  C   UNL     1       1.742   5.431  18.055  0.00  0.00    +0.000 A 
ATOM     11  C   UNL     1       2.127   4.113  18.287  0.00  0.00    +0.000 A 
ATOM     12  C   UNL     1       3.393   3.889  18.795  0.00  0.00    +0.000 A 
ATOM     13 CL   UNL     1       3.938   2.295  19.110  0.00  0.00    +0.000 Cl
ATOM     14  N   UNL     1       4.281   4.864  19.078  0.00  0.00    +0.000 NA
ATOM     15  C   UNL     1       3.859   6.140  18.879  0.00  0.00    +0.000 A 
ENDBRANCH   2   9
BRANCH   6  16
ATOM     16  C   UNL     1       0.048  10.399  22.232  0.00  0.00    +0.000 C 
BRANCH  16  17
ATOM     17  C   UNL     1      -0.832  11.590  22.533  0.00  0.00    +0.000 A 
ATOM     18  C   UNL     1      -0.449  12.880  22.130  0.00  0.00    +0.000 A 
ATOM     19  C   UNL     1      -1.281  13.978  22.368  0.00  0.00    +0.000 A 
ATOM     20  C   UNL     1      -2.503  13.802  23.012  0.00  0.00    +0.000 A 
ATOM     21  C   UNL     1      -2.886  12.528  23.433  0.00  0.00    +0.000 A 
ATOM     22  C   UNL     1      -2.057  11.430  23.194  0.00  0.00    +0.000 A 
ENDBRANCH  16  17
ENDBRANCH   6  16
TORSDOF 3
ENDMDL
MODEL 8
REMARK VINA RESULT:      -6.5      5.805     10.139
REMARK  Name = 
REMARK  3 active torsions:
REMARK  status: ('A' for Active; 'I' for Inactive)
REMARK    1  A    between atoms: C_2  and  C_3
REMARK    2  A    between atoms: C_13  and  C_14
REMARK    3  A    between atoms: C_14  and  C_15
REMARK                            x       y       z     vdW  Elec       q    Type
REMARK                         _______ _______ _______ _____ _____    ______ ____
ROOT
ATOM      1  O   UNL     1       2.455   8.308  17.244  0.00  0.00    +0.000 OA
ATOM      2  C   UNL     1       2.291   7.802  18.354  0.00  0.00    +0.000 C 
ATOM      3  N   UNL     1       1.814   8.529  19.452  0.00  0.00    +0.000 N 
ATOM      4  C   UNL     1       1.676   8.053  20.824  0.00  0.00    +0.000 C 
ATOM      5  C   UNL     1       0.189   8.015  21.168  0.00  0.00    +0.000 C 
ATOM      6  C   UNL     1      -0.421   9.428  21.084  0.00  0.00    +0.000 C 
ATOM      7  C   UNL     1      -0.130  10.029  19.686  0.00  0.00    +0.000 C 
ATOM      8  C   UNL     1       1.338   9.896  19.253  0.00  0.00    +0.000 C 
ENDROOT
BRANCH   2   9
ATOM      9  C   UNL     1       2.650   6.369  18.493  0.00  0.00    +0.000 A 
ATOM     10  C   UNL     1       1.835   5.314  18.075  0.00  0.00    +0.000 A 
ATOM     11  C   UNL     1       2.211   3.999  18.337  0.00  0.00    +0.000 A 
ATOM     12  C   UNL     1       3.442   3.785  18.930  0.00  0.00    +0.000 A 
ATOM     13 CL   UNL     1       3.973   2.195  19.287  0.00  0.00    +0.000 Cl
ATOM     14  N   UNL     1       4.303   4.766  19.268  0.00  0.00    +0.000 NA
ATOM     15  C   UNL     1       3.887   6.039  19.035  0.00  0.00    +0.000 A 
ENDBRANCH   2   9
BRANCH   6  16
ATOM     16  C   UNL     1       0.083  10.359  22.212  0.00  0.00    +0.000 C 
BRANCH  16  17
ATOM     17  C   UNL     1      -0.796  11.560  22.479  0.00  0.00    +0.000 A 
ATOM     18  C   UNL     1      -2.013  11.414  23.163  0.00  0.00    +0.000 A 
ATOM     19  C   UNL     1      -2.808  12.529  23.450  0.00  0.00    +0.000 A 
ATOM     20  C   UNL     1      -2.396  13.800  23.056  0.00  0.00    +0.000 A 
ATOM     21  C   UNL     1      -1.196  13.955  22.360  0.00  0.00    +0.000 A 
ATOM     22  C   UNL     1      -0.401  12.843  22.075  0.00  0.00    +0.000 A 
ENDBRANCH  16  17
ENDBRANCH   6  16
TORSDOF 3
ENDMDL
MODEL 9
REMARK VINA RESULT:      -6.4      0.598      1.036
REMARK  Name = 
REMARK  3 active torsions:
REMARK  status: ('A' for Active; 'I' for Inactive)
REMARK    1  A    between atoms: C_2  and  C_3
REMARK    2  A    between atoms: C_13  and  C_14
REMARK    3  A    between atoms: C_14  and  C_15
REMARK                            x       y       z     vdW  Elec       q    Type
REMARK                         _______ _______ _______ _____ _____    ______ ____
ROOT
ATOM      1  O   UNL     1       6.244   6.018  19.462  0.00  0.00    +0.000 OA
ATOM      2  C   UNL     1       5.499   5.306  18.790  0.00  0.00    +0.000 C 
ATOM      3  N   UNL     1       5.606   5.204  17.397  0.00  0.00    +0.000 N 
ATOM      4  C   UNL     1       4.720   4.470  16.501  0.00  0.00    +0.000 C 
ATOM      5  C   UNL     1       5.513   3.318  15.886  0.00  0.00    +0.000 C 
ATOM      6  C   UNL     1       6.695   3.859  15.057  0.00  0.00    +0.000 C 
ATOM      7  C   UNL     1       7.556   4.792  15.944  0.00  0.00    +0.000 C 
ATOM      8  C   UNL     1       6.737   5.835  16.718  0.00  0.00    +0.000 C 
ENDROOT
BRANCH   2   9
ATOM      9  C   UNL     1       4.445   4.562  19.524  0.00  0.00    +0.000 A 
ATOM     10  C   UNL     1       4.481   3.187  19.765  0.00  0.00    +0.000 A 
ATOM     11  C   UNL     1       3.399   2.559  20.376  0.00  0.00    +0.000 A 
ATOM     12  C   UNL     1       2.353   3.352  20.809  0.00  0.00    +0.000 A 
ATOM     13 CL   UNL     1       0.984   2.653  21.566  0.00  0.00    +0.000 Cl
ATOM     14  N   UNL     1       2.313   4.694  20.681  0.00  0.00    +0.000 NA
ATOM     15  C   UNL     1       3.367   5.270  20.045  0.00  0.00    +0.000 A 
ENDBRANCH   2   9
BRANCH   6  16
ATOM     16  C   UNL     1       6.234   4.578  13.767  0.00  0.00    +0.000 C 
BRANCH  16  17
ATOM     17  C   UNL     1       5.689   3.663  12.695  0.00  0.00    +0.000 A 
ATOM     18  C   UNL     1       4.432   3.909  12.119  0.00  0.00    +0.000 A 
ATOM     19  C   UNL     1       3.943   3.089  11.097  0.00  0.00    +0.000 A 
ATOM     20  C   UNL     1       4.702   2.015  10.640  0.00  0.00    +0.000 A 
ATOM     21  C   UNL     1       5.945   1.750  11.217  0.00  0.00    +0.000 A 
ATOM     22  C   UNL     1       6.435   2.569  12.236  0.00  0.00    +0.000 A 
ENDBRANCH  16  17
ENDBRANCH   6  16
TORSDOF 3
ENDMDL
