MODEL 1
REMARK VINA RESULT:      -7.8      0.000      0.000
REMARK  Name = 
REMARK  3 active torsions:
REMARK  status: ('A' for Active; 'I' for Inactive)
REMARK    1  A    between atoms: O_1  and  C_2
REMARK    2  A    between atoms: C_9  and  C_10
REMARK    3  A    between atoms: C_13  and  C_14
REMARK                            x       y       z     vdW  Elec       q    Type
REMARK                         _______ _______ _______ _____ _____    ______ ____
ROOT
ATOM      1  C   UNL     1       5.638   4.120  16.278  0.00  0.00    +0.000 C 
ATOM      2  N   UNL     1       6.447   4.085  17.297  0.00  0.00    +0.000 NA
ATOM      3  N   UNL     1       5.681   4.140  18.406  0.00  0.00    +0.000 N 
ATOM      4  C   UNL     1       4.260   3.910  18.150  0.00  0.00    +0.000 C 
ATOM      5  C   UNL     1       4.176   4.079  16.637  0.00  0.00    +0.000 C 
ATOM      6  H   UNL     1       6.044   3.605  19.193  0.00  0.00    +0.000 HD
ENDROOT
BRANCH   1  14
ATOM      7  C   UNL     1       7.152   5.046  14.453  0.00  0.00    +0.000 A 
ATOM      8  C   UNL     1       7.554   5.047  13.109  0.00  0.00    +0.000 A 
ATOM      9 CL   UNL     1       8.825   6.096  12.588  0.00  0.00    +0.000 Cl
ATOM     10  C   UNL     1       6.945   4.212  12.180  0.00  0.00    +0.000 A 
ATOM     11  C   UNL     1       5.926   3.363  12.599  0.00  0.00    +0.000 A 
ATOM     12 CL   UNL     1       5.169   2.321  11.458  0.00  0.00    +0.000 Cl
ATOM     13  C   UNL     1       5.513   3.350  13.932  0.00  0.00    +0.000 A 
ATOM     14  C   UNL     1       6.120   4.197  14.874  0.00  0.00    +0.000 A 
BRANCH   7  15
ATOM     15  O   UNL     1       7.784   5.879  15.338  0.00  0.00    +0.000 OA
ATOM     16  H   UNL     1       7.940   6.734  14.894  0.00  0.00    +0.000 HD
ENDBRANCH   7  15
ENDBRANCH   1  14
BRANCH   4  17
ATOM     17  C   UNL     1       3.390   4.877  18.921  0.00  0.00    +0.000 A 
ATOM     18  C   UNL     1       3.316   6.233  18.553  0.00  0.00    +0.000 A 
ATOM     19  C   UNL     1       2.521   7.126  19.270  0.00  0.00    +0.000 A 
ATOM     20  C   UNL     1       1.800   6.674  20.372  0.00  0.00    +0.000 A 
ATOM     21 CL   UNL     1       0.834   7.781  21.269  0.00  0.00    +0.000 Cl
ATOM     22  C   UNL     1       1.861   5.336  20.756  0.00  0.00    +0.000 A 
ATOM     23  C   UNL     1       2.652   4.440  20.032  0.00  0.00    +0.000 A 
ENDBRANCH   4  17
TORSDOF 3
ENDMDL
MODEL 2
REMARK VINA RESULT:      -7.8      0.026      1.055
REMARK  Name = 
REMARK  3 active torsions:
REMARK  status: ('A' for Active; 'I' for Inactive)
REMARK    1  A    between atoms: O_1  and  C_2
REMARK    2  A    between atoms: C_9  and  C_10
REMARK    3  A    between atoms: C_13  and  C_14
REMARK                            x       y       z     vdW  Elec       q    Type
REMARK                         _______ _______ _______ _____ _____    ______ ____
ROOT
ATOM      1  C   UNL     1       5.636   4.124  16.271  0.00  0.00    +0.000 C 
ATOM      2  N   UNL     1       6.447   4.065  17.288  0.00  0.00    +0.000 NA
ATOM      3  N   UNL     1       5.684   4.125  18.399  0.00  0.00    +0.000 N 
ATOM      4  C   UNL     1       4.258   3.925  18.144  0.00  0.00    +0.000 C 
ATOM      5  C   UNL     1       4.174   4.107  16.633  0.00  0.00    +0.000 C 
ATOM      6  H   UNL     1       6.039   3.577  19.181  0.00  0.00    +0.000 HD
ENDROOT
BRANCH   1  14
ATOM      7  C   UNL     1       7.149   5.051  14.446  0.00  0.00    +0.000 A 
ATOM      8  C   UNL     1       7.550   5.054  13.102  0.00  0.00    +0.000 A 
ATOM      9 CL   UNL     1       8.822   6.101  12.581  0.00  0.00    +0.000 Cl
ATOM     10  C   UNL     1       6.937   4.223  12.171  0.00  0.00    +0.000 A 
ATOM     11  C   UNL     1       5.916   3.376  12.590  0.00  0.00    +0.000 A 
ATOM     12 CL   UNL     1       5.156   2.338  11.447  0.00  0.00    +0.000 Cl
ATOM     13  C   UNL     1       5.505   3.360  13.923  0.00  0.00    +0.000 A 
ATOM     14  C   UNL     1       6.116   4.203  14.866  0.00  0.00    +0.000 A 
BRANCH   7  15
ATOM     15  O   UNL     1       7.785   5.880  15.333  0.00  0.00    +0.000 OA
ATOM     16  H   UNL     1       8.590   6.225  14.903  0.00  0.00    +0.000 HD
ENDBRANCH   7  15
ENDBRANCH   1  14
BRANCH   4  17
ATOM     17  C   UNL     1       3.408   4.902  18.926  0.00  0.00    +0.000 A 
ATOM     18  C   UNL     1       2.665   4.478  20.043  0.00  0.00    +0.000 A 
ATOM     19  C   UNL     1       1.874   5.376  20.758  0.00  0.00    +0.000 A 
ATOM     20  C   UNL     1       1.808   6.706  20.356  0.00  0.00    +0.000 A 
ATOM     21 CL   UNL     1       0.816   7.811  21.226  0.00  0.00    +0.000 Cl
ATOM     22  C   UNL     1       2.534   7.147  19.251  0.00  0.00    +0.000 A 
ATOM     23  C   UNL     1       3.333   6.248  18.540  0.00  0.00    +0.000 A 
ENDBRANCH   4  17
TORSDOF 3
ENDMDL
MODEL 3
REMARK VINA RESULT:      -7.4      4.603      6.959
REMARK  Name = 
REMARK  3 active torsions:
REMARK  status: ('A' for Active; 'I' for Inactive)
REMARK    1  A    between atoms: O_1  and  C_2
REMARK    2  A    between atoms: C_9  and  C_10
REMARK    3  A    between atoms: C_13  and  C_14
REMARK                            x       y       z     vdW  Elec       q    Type
REMARK                         _______ _______ _______ _____ _____    ______ ____
ROOT
ATOM      1  C   UNL     1       2.189   8.163  18.593  0.00  0.00    +0.000 C 
ATOM      2  N   UNL     1       2.484   8.879  17.547  0.00  0.00    +0.000 NA
ATOM      3  N   UNL     1       1.698   9.975  17.590  0.00  0.00    +0.000 N 
ATOM      4  C   UNL     1       1.033  10.171  18.877  0.00  0.00    +0.000 C 
ATOM      5  C   UNL     1       1.213   8.810  19.540  0.00  0.00    +0.000 C 
ATOM      6  H   UNL     1       2.137  10.819  17.226  0.00  0.00    +0.000 HD
ENDROOT
BRANCH   1  14
ATOM      7  C   UNL     1       3.828   6.283  18.086  0.00  0.00    +0.000 A 
ATOM      8  C   UNL     1       4.323   5.005  18.385  0.00  0.00    +0.000 A 
ATOM      9 CL   UNL     1       5.629   4.346  17.464  0.00  0.00    +0.000 Cl
ATOM     10  C   UNL     1       3.778   4.251  19.418  0.00  0.00    +0.000 A 
ATOM     11  C   UNL     1       2.730   4.781  20.163  0.00  0.00    +0.000 A 
ATOM     12 CL   UNL     1       2.052   3.859  21.447  0.00  0.00    +0.000 Cl
ATOM     13  C   UNL     1       2.225   6.051  19.879  0.00  0.00    +0.000 A 
ATOM     14  C   UNL     1       2.767   6.815  18.831  0.00  0.00    +0.000 A 
BRANCH   7  15
ATOM     15  O   UNL     1       4.399   6.996  17.065  0.00  0.00    +0.000 OA
ATOM     16  H   UNL     1       4.732   7.837  17.430  0.00  0.00    +0.000 HD
ENDBRANCH   7  15
ENDBRANCH   1  14
BRANCH   4  17
ATOM     17  C   UNL     1      -0.413  10.579  18.702  0.00  0.00    +0.000 A 
ATOM     18  C   UNL     1      -1.229   9.952  17.743  0.00  0.00    +0.000 A 
ATOM     19  C   UNL     1      -2.559  10.334  17.575  0.00  0.00    +0.000 A 
ATOM     20  C   UNL     1      -3.084  11.358  18.359  0.00  0.00    +0.000 A 
ATOM     21 CL   UNL     1      -4.720  11.845  18.138  0.00  0.00    +0.000 Cl
ATOM     22  C   UNL     1      -2.293  11.995  19.312  0.00  0.00    +0.000 A 
ATOM     23  C   UNL     1      -0.962  11.605  19.485  0.00  0.00    +0.000 A 
ENDBRANCH   4  17
TORSDOF 3
ENDMDL
MODEL 4
REMARK VINA RESULT:      -7.3      4.596      6.956
REMARK  Name = 
REMARK  3 active torsions:
REMARK  status: ('A' for Active; 'I' for Inactive)
REMARK    1  A    between atoms: O_1  and  C_2
REMARK    2  A    between atoms: C_9  and  C_10
REMARK    3  A    between atoms: C_13  and  C_14
REMARK                            x       y       z     vdW  Elec       q    Type
REMARK                         _______ _______ _______ _____ _____    ______ ____
ROOT
ATOM      1  C   UNL     1       2.195   8.181  18.568  0.00  0.00    +0.000 C 
ATOM      2  N   UNL     1       2.471   8.877  17.504  0.00  0.00    +0.000 NA
ATOM      3  N   UNL     1       1.701   9.984  17.552  0.00  0.00    +0.000 N 
ATOM      4  C   UNL     1       1.074  10.208  18.853  0.00  0.00    +0.000 C 
ATOM      5  C   UNL     1       1.254   8.855  19.532  0.00  0.00    +0.000 C 
ATOM      6  H   UNL     1       2.141  10.817  17.163  0.00  0.00    +0.000 HD
ENDROOT
BRANCH   1  14
ATOM      7  C   UNL     1       3.790   6.269  18.041  0.00  0.00    +0.000 A 
ATOM      8  C   UNL     1       4.277   4.989  18.345  0.00  0.00    +0.000 A 
ATOM      9 CL   UNL     1       5.542   4.295  17.395  0.00  0.00    +0.000 Cl
ATOM     10  C   UNL     1       3.755   4.260  19.409  0.00  0.00    +0.000 A 
ATOM     11  C   UNL     1       2.740   4.819  20.178  0.00  0.00    +0.000 A 
ATOM     12 CL   UNL     1       2.092   3.928  21.500  0.00  0.00    +0.000 Cl
ATOM     13  C   UNL     1       2.244   6.091  19.889  0.00  0.00    +0.000 A 
ATOM     14  C   UNL     1       2.762   6.828  18.811  0.00  0.00    +0.000 A 
BRANCH   7  15
ATOM     15  O   UNL     1       4.337   6.956  16.989  0.00  0.00    +0.000 OA
ATOM     16  H   UNL     1       3.679   7.604  16.674  0.00  0.00    +0.000 HD
ENDBRANCH   7  15
ENDBRANCH   1  14
BRANCH   4  17
ATOM     17  C   UNL     1      -0.371  10.633  18.711  0.00  0.00    +0.000 A 
ATOM     18  C   UNL     1      -0.917  11.623  19.549  0.00  0.00    +0.000 A 
ATOM     19  C   UNL     1      -2.251  12.009  19.425  0.00  0.00    +0.000 A 
ATOM     20  C   UNL     1      -3.057  11.399  18.468  0.00  0.00    +0.000 A 
ATOM     21 CL   UNL     1      -4.709  11.860  18.328  0.00  0.00    +0.000 Cl
ATOM     22  C   UNL     1      -2.538  10.414  17.630  0.00  0.00    +0.000 A 
ATOM     23  C   UNL     1      -1.199  10.034  17.750  0.00  0.00    +0.000 A 
ENDBRANCH   4  17
TORSDOF 3
ENDMDL
MODEL 5
REMARK VINA RESULT:      -7.2      2.075      7.726
REMARK  Name = 
REMARK  3 active torsions:
REMARK  status: ('A' for Active; 'I' for Inactive)
REMARK    1  A    between atoms: O_1  and  C_2
REMARK    2  A    between atoms: C_9  and  C_10
REMARK    3  A    between atoms: C_13  and  C_14
REMARK                            x       y       z     vdW  Elec       q    Type
REMARK                         _______ _______ _______ _____ _____    ______ ____
ROOT
ATOM      1  C   UNL     1       5.025   4.988  18.323  0.00  0.00    +0.000 C 
ATOM      2  N   UNL     1       6.100   4.317  18.619  0.00  0.00    +0.000 NA
ATOM      3  N   UNL     1       6.916   4.395  17.548  0.00  0.00    +0.000 N 
ATOM      4  C   UNL     1       6.511   5.407  16.573  0.00  0.00    +0.000 C 
ATOM      5  C   UNL     1       5.081   5.710  17.003  0.00  0.00    +0.000 C 
ATOM      6  H   UNL     1       7.908   4.425  17.778  0.00  0.00    +0.000 HD
ENDROOT
BRANCH   1  14
ATOM      7  C   UNL     1       3.312   3.909  19.867  0.00  0.00    +0.000 A 
ATOM      8  C   UNL     1       2.194   4.043  20.704  0.00  0.00    +0.000 A 
ATOM      9 CL   UNL     1       1.544   2.657  21.506  0.00  0.00    +0.000 Cl
ATOM     10  C   UNL     1       1.594   5.281  20.903  0.00  0.00    +0.000 A 
ATOM     11  C   UNL     1       2.119   6.398  20.262  0.00  0.00    +0.000 A 
ATOM     12 CL   UNL     1       1.387   7.935  20.506  0.00  0.00    +0.000 Cl
ATOM     13  C   UNL     1       3.231   6.283  19.426  0.00  0.00    +0.000 A 
ATOM     14  C   UNL     1       3.837   5.033  19.216  0.00  0.00    +0.000 A 
BRANCH   7  15
ATOM     15  O   UNL     1       3.879   2.672  19.705  0.00  0.00    +0.000 OA
ATOM     16  H   UNL     1       3.230   2.097  19.257  0.00  0.00    +0.000 HD
ENDBRANCH   7  15
ENDBRANCH   1  14
BRANCH   4  17
ATOM     17  C   UNL     1       6.628   4.896  15.155  0.00  0.00    +0.000 A 
ATOM     18  C   UNL     1       5.766   3.893  14.677  0.00  0.00    +0.000 A 
ATOM     19  C   UNL     1       5.879   3.414  13.372  0.00  0.00    +0.000 A 
ATOM     20  C   UNL     1       6.866   3.927  12.535  0.00  0.00    +0.000 A 
ATOM     21 CL   UNL     1       7.019   3.323  10.930  0.00  0.00    +0.000 Cl
ATOM     22  C   UNL     1       7.732   4.919  12.989  0.00  0.00    +0.000 A 
ATOM     23  C   UNL     1       7.612   5.403  14.294  0.00  0.00    +0.000 A 
ENDBRANCH   4  17
TORSDOF 3
ENDMDL
MODEL 6
REMARK VINA RESULT:      -7.2      2.091      7.675
REMARK  Name = 
REMARK  3 active torsions:
REMARK  status: ('A' for Active; 'I' for Inactive)
REMARK    1  A    between atoms: O_1  and  C_2
REMARK    2  A    between atoms: C_9  and  C_10
REMARK    3  A    between atoms: C_13  and  C_14
REMARK                            x       y       z     vdW  Elec       q    Type
REMARK                         _______ _______ _______ _____ _____    ______ ____
ROOT
ATOM      1  C   UNL     1       4.995   5.008  18.415  0.00  0.00    +0.000 C 
ATOM      2  N   UNL     1       6.064   4.335  18.728  0.00  0.00    +0.000 NA
ATOM      3  N   UNL     1       6.899   4.414  17.671  0.00  0.00    +0.000 N 
ATOM      4  C   UNL     1       6.512   5.429  16.692  0.00  0.00    +0.000 C 
ATOM      5  C   UNL     1       5.075   5.733  17.098  0.00  0.00    +0.000 C 
ATOM      6  H   UNL     1       7.887   4.442  17.918  0.00  0.00    +0.000 HD
ENDROOT
BRANCH   1  14
ATOM      7  C   UNL     1       3.253   3.928  19.925  0.00  0.00    +0.000 A 
ATOM      8  C   UNL     1       2.121   4.061  20.742  0.00  0.00    +0.000 A 
ATOM      9 CL   UNL     1       1.453   2.674  21.527  0.00  0.00    +0.000 Cl
ATOM     10  C   UNL     1       1.521   5.300  20.936  0.00  0.00    +0.000 A 
ATOM     11  C   UNL     1       2.060   6.418  20.308  0.00  0.00    +0.000 A 
ATOM     12 CL   UNL     1       1.328   7.957  20.546  0.00  0.00    +0.000 Cl
ATOM     13  C   UNL     1       3.186   6.304  19.492  0.00  0.00    +0.000 A 
ATOM     14  C   UNL     1       3.792   5.053  19.287  0.00  0.00    +0.000 A 
BRANCH   7  15
ATOM     15  O   UNL     1       3.819   2.690  19.767  0.00  0.00    +0.000 OA
ATOM     16  H   UNL     1       3.153   2.100  19.367  0.00  0.00    +0.000 HD
ENDBRANCH   7  15
ENDBRANCH   1  14
BRANCH   4  17
ATOM     17  C   UNL     1       6.653   4.921  15.275  0.00  0.00    +0.000 A 
ATOM     18  C   UNL     1       7.640   5.440  14.417  0.00  0.00    +0.000 A 
ATOM     19  C   UNL     1       7.764   4.979  13.107  0.00  0.00    +0.000 A 
ATOM     20  C   UNL     1       6.893   4.000  12.637  0.00  0.00    +0.000 A 
ATOM     21 CL   UNL     1       7.033   3.445  11.014  0.00  0.00    +0.000 Cl
ATOM     22  C   UNL     1       5.906   3.475  13.468  0.00  0.00    +0.000 A 
ATOM     23  C   UNL     1       5.788   3.932  14.783  0.00  0.00    +0.000 A 
ENDBRANCH   4  17
TORSDOF 3
ENDMDL
MODEL 7
REMARK VINA RESULT:      -7.1      5.812      8.829
REMARK  Name = 
REMARK  3 active torsions:
REMARK  status: ('A' for Active; 'I' for Inactive)
REMARK    1  A    between atoms: O_1  and  C_2
REMARK    2  A    between atoms: C_9  and  C_10
REMARK    3  A    between atoms: C_13  and  C_14
REMARK                            x       y       z     vdW  Elec       q    Type
REMARK                         _______ _______ _______ _____ _____    ______ ____
ROOT
ATOM      1  C   UNL     1       1.004   9.340  19.997  0.00  0.00    +0.000 C 
ATOM      2  N   UNL     1       1.146   8.989  21.242  0.00  0.00    +0.000 NA
ATOM      3  N   UNL     1       1.757   7.786  21.242  0.00  0.00    +0.000 N 
ATOM      4  C   UNL     1       2.327   7.418  19.947  0.00  0.00    +0.000 C 
ATOM      5  C   UNL     1       1.651   8.408  19.006  0.00  0.00    +0.000 C 
ATOM      6  H   UNL     1       2.394   7.639  22.023  0.00  0.00    +0.000 HD
ENDROOT
BRANCH   1  14
ATOM      7  C   UNL     1       0.479  11.826  20.151  0.00  0.00    +0.000 A 
ATOM      8  C   UNL     1      -0.257  12.930  19.697  0.00  0.00    +0.000 A 
ATOM      9 CL   UNL     1       0.006  14.490  20.392  0.00  0.00    +0.000 Cl
ATOM     10  C   UNL     1      -1.204  12.793  18.688  0.00  0.00    +0.000 A 
ATOM     11  C   UNL     1      -1.414  11.539  18.124  0.00  0.00    +0.000 A 
ATOM     12 CL   UNL     1      -2.579  11.359  16.871  0.00  0.00    +0.000 Cl
ATOM     13  C   UNL     1      -0.690  10.429  18.564  0.00  0.00    +0.000 A 
ATOM     14  C   UNL     1       0.262  10.561  19.588  0.00  0.00    +0.000 A 
BRANCH   7  15
ATOM     15  O   UNL     1       1.408  12.006  21.142  0.00  0.00    +0.000 OA
ATOM     16  H   UNL     1       2.131  11.366  21.001  0.00  0.00    +0.000 HD
ENDBRANCH   7  15
ENDBRANCH   1  14
BRANCH   4  17
ATOM     17  C   UNL     1       2.055   5.969  19.608  0.00  0.00    +0.000 A 
ATOM     18  C   UNL     1       1.579   5.077  20.586  0.00  0.00    +0.000 A 
ATOM     19  C   UNL     1       1.337   3.739  20.276  0.00  0.00    +0.000 A 
ATOM     20  C   UNL     1       1.580   3.277  18.986  0.00  0.00    +0.000 A 
ATOM     21 CL   UNL     1       1.301   1.621  18.608  0.00  0.00    +0.000 Cl
ATOM     22  C   UNL     1       2.055   4.143  18.003  0.00  0.00    +0.000 A 
ATOM     23  C   UNL     1       2.289   5.485  18.312  0.00  0.00    +0.000 A 
ENDBRANCH   4  17
TORSDOF 3
ENDMDL
MODEL 8
REMARK VINA RESULT:      -7.0      5.837      8.826
REMARK  Name = 
REMARK  3 active torsions:
REMARK  status: ('A' for Active; 'I' for Inactive)
REMARK    1  A    between atoms: O_1  and  C_2
REMARK    2  A    between atoms: C_9  and  C_10
REMARK    3  A    between atoms: C_13  and  C_14
REMARK                            x       y       z     vdW  Elec       q    Type
REMARK                         _______ _______ _______ _____ _____    ______ ____
ROOT
ATOM      1  C   UNL     1       0.987   9.366  20.011  0.00  0.00    +0.000 C 
ATOM      2  N   UNL     1       1.161   9.017  21.253  0.00  0.00    +0.000 NA
ATOM      3  N   UNL     1       1.782   7.819  21.238  0.00  0.00    +0.000 N 
ATOM      4  C   UNL     1       2.323   7.454  19.930  0.00  0.00    +0.000 C 
ATOM      5  C   UNL     1       1.617   8.438  19.006  0.00  0.00    +0.000 C 
ATOM      6  H   UNL     1       2.439   7.678  22.004  0.00  0.00    +0.000 HD
ENDROOT
BRANCH   1  14
ATOM      7  C   UNL     1       0.396  11.832  20.226  0.00  0.00    +0.000 A 
ATOM      8  C   UNL     1      -0.355  12.932  19.786  0.00  0.00    +0.000 A 
ATOM      9 CL   UNL     1      -0.149  14.476  20.535  0.00  0.00    +0.000 Cl
ATOM     10  C   UNL     1      -1.271  12.803  18.748  0.00  0.00    +0.000 A 
ATOM     11  C   UNL     1      -1.435  11.562  18.141  0.00  0.00    +0.000 A 
ATOM     12 CL   UNL     1      -2.561  11.393  16.852  0.00  0.00    +0.000 Cl
ATOM     13  C   UNL     1      -0.696  10.458  18.566  0.00  0.00    +0.000 A 
ATOM     14  C   UNL     1       0.226  10.581  19.619  0.00  0.00    +0.000 A 
BRANCH   7  15
ATOM     15  O   UNL     1       1.294  12.004  21.246  0.00  0.00    +0.000 OA
ATOM     16  H   UNL     1       1.988  12.620  20.941  0.00  0.00    +0.000 HD
ENDBRANCH   7  15
ENDBRANCH   1  14
BRANCH   4  17
ATOM     17  C   UNL     1       2.055   6.003  19.599  0.00  0.00    +0.000 A 
ATOM     18  C   UNL     1       2.279   5.506  18.302  0.00  0.00    +0.000 A 
ATOM     19  C   UNL     1       2.022   4.171  17.993  0.00  0.00    +0.000 A 
ATOM     20  C   UNL     1       1.527   3.320  18.978  0.00  0.00    +0.000 A 
ATOM     21 CL   UNL     1       1.191   1.677  18.593  0.00  0.00    +0.000 Cl
ATOM     22  C   UNL     1       1.295   3.792  20.268  0.00  0.00    +0.000 A 
ATOM     23  C   UNL     1       1.560   5.129  20.578  0.00  0.00    +0.000 A 
ENDBRANCH   4  17
TORSDOF 3
ENDMDL
MODEL 9
REMARK VINA RESULT:      -7.0      6.372      9.626
REMARK  Name = 
REMARK  3 active torsions:
REMARK  status: ('A' for Active; 'I' for Inactive)
REMARK    1  A    between atoms: O_1  and  C_2
REMARK    2  A    between atoms: C_9  and  C_10
REMARK    3  A    between atoms: C_13  and  C_14
REMARK                            x       y       z     vdW  Elec       q    Type
REMARK                         _______ _______ _______ _____ _____    ______ ____
ROOT
ATOM      1  C   UNL     1      -0.804  10.138  18.576  0.00  0.00    +0.000 C 
ATOM      2  N   UNL     1      -0.693  10.078  19.871  0.00  0.00    +0.000 NA
ATOM      3  N   UNL     1       0.519   9.547  20.134  0.00  0.00    +0.000 N 
ATOM      4  C   UNL     1       1.406   9.505  18.972  0.00  0.00    +0.000 C 
ATOM      5  C   UNL     1       0.437   9.742  17.821  0.00  0.00    +0.000 C 
ATOM      6  H   UNL     1       0.965   9.915  20.973  0.00  0.00    +0.000 HD
ENDROOT
BRANCH   1  14
ATOM      7  C   UNL     1      -3.032  11.368  18.502  0.00  0.00    +0.000 A 
ATOM      8  C   UNL     1      -4.182  11.732  17.786  0.00  0.00    +0.000 A 
ATOM      9 CL   UNL     1      -5.386  12.724  18.530  0.00  0.00    +0.000 Cl
ATOM     10  C   UNL     1      -4.374  11.307  16.476  0.00  0.00    +0.000 A 
ATOM     11  C   UNL     1      -3.403  10.512  15.874  0.00  0.00    +0.000 A 
ATOM     12 CL   UNL     1      -3.628   9.986  14.252  0.00  0.00    +0.000 Cl
ATOM     13  C   UNL     1      -2.253  10.141  16.572  0.00  0.00    +0.000 A 
ATOM     14  C   UNL     1      -2.058  10.562  17.898  0.00  0.00    +0.000 A 
BRANCH   7  15
ATOM     15  O   UNL     1      -2.879  11.815  19.788  0.00  0.00    +0.000 OA
ATOM     16  H   UNL     1      -2.179  12.495  19.792  0.00  0.00    +0.000 HD
ENDBRANCH   7  15
ENDBRANCH   1  14
BRANCH   4  17
ATOM     17  C   UNL     1       2.150   8.191  18.884  0.00  0.00    +0.000 A 
ATOM     18  C   UNL     1       2.022   7.221  19.896  0.00  0.00    +0.000 A 
ATOM     19  C   UNL     1       2.715   6.013  19.820  0.00  0.00    +0.000 A 
ATOM     20  C   UNL     1       3.552   5.768  18.735  0.00  0.00    +0.000 A 
ATOM     21 CL   UNL     1       4.423   4.285  18.651  0.00  0.00    +0.000 Cl
ATOM     22  C   UNL     1       3.696   6.716  17.724  0.00  0.00    +0.000 A 
ATOM     23  C   UNL     1       2.995   7.922  17.798  0.00  0.00    +0.000 A 
ENDBRANCH   4  17
TORSDOF 3
ENDMDL
