MODEL 1
REMARK VINA RESULT:      -7.6      0.000      0.000
REMARK  Name = 
REMARK  3 active torsions:
REMARK  status: ('A' for Active; 'I' for Inactive)
REMARK    1  A    between atoms: C_5  and  N_6
REMARK    2  A    between atoms: N_6  and  C_7
REMARK    3  A    between atoms: C_9  and  C_10
REMARK                            x       y       z     vdW  Elec       q    Type
REMARK                         _______ _______ _______ _____ _____    ______ ____
ROOT
ATOM      1  C   UNL     1       3.113   5.967  19.266  0.00  0.00    +0.000 A 
ATOM      2  N   UNL     1       4.201   6.205  18.496  0.00  0.00    +0.000 NA
ATOM      3  C   UNL     1       4.750   5.249  17.719  0.00  0.00    +0.000 A 
ATOM      4  N   UNL     1       4.281   3.990  17.648  0.00  0.00    +0.000 NA
ATOM      5  C   UNL     1       3.192   3.726  18.405  0.00  0.00    +0.000 A 
ATOM      6  C   UNL     1       2.536   2.459  18.465  0.00  0.00    +0.000 A 
ATOM      7  C   UNL     1       1.457   2.469  19.316  0.00  0.00    +0.000 A 
ATOM      8  S   UNL     1       1.227   4.001  20.039  0.00  0.00    +0.000 S 
ATOM      9  C   UNL     1       2.583   4.675  19.218  0.00  0.00    +0.000 A 
ENDROOT
BRANCH   3  10
ATOM     10  C   UNL     1       5.983   5.617  16.876  0.00  0.00    +0.000 C 
ATOM     11 CL   UNL     1       6.626   7.262  17.241  0.00  0.00    +0.000 Cl
ATOM     12 CL   UNL     1       7.315   4.447  17.188  0.00  0.00    +0.000 Cl
ATOM     13 CL   UNL     1       5.569   5.582  15.127  0.00  0.00    +0.000 Cl
ENDBRANCH   3  10
BRANCH   1  14
ATOM     14  N   UNL     1       2.554   7.000  20.033  0.00  0.00    +0.000 N 
ATOM     15  H   UNL     1       2.454   6.779  21.019  0.00  0.00    +0.000 HD
BRANCH  14  20
ATOM     16 CL   UNL     1      -0.748  11.607  18.230  0.00  0.00    +0.000 Cl
ATOM     17  C   UNL     1       0.243  10.305  18.759  0.00  0.00    +0.000 A 
ATOM     18  C   UNL     1       0.959   9.566  17.828  0.00  0.00    +0.000 A 
ATOM     19  C   UNL     1       1.752   8.500  18.255  0.00  0.00    +0.000 A 
ATOM     20  C   UNL     1       1.833   8.138  19.609  0.00  0.00    +0.000 A 
ATOM     21  C   UNL     1       1.115   8.923  20.532  0.00  0.00    +0.000 A 
ATOM     22 CL   UNL     1       1.175   8.564  22.225  0.00  0.00    +0.000 Cl
ATOM     23  C   UNL     1       0.326  10.000  20.115  0.00  0.00    +0.000 A 
ENDBRANCH  14  20
ENDBRANCH   1  14
TORSDOF 3
ENDMDL
MODEL 2
REMARK VINA RESULT:      -7.6      0.615      1.298
REMARK  Name = 
REMARK  3 active torsions:
REMARK  status: ('A' for Active; 'I' for Inactive)
REMARK    1  A    between atoms: C_5  and  N_6
REMARK    2  A    between atoms: N_6  and  C_7
REMARK    3  A    between atoms: C_9  and  C_10
REMARK                            x       y       z     vdW  Elec       q    Type
REMARK                         _______ _______ _______ _____ _____    ______ ____
ROOT
ATOM      1  C   UNL     1       3.040   5.918  19.270  0.00  0.00    +0.000 A 
ATOM      2  N   UNL     1       4.047   6.024  18.371  0.00  0.00    +0.000 NA
ATOM      3  C   UNL     1       4.452   4.975  17.625  0.00  0.00    +0.000 A 
ATOM      4  N   UNL     1       3.909   3.748  17.712  0.00  0.00    +0.000 NA
ATOM      5  C   UNL     1       2.897   3.615  18.600  0.00  0.00    +0.000 A 
ATOM      6  C   UNL     1       2.182   2.403  18.838  0.00  0.00    +0.000 A 
ATOM      7  C   UNL     1       1.206   2.550  19.794  0.00  0.00    +0.000 A 
ATOM      8  S   UNL     1       1.144   4.145  20.404  0.00  0.00    +0.000 S 
ATOM      9  C   UNL     1       2.436   4.663  19.389  0.00  0.00    +0.000 A 
ENDROOT
BRANCH   3  10
ATOM     10  C   UNL     1       5.602   5.194  16.628  0.00  0.00    +0.000 C 
ATOM     11 CL   UNL     1       5.967   3.734  15.634  0.00  0.00    +0.000 Cl
ATOM     12 CL   UNL     1       5.183   6.520  15.485  0.00  0.00    +0.000 Cl
ATOM     13 CL   UNL     1       7.108   5.630  17.507  0.00  0.00    +0.000 Cl
ENDBRANCH   3  10
BRANCH   1  14
ATOM     14  N   UNL     1       2.627   7.043  20.000  0.00  0.00    +0.000 N 
ATOM     15  H   UNL     1       2.686   6.929  21.008  0.00  0.00    +0.000 HD
BRANCH  14  20
ATOM     16 CL   UNL     1      -0.846  11.525  18.204  0.00  0.00    +0.000 Cl
ATOM     17  C   UNL     1       0.193  10.260  18.730  0.00  0.00    +0.000 A 
ATOM     18  C   UNL     1       0.921   9.537  17.796  0.00  0.00    +0.000 A 
ATOM     19  C   UNL     1       1.755   8.501  18.221  0.00  0.00    +0.000 A 
ATOM     20  C   UNL     1       1.864   8.152  19.577  0.00  0.00    +0.000 A 
ATOM     21  C   UNL     1       1.133   8.922  20.502  0.00  0.00    +0.000 A 
ATOM     22 CL   UNL     1       1.226   8.579  22.197  0.00  0.00    +0.000 Cl
ATOM     23  C   UNL     1       0.304   9.969  20.088  0.00  0.00    +0.000 A 
ENDBRANCH  14  20
ENDBRANCH   1  14
TORSDOF 3
ENDMDL
MODEL 3
REMARK VINA RESULT:      -7.6      1.260      1.784
REMARK  Name = 
REMARK  3 active torsions:
REMARK  status: ('A' for Active; 'I' for Inactive)
REMARK    1  A    between atoms: C_5  and  N_6
REMARK    2  A    between atoms: N_6  and  C_7
REMARK    3  A    between atoms: C_9  and  C_10
REMARK                            x       y       z     vdW  Elec       q    Type
REMARK                         _______ _______ _______ _____ _____    ______ ____
ROOT
ATOM      1  C   UNL     1       3.152   5.690  19.254  0.00  0.00    +0.000 A 
ATOM      2  N   UNL     1       4.167   5.811  18.365  0.00  0.00    +0.000 NA
ATOM      3  C   UNL     1       4.427   4.861  17.443  0.00  0.00    +0.000 A 
ATOM      4  N   UNL     1       3.720   3.722  17.331  0.00  0.00    +0.000 NA
ATOM      5  C   UNL     1       2.698   3.577  18.206  0.00  0.00    +0.000 A 
ATOM      6  C   UNL     1       1.823   2.449  18.248  0.00  0.00    +0.000 A 
ATOM      7  C   UNL     1       0.874   2.561  19.236  0.00  0.00    +0.000 A 
ATOM      8  S   UNL     1       1.029   4.022  20.109  0.00  0.00    +0.000 S 
ATOM      9  C   UNL     1       2.383   4.527  19.170  0.00  0.00    +0.000 A 
ENDROOT
BRANCH   3  10
ATOM     10  C   UNL     1       5.598   5.090  16.474  0.00  0.00    +0.000 C 
ATOM     11 CL   UNL     1       7.139   5.513  17.311  0.00  0.00    +0.000 Cl
ATOM     12 CL   UNL     1       5.909   3.597  15.517  0.00  0.00    +0.000 Cl
ATOM     13 CL   UNL     1       5.216   6.440  15.350  0.00  0.00    +0.000 Cl
ENDBRANCH   3  10
BRANCH   1  14
ATOM     14  N   UNL     1       2.896   6.718  20.172  0.00  0.00    +0.000 N 
ATOM     15  H   UNL     1       3.335   6.585  21.079  0.00  0.00    +0.000 HD
BRANCH  14  20
ATOM     16 CL   UNL     1      -1.107  11.118  20.172  0.00  0.00    +0.000 Cl
ATOM     17  C   UNL     1       0.019   9.818  20.150  0.00  0.00    +0.000 A 
ATOM     18  C   UNL     1       0.102   8.964  21.240  0.00  0.00    +0.000 A 
ATOM     19  C   UNL     1       1.025   7.917  21.229  0.00  0.00    +0.000 A 
ATOM     20  C   UNL     1       1.894   7.713  20.145  0.00  0.00    +0.000 A 
ATOM     21  C   UNL     1       1.767   8.581  19.043  0.00  0.00    +0.000 A 
ATOM     22 CL   UNL     1       2.781   8.388  17.652  0.00  0.00    +0.000 Cl
ATOM     23  C   UNL     1       0.838   9.625  19.040  0.00  0.00    +0.000 A 
ENDBRANCH  14  20
ENDBRANCH   1  14
TORSDOF 3
ENDMDL
MODEL 4
REMARK VINA RESULT:      -7.6      0.738      1.418
REMARK  Name = 
REMARK  3 active torsions:
REMARK  status: ('A' for Active; 'I' for Inactive)
REMARK    1  A    between atoms: C_5  and  N_6
REMARK    2  A    between atoms: N_6  and  C_7
REMARK    3  A    between atoms: C_9  and  C_10
REMARK                            x       y       z     vdW  Elec       q    Type
REMARK                         _______ _______ _______ _____ _____    ______ ____
ROOT
ATOM      1  C   UNL     1       3.334   5.780  19.562  0.00  0.00    +0.000 A 
ATOM      2  N   UNL     1       4.565   6.067  19.074  0.00  0.00    +0.000 NA
ATOM      3  C   UNL     1       5.291   5.160  18.389  0.00  0.00    +0.000 A 
ATOM      4  N   UNL     1       4.870   3.907  18.140  0.00  0.00    +0.000 NA
ATOM      5  C   UNL     1       3.642   3.595  18.614  0.00  0.00    +0.000 A 
ATOM      6  C   UNL     1       3.010   2.325  18.449  0.00  0.00    +0.000 A 
ATOM      7  C   UNL     1       1.766   2.282  19.032  0.00  0.00    +0.000 A 
ATOM      8  S   UNL     1       1.354   3.766  19.771  0.00  0.00    +0.000 S 
ATOM      9  C   UNL     1       2.850   4.492  19.320  0.00  0.00    +0.000 A 
ENDROOT
BRANCH   3  10
ATOM     10  C   UNL     1       6.676   5.580  17.870  0.00  0.00    +0.000 C 
ATOM     11 CL   UNL     1       7.294   4.514  16.553  0.00  0.00    +0.000 Cl
ATOM     12 CL   UNL     1       6.606   7.253  17.209  0.00  0.00    +0.000 Cl
ATOM     13 CL   UNL     1       7.878   5.527  19.206  0.00  0.00    +0.000 Cl
ENDBRANCH   3  10
BRANCH   1  14
ATOM     14  N   UNL     1       2.600   6.764  20.240  0.00  0.00    +0.000 N 
ATOM     15  H   UNL     1       2.300   6.492  21.172  0.00  0.00    +0.000 HD
BRANCH  14  20
ATOM     16 CL   UNL     1      -0.380  11.417  18.038  0.00  0.00    +0.000 Cl
ATOM     17  C   UNL     1       0.517  10.101  18.685  0.00  0.00    +0.000 A 
ATOM     18  C   UNL     1       1.298   9.322  17.842  0.00  0.00    +0.000 A 
ATOM     19  C   UNL     1       2.016   8.245  18.364  0.00  0.00    +0.000 A 
ATOM     20  C   UNL     1       1.956   7.911  19.727  0.00  0.00    +0.000 A 
ATOM     21  C   UNL     1       1.175   8.735  20.560  0.00  0.00    +0.000 A 
ATOM     22 CL   UNL     1       1.062   8.412  22.258  0.00  0.00    +0.000 Cl
ATOM     23  C   UNL     1       0.462   9.824  20.049  0.00  0.00    +0.000 A 
ENDBRANCH  14  20
ENDBRANCH   1  14
TORSDOF 3
ENDMDL
MODEL 5
REMARK VINA RESULT:      -7.6      1.255      2.100
REMARK  Name = 
REMARK  3 active torsions:
REMARK  status: ('A' for Active; 'I' for Inactive)
REMARK    1  A    between atoms: C_5  and  N_6
REMARK    2  A    between atoms: N_6  and  C_7
REMARK    3  A    between atoms: C_9  and  C_10
REMARK                            x       y       z     vdW  Elec       q    Type
REMARK                         _______ _______ _______ _____ _____    ______ ____
ROOT
ATOM      1  C   UNL     1       3.164   5.672  19.241  0.00  0.00    +0.000 A 
ATOM      2  N   UNL     1       4.172   5.784  18.344  0.00  0.00    +0.000 NA
ATOM      3  C   UNL     1       4.421   4.828  17.425  0.00  0.00    +0.000 A 
ATOM      4  N   UNL     1       3.708   3.691  17.325  0.00  0.00    +0.000 NA
ATOM      5  C   UNL     1       2.692   3.556  18.208  0.00  0.00    +0.000 A 
ATOM      6  C   UNL     1       1.812   2.433  18.263  0.00  0.00    +0.000 A 
ATOM      7  C   UNL     1       0.871   2.554  19.257  0.00  0.00    +0.000 A 
ATOM      8  S   UNL     1       1.040   4.019  20.121  0.00  0.00    +0.000 S 
ATOM      9  C   UNL     1       2.388   4.512  19.170  0.00  0.00    +0.000 A 
ENDROOT
BRANCH   3  10
ATOM     10  C   UNL     1       5.586   5.046  16.446  0.00  0.00    +0.000 C 
ATOM     11 CL   UNL     1       5.898   3.621  15.385  0.00  0.00    +0.000 Cl
ATOM     12 CL   UNL     1       5.231   6.441  15.366  0.00  0.00    +0.000 Cl
ATOM     13 CL   UNL     1       7.103   5.376  17.353  0.00  0.00    +0.000 Cl
ENDBRANCH   3  10
BRANCH   1  14
ATOM     14  N   UNL     1       2.919   6.707  20.156  0.00  0.00    +0.000 N 
ATOM     15  H   UNL     1       3.371   6.580  21.057  0.00  0.00    +0.000 HD
BRANCH  14  20
ATOM     16 CL   UNL     1      -1.086  11.104  20.183  0.00  0.00    +0.000 Cl
ATOM     17  C   UNL     1       0.040   9.805  20.153  0.00  0.00    +0.000 A 
ATOM     18  C   UNL     1       0.130   8.949  21.242  0.00  0.00    +0.000 A 
ATOM     19  C   UNL     1       1.053   7.903  21.225  0.00  0.00    +0.000 A 
ATOM     20  C   UNL     1       1.917   7.701  20.135  0.00  0.00    +0.000 A 
ATOM     21  C   UNL     1       1.783   8.570  19.035  0.00  0.00    +0.000 A 
ATOM     22 CL   UNL     1       2.789   8.380  17.639  0.00  0.00    +0.000 Cl
ATOM     23  C   UNL     1       0.853   9.614  19.039  0.00  0.00    +0.000 A 
ENDBRANCH  14  20
ENDBRANCH   1  14
TORSDOF 3
ENDMDL
MODEL 6
REMARK VINA RESULT:      -7.5      1.261      1.814
REMARK  Name = 
REMARK  3 active torsions:
REMARK  status: ('A' for Active; 'I' for Inactive)
REMARK    1  A    between atoms: C_5  and  N_6
REMARK    2  A    between atoms: N_6  and  C_7
REMARK    3  A    between atoms: C_9  and  C_10
REMARK                            x       y       z     vdW  Elec       q    Type
REMARK                         _______ _______ _______ _____ _____    ______ ____
ROOT
ATOM      1  C   UNL     1       3.155   5.698  19.243  0.00  0.00    +0.000 A 
ATOM      2  N   UNL     1       4.165   5.814  18.349  0.00  0.00    +0.000 NA
ATOM      3  C   UNL     1       4.419   4.860  17.430  0.00  0.00    +0.000 A 
ATOM      4  N   UNL     1       3.711   3.722  17.325  0.00  0.00    +0.000 NA
ATOM      5  C   UNL     1       2.693   3.582  18.205  0.00  0.00    +0.000 A 
ATOM      6  C   UNL     1       1.816   2.456  18.256  0.00  0.00    +0.000 A 
ATOM      7  C   UNL     1       0.872   2.573  19.248  0.00  0.00    +0.000 A 
ATOM      8  S   UNL     1       1.034   4.037  20.114  0.00  0.00    +0.000 S 
ATOM      9  C   UNL     1       2.383   4.536  19.168  0.00  0.00    +0.000 A 
ENDROOT
BRANCH   3  10
ATOM     10  C   UNL     1       5.587   5.084  16.454  0.00  0.00    +0.000 C 
ATOM     11 CL   UNL     1       5.275   6.406  15.266  0.00  0.00    +0.000 Cl
ATOM     12 CL   UNL     1       7.074   5.530  17.363  0.00  0.00    +0.000 Cl
ATOM     13 CL   UNL     1       5.901   3.586  15.511  0.00  0.00    +0.000 Cl
ENDBRANCH   3  10
BRANCH   1  14
ATOM     14  N   UNL     1       2.904   6.730  20.159  0.00  0.00    +0.000 N 
ATOM     15  H   UNL     1       3.351   6.602  21.062  0.00  0.00    +0.000 HD
BRANCH  14  20
ATOM     16 CL   UNL     1      -1.103  11.125  20.170  0.00  0.00    +0.000 Cl
ATOM     17  C   UNL     1       0.023   9.827  20.145  0.00  0.00    +0.000 A 
ATOM     18  C   UNL     1       0.118   8.979  21.240  0.00  0.00    +0.000 A 
ATOM     19  C   UNL     1       1.042   7.933  21.226  0.00  0.00    +0.000 A 
ATOM     20  C   UNL     1       1.901   7.724  20.135  0.00  0.00    +0.000 A 
ATOM     21  C   UNL     1       1.763   8.585  19.030  0.00  0.00    +0.000 A 
ATOM     22 CL   UNL     1       2.764   8.386  17.631  0.00  0.00    +0.000 Cl
ATOM     23  C   UNL     1       0.832   9.628  19.029  0.00  0.00    +0.000 A 
ENDBRANCH  14  20
ENDBRANCH   1  14
TORSDOF 3
ENDMDL
MODEL 7
REMARK VINA RESULT:      -7.3      1.554      2.315
REMARK  Name = 
REMARK  3 active torsions:
REMARK  status: ('A' for Active; 'I' for Inactive)
REMARK    1  A    between atoms: C_5  and  N_6
REMARK    2  A    between atoms: N_6  and  C_7
REMARK    3  A    between atoms: C_9  and  C_10
REMARK                            x       y       z     vdW  Elec       q    Type
REMARK                         _______ _______ _______ _____ _____    ______ ____
ROOT
ATOM      1  C   UNL     1       3.386   5.984  18.819  0.00  0.00    +0.000 A 
ATOM      2  N   UNL     1       4.693   6.213  18.551  0.00  0.00    +0.000 NA
ATOM      3  C   UNL     1       5.636   5.265  18.730  0.00  0.00    +0.000 A 
ATOM      4  N   UNL     1       5.369   4.030  19.191  0.00  0.00    +0.000 NA
ATOM      5  C   UNL     1       4.069   3.773  19.463  0.00  0.00    +0.000 A 
ATOM      6  C   UNL     1       3.575   2.526  19.951  0.00  0.00    +0.000 A 
ATOM      7  C   UNL     1       2.215   2.541  20.142  0.00  0.00    +0.000 A 
ATOM      8  S   UNL     1       1.528   4.051  19.732  0.00  0.00    +0.000 S 
ATOM      9  C   UNL     1       3.057   4.711  19.291  0.00  0.00    +0.000 A 
ENDROOT
BRANCH   3  10
ATOM     10  C   UNL     1       7.095   5.619  18.394  0.00  0.00    +0.000 C 
ATOM     11 CL   UNL     1       7.270   7.230  17.601  0.00  0.00    +0.000 Cl
ATOM     12 CL   UNL     1       8.081   5.660  19.899  0.00  0.00    +0.000 Cl
ATOM     13 CL   UNL     1       7.785   4.395  17.273  0.00  0.00    +0.000 Cl
ENDBRANCH   3  10
BRANCH   1  14
ATOM     14  N   UNL     1       2.434   6.988  18.586  0.00  0.00    +0.000 N 
ATOM     15  H   UNL     1       2.391   7.304  17.622  0.00  0.00    +0.000 HD
BRANCH  14  20
ATOM     16 CL   UNL     1      -0.052  10.645  22.564  0.00  0.00    +0.000 Cl
ATOM     17  C   UNL     1       0.623   9.575  21.399  0.00  0.00    +0.000 A 
ATOM     18  C   UNL     1       0.936   8.273  21.763  0.00  0.00    +0.000 A 
ATOM     19  C   UNL     1       1.497   7.409  20.822  0.00  0.00    +0.000 A 
ATOM     20  C   UNL     1       1.775   7.827  19.510  0.00  0.00    +0.000 A 
ATOM     21  C   UNL     1       1.422   9.146  19.165  0.00  0.00    +0.000 A 
ATOM     22 CL   UNL     1       1.707   9.741  17.563  0.00  0.00    +0.000 Cl
ATOM     23  C   UNL     1       0.849  10.016  20.098  0.00  0.00    +0.000 A 
ENDBRANCH  14  20
ENDBRANCH   1  14
TORSDOF 3
ENDMDL
MODEL 8
REMARK VINA RESULT:      -7.3      1.390      1.552
REMARK  Name = 
REMARK  3 active torsions:
REMARK  status: ('A' for Active; 'I' for Inactive)
REMARK    1  A    between atoms: C_5  and  N_6
REMARK    2  A    between atoms: N_6  and  C_7
REMARK    3  A    between atoms: C_9  and  C_10
REMARK                            x       y       z     vdW  Elec       q    Type
REMARK                         _______ _______ _______ _____ _____    ______ ____
ROOT
ATOM      1  C   UNL     1       3.165   5.719  18.593  0.00  0.00    +0.000 A 
ATOM      2  N   UNL     1       4.444   6.049  18.293  0.00  0.00    +0.000 NA
ATOM      3  C   UNL     1       5.478   5.230  18.576  0.00  0.00    +0.000 A 
ATOM      4  N   UNL     1       5.337   4.037  19.181  0.00  0.00    +0.000 NA
ATOM      5  C   UNL     1       4.069   3.682  19.490  0.00  0.00    +0.000 A 
ATOM      6  C   UNL     1       3.703   2.457  20.124  0.00  0.00    +0.000 A 
ATOM      7  C   UNL     1       2.347   2.355  20.322  0.00  0.00    +0.000 A 
ATOM      8  S   UNL     1       1.512   3.727  19.740  0.00  0.00    +0.000 S 
ATOM      9  C   UNL     1       2.967   4.484  19.215  0.00  0.00    +0.000 A 
ENDROOT
BRANCH   3  10
ATOM     10  C   UNL     1       6.895   5.690  18.192  0.00  0.00    +0.000 C 
ATOM     11 CL   UNL     1       6.924   7.310  17.399  0.00  0.00    +0.000 Cl
ATOM     12 CL   UNL     1       7.927   5.802  19.662  0.00  0.00    +0.000 Cl
ATOM     13 CL   UNL     1       7.634   4.521  17.043  0.00  0.00    +0.000 Cl
ENDBRANCH   3  10
BRANCH   1  14
ATOM     14  N   UNL     1       2.117   6.585  18.249  0.00  0.00    +0.000 N 
ATOM     15  H   UNL     1       1.535   6.251  17.487  0.00  0.00    +0.000 HD
BRANCH  14  20
ATOM     16 CL   UNL     1       1.075  12.306  19.501  0.00  0.00    +0.000 Cl
ATOM     17  C   UNL     1       1.419  10.657  19.158  0.00  0.00    +0.000 A 
ATOM     18  C   UNL     1       1.925  10.306  17.914  0.00  0.00    +0.000 A 
ATOM     19  C   UNL     1       2.192   8.965  17.630  0.00  0.00    +0.000 A 
ATOM     20  C   UNL     1       1.943   7.950  18.568  0.00  0.00    +0.000 A 
ATOM     21  C   UNL     1       1.454   8.341  19.829  0.00  0.00    +0.000 A 
ATOM     22 CL   UNL     1       1.141   7.159  21.055  0.00  0.00    +0.000 Cl
ATOM     23  C   UNL     1       1.194   9.682  20.127  0.00  0.00    +0.000 A 
ENDBRANCH  14  20
ENDBRANCH   1  14
TORSDOF 3
ENDMDL
MODEL 9
REMARK VINA RESULT:      -7.3      1.406      1.900
REMARK  Name = 
REMARK  3 active torsions:
REMARK  status: ('A' for Active; 'I' for Inactive)
REMARK    1  A    between atoms: C_5  and  N_6
REMARK    2  A    between atoms: N_6  and  C_7
REMARK    3  A    between atoms: C_9  and  C_10
REMARK                            x       y       z     vdW  Elec       q    Type
REMARK                         _______ _______ _______ _____ _____    ______ ____
ROOT
ATOM      1  C   UNL     1       3.190   5.751  18.622  0.00  0.00    +0.000 A 
ATOM      2  N   UNL     1       4.468   6.046  18.286  0.00  0.00    +0.000 NA
ATOM      3  C   UNL     1       5.494   5.224  18.586  0.00  0.00    +0.000 A 
ATOM      4  N   UNL     1       5.345   4.060  19.243  0.00  0.00    +0.000 NA
ATOM      5  C   UNL     1       4.077   3.738  19.587  0.00  0.00    +0.000 A 
ATOM      6  C   UNL     1       3.703   2.546  20.279  0.00  0.00    +0.000 A 
ATOM      7  C   UNL     1       2.349   2.475  20.503  0.00  0.00    +0.000 A 
ATOM      8  S   UNL     1       1.525   3.835  19.878  0.00  0.00    +0.000 S 
ATOM      9  C   UNL     1       2.983   4.546  19.298  0.00  0.00    +0.000 A 
ENDROOT
BRANCH   3  10
ATOM     10  C   UNL     1       6.910   5.644  18.159  0.00  0.00    +0.000 C 
ATOM     11 CL   UNL     1       7.673   4.492  16.998  0.00  0.00    +0.000 Cl
ATOM     12 CL   UNL     1       6.860   7.252  17.352  0.00  0.00    +0.000 Cl
ATOM     13 CL   UNL     1       7.986   5.741  19.597  0.00  0.00    +0.000 Cl
ENDBRANCH   3  10
BRANCH   1  14
ATOM     14  N   UNL     1       2.149   6.619  18.260  0.00  0.00    +0.000 N 
ATOM     15  H   UNL     1       1.588   6.293  17.478  0.00  0.00    +0.000 HD
BRANCH  14  20
ATOM     16 CL   UNL     1       1.058  12.320  19.560  0.00  0.00    +0.000 Cl
ATOM     17  C   UNL     1       1.417  10.676  19.202  0.00  0.00    +0.000 A 
ATOM     18  C   UNL     1       1.915  10.339  17.952  0.00  0.00    +0.000 A 
ATOM     19  C   UNL     1       2.194   9.004  17.657  0.00  0.00    +0.000 A 
ATOM     20  C   UNL     1       1.963   7.979  18.589  0.00  0.00    +0.000 A 
ATOM     21  C   UNL     1       1.481   8.357  19.857  0.00  0.00    +0.000 A 
ATOM     22 CL   UNL     1       1.190   7.163  21.077  0.00  0.00    +0.000 Cl
ATOM     23  C   UNL     1       1.210   9.693  20.167  0.00  0.00    +0.000 A 
ENDBRANCH  14  20
ENDBRANCH   1  14
TORSDOF 3
ENDMDL
