MODEL 1
REMARK VINA RESULT:      -7.4      0.000      0.000
REMARK  Name = 
REMARK  5 active torsions:
REMARK  status: ('A' for Active; 'I' for Inactive)
REMARK    1  A    between atoms: C_2  and  C_3
REMARK    2  A    between atoms: C_2  and  C_11
REMARK    3  A    between atoms: C_4  and  C_5
REMARK    4  A    between atoms: N_13  and  C_14
REMARK    5  A    between atoms: C_14  and  C_15
REMARK                            x       y       z     vdW  Elec       q    Type
REMARK                         _______ _______ _______ _____ _____    ______ ____
ROOT
ATOM      1  O   UNL     1       7.647   6.919  16.504  0.00  0.00    +0.000 OA
ATOM      2  C   UNL     1       7.670   7.040  17.721  0.00  0.00    +0.000 C 
ENDROOT
BRANCH   2   3
ATOM      3  C   UNL     1       6.920   6.038  18.617  0.00  0.00    +0.000 C 
ATOM      4  O   UNL     1       7.534   5.339  19.413  0.00  0.00    +0.000 OA
ATOM      5  N   UNL     1       5.555   5.998  18.431  0.00  0.00    +0.000 N 
ATOM      6  H   UNL     1       5.140   6.597  17.725  0.00  0.00    +0.000 HD
BRANCH   5   7
ATOM      7  C   UNL     1       4.698   5.115  19.208  0.00  0.00    +0.000 C 
BRANCH   7   8
ATOM      8  C   UNL     1       4.370   3.817  18.468  0.00  0.00    +0.000 C 
ATOM      9  C   UNL     1       3.129   3.893  17.591  0.00  0.00    +0.000 C 
ATOM     10  C   UNL     1       2.663   2.459  17.582  0.00  0.00    +0.000 C 
ATOM     11  C   UNL     1       3.008   1.994  18.980  0.00  0.00    +0.000 C 
ATOM     12  O   UNL     1       4.146   2.752  19.411  0.00  0.00    +0.000 OA
ENDBRANCH   7   8
ENDBRANCH   5   7
ENDBRANCH   2   3
BRANCH   2  13
ATOM     13  C   UNL     1       8.421   8.106  18.442  0.00  0.00    +0.000 C 
ATOM     14  C   UNL     1       8.418   9.383  18.027  0.00  0.00    +0.000 C 
BRANCH  14  15
ATOM     15  C   UNL     1       9.221  10.445  18.661  0.00  0.00    +0.000 A 
ATOM     16  C   UNL     1       9.292  10.498  20.060  0.00  0.00    +0.000 A 
ATOM     17  C   UNL     1      10.000  11.517  20.704  0.00  0.00    +0.000 A 
ATOM     18  C   UNL     1      10.662  12.489  19.956  0.00  0.00    +0.000 A 
ATOM     19  C   UNL     1      10.630  12.429  18.566  0.00  0.00    +0.000 A 
ATOM     20  C   UNL     1       9.923  11.409  17.922  0.00  0.00    +0.000 A 
ENDBRANCH  14  15
ENDBRANCH   2  13
TORSDOF 5
ENDMDL
MODEL 2
REMARK VINA RESULT:      -7.4      4.983      5.806
REMARK  Name = 
REMARK  5 active torsions:
REMARK  status: ('A' for Active; 'I' for Inactive)
REMARK    1  A    between atoms: C_2  and  C_3
REMARK    2  A    between atoms: C_2  and  C_11
REMARK    3  A    between atoms: C_4  and  C_5
REMARK    4  A    between atoms: N_13  and  C_14
REMARK    5  A    between atoms: C_14  and  C_15
REMARK                            x       y       z     vdW  Elec       q    Type
REMARK                         _______ _______ _______ _____ _____    ______ ____
ROOT
ATOM      1  O   UNL     1       5.394   5.509  16.036  0.00  0.00    +0.000 OA
ATOM      2  C   UNL     1       4.770   5.497  17.089  0.00  0.00    +0.000 C 
ENDROOT
BRANCH   2   3
ATOM      3  C   UNL     1       4.674   4.205  17.919  0.00  0.00    +0.000 C 
ATOM      4  O   UNL     1       5.451   4.005  18.844  0.00  0.00    +0.000 OA
ATOM      5  N   UNL     1       3.682   3.333  17.528  0.00  0.00    +0.000 N 
ATOM      6  H   UNL     1       3.105   3.575  16.729  0.00  0.00    +0.000 HD
BRANCH   5   7
ATOM      7  C   UNL     1       3.449   2.072  18.217  0.00  0.00    +0.000 C 
BRANCH   7   8
ATOM      8  C   UNL     1       2.400   2.195  19.323  0.00  0.00    +0.000 C 
ATOM      9  C   UNL     1       1.337   3.251  19.062  0.00  0.00    +0.000 C 
ATOM     10  C   UNL     1       0.931   3.641  20.461  0.00  0.00    +0.000 C 
ATOM     11  C   UNL     1       2.237   3.544  21.219  0.00  0.00    +0.000 C 
ATOM     12  O   UNL     1       3.033   2.544  20.570  0.00  0.00    +0.000 OA
ENDBRANCH   7   8
ENDBRANCH   5   7
ENDBRANCH   2   3
BRANCH   2  13
ATOM     13  C   UNL     1       4.093   6.688  17.674  0.00  0.00    +0.000 C 
ATOM     14  C   UNL     1       2.854   6.620  18.187  0.00  0.00    +0.000 C 
BRANCH  14  15
ATOM     15  C   UNL     1       2.118   7.795  18.692  0.00  0.00    +0.000 A 
ATOM     16  C   UNL     1       1.790   7.855  20.054  0.00  0.00    +0.000 A 
ATOM     17  C   UNL     1       1.051   8.925  20.566  0.00  0.00    +0.000 A 
ATOM     18  C   UNL     1       0.643   9.959  19.725  0.00  0.00    +0.000 A 
ATOM     19  C   UNL     1       0.991   9.931  18.378  0.00  0.00    +0.000 A 
ATOM     20  C   UNL     1       1.731   8.861  17.867  0.00  0.00    +0.000 A 
ENDBRANCH  14  15
ENDBRANCH   2  13
TORSDOF 5
ENDMDL
MODEL 3
REMARK VINA RESULT:      -7.4      1.104      1.706
REMARK  Name = 
REMARK  5 active torsions:
REMARK  status: ('A' for Active; 'I' for Inactive)
REMARK    1  A    between atoms: C_2  and  C_3
REMARK    2  A    between atoms: C_2  and  C_11
REMARK    3  A    between atoms: C_4  and  C_5
REMARK    4  A    between atoms: N_13  and  C_14
REMARK    5  A    between atoms: C_14  and  C_15
REMARK                            x       y       z     vdW  Elec       q    Type
REMARK                         _______ _______ _______ _____ _____    ______ ____
ROOT
ATOM      1  O   UNL     1       7.311   7.240  16.623  0.00  0.00    +0.000 OA
ATOM      2  C   UNL     1       7.595   7.198  17.813  0.00  0.00    +0.000 C 
ENDROOT
BRANCH   2   3
ATOM      3  C   UNL     1       7.077   6.048  18.694  0.00  0.00    +0.000 C 
ATOM      4  O   UNL     1       7.797   5.553  19.553  0.00  0.00    +0.000 OA
ATOM      5  N   UNL     1       5.789   5.640  18.424  0.00  0.00    +0.000 N 
ATOM      6  H   UNL     1       5.280   6.093  17.672  0.00  0.00    +0.000 HD
BRANCH   5   7
ATOM      7  C   UNL     1       5.145   4.573  19.176  0.00  0.00    +0.000 C 
BRANCH   7   8
ATOM      8  C   UNL     1       3.642   4.800  19.345  0.00  0.00    +0.000 C 
ATOM      9  C   UNL     1       2.904   3.643  20.002  0.00  0.00    +0.000 C 
ATOM     10  C   UNL     1       1.518   3.789  19.428  0.00  0.00    +0.000 C 
ATOM     11  C   UNL     1       1.794   4.274  18.022  0.00  0.00    +0.000 C 
ATOM     12  O   UNL     1       3.025   5.009  18.060  0.00  0.00    +0.000 OA
ENDBRANCH   7   8
ENDBRANCH   5   7
ENDBRANCH   2   3
BRANCH   2  13
ATOM     13  C   UNL     1       8.462   8.193  18.503  0.00  0.00    +0.000 C 
ATOM     14  C   UNL     1       8.450   9.495  18.174  0.00  0.00    +0.000 C 
BRANCH  14  15
ATOM     15  C   UNL     1       9.357  10.492  18.772  0.00  0.00    +0.000 A 
ATOM     16  C   UNL     1      10.229  11.203  17.935  0.00  0.00    +0.000 A 
ATOM     17  C   UNL     1      11.141  12.122  18.464  0.00  0.00    +0.000 A 
ATOM     18  C   UNL     1      11.181  12.355  19.837  0.00  0.00    +0.000 A 
ATOM     19  C   UNL     1      10.298  11.683  20.677  0.00  0.00    +0.000 A 
ATOM     20  C   UNL     1       9.386  10.766  20.147  0.00  0.00    +0.000 A 
ENDBRANCH  14  15
ENDBRANCH   2  13
TORSDOF 5
ENDMDL
MODEL 4
REMARK VINA RESULT:      -7.4      0.959      1.121
REMARK  Name = 
REMARK  5 active torsions:
REMARK  status: ('A' for Active; 'I' for Inactive)
REMARK    1  A    between atoms: C_2  and  C_3
REMARK    2  A    between atoms: C_2  and  C_11
REMARK    3  A    between atoms: C_4  and  C_5
REMARK    4  A    between atoms: N_13  and  C_14
REMARK    5  A    between atoms: C_14  and  C_15
REMARK                            x       y       z     vdW  Elec       q    Type
REMARK                         _______ _______ _______ _____ _____    ______ ____
ROOT
ATOM      1  O   UNL     1       6.981   7.289  16.697  0.00  0.00    +0.000 OA
ATOM      2  C   UNL     1       7.481   7.145  17.805  0.00  0.00    +0.000 C 
ENDROOT
BRANCH   2   3
ATOM      3  C   UNL     1       7.189   5.878  18.628  0.00  0.00    +0.000 C 
ATOM      4  O   UNL     1       8.087   5.325  19.252  0.00  0.00    +0.000 OA
ATOM      5  N   UNL     1       5.884   5.440  18.584  0.00  0.00    +0.000 N 
ATOM      6  H   UNL     1       5.217   5.950  18.015  0.00  0.00    +0.000 HD
BRANCH   5   7
ATOM      7  C   UNL     1       5.440   4.265  19.319  0.00  0.00    +0.000 C 
BRANCH   7   8
ATOM      8  C   UNL     1       3.995   3.883  18.996  0.00  0.00    +0.000 C 
ATOM      9  C   UNL     1       3.748   3.546  17.533  0.00  0.00    +0.000 C 
ATOM     10  C   UNL     1       2.293   3.903  17.370  0.00  0.00    +0.000 C 
ATOM     11  C   UNL     1       2.149   5.111  18.270  0.00  0.00    +0.000 C 
ATOM     12  O   UNL     1       3.110   4.971  19.325  0.00  0.00    +0.000 OA
ENDBRANCH   7   8
ENDBRANCH   5   7
ENDBRANCH   2   3
BRANCH   2  13
ATOM     13  C   UNL     1       8.412   8.120  18.437  0.00  0.00    +0.000 C 
ATOM     14  C   UNL     1       8.368   9.432  18.153  0.00  0.00    +0.000 C 
BRANCH  14  15
ATOM     15  C   UNL     1       9.330  10.412  18.690  0.00  0.00    +0.000 A 
ATOM     16  C   UNL     1       9.348  10.659  20.069  0.00  0.00    +0.000 A 
ATOM     17  C   UNL     1      10.209  11.615  20.616  0.00  0.00    +0.000 A 
ATOM     18  C   UNL     1      11.076  12.328  19.790  0.00  0.00    +0.000 A 
ATOM     19  C   UNL     1      11.094  12.070  18.422  0.00  0.00    +0.000 A 
ATOM     20  C   UNL     1      10.234  11.112  17.877  0.00  0.00    +0.000 A 
ENDBRANCH  14  15
ENDBRANCH   2  13
TORSDOF 5
ENDMDL
MODEL 5
REMARK VINA RESULT:      -7.4      4.619      7.532
REMARK  Name = 
REMARK  5 active torsions:
REMARK  status: ('A' for Active; 'I' for Inactive)
REMARK    1  A    between atoms: C_2  and  C_3
REMARK    2  A    between atoms: C_2  and  C_11
REMARK    3  A    between atoms: C_4  and  C_5
REMARK    4  A    between atoms: N_13  and  C_14
REMARK    5  A    between atoms: C_14  and  C_15
REMARK                            x       y       z     vdW  Elec       q    Type
REMARK                         _______ _______ _______ _____ _____    ______ ____
ROOT
ATOM      1  O   UNL     1       6.208   7.490  17.011  0.00  0.00    +0.000 OA
ATOM      2  C   UNL     1       6.005   6.285  16.946  0.00  0.00    +0.000 C 
ENDROOT
BRANCH   2   3
ATOM      3  C   UNL     1       6.804   5.416  15.958  0.00  0.00    +0.000 C 
ATOM      4  O   UNL     1       7.688   4.672  16.363  0.00  0.00    +0.000 OA
ATOM      5  N   UNL     1       6.451   5.563  14.635  0.00  0.00    +0.000 N 
ATOM      6  H   UNL     1       5.723   6.227  14.394  0.00  0.00    +0.000 HD
BRANCH   5   7
ATOM      7  C   UNL     1       7.100   4.804  13.576  0.00  0.00    +0.000 C 
BRANCH   7   8
ATOM      8  C   UNL     1       6.302   3.564  13.171  0.00  0.00    +0.000 C 
ATOM      9  C   UNL     1       6.799   2.886  11.902  0.00  0.00    +0.000 C 
ATOM     10  C   UNL     1       5.543   2.236  11.381  0.00  0.00    +0.000 C 
ATOM     11  C   UNL     1       4.475   3.239  11.758  0.00  0.00    +0.000 C 
ATOM     12  O   UNL     1       4.924   3.914  12.940  0.00  0.00    +0.000 OA
ENDBRANCH   7   8
ENDBRANCH   5   7
ENDBRANCH   2   3
BRANCH   2  13
ATOM     13  C   UNL     1       5.030   5.552  17.800  0.00  0.00    +0.000 C 
ATOM     14  C   UNL     1       3.704   5.667  17.624  0.00  0.00    +0.000 C 
BRANCH  14  15
ATOM     15  C   UNL     1       2.709   5.029  18.506  0.00  0.00    +0.000 A 
ATOM     16  C   UNL     1       2.534   5.528  19.804  0.00  0.00    +0.000 A 
ATOM     17  C   UNL     1       1.638   4.924  20.691  0.00  0.00    +0.000 A 
ATOM     18  C   UNL     1       0.891   3.820  20.285  0.00  0.00    +0.000 A 
ATOM     19  C   UNL     1       1.027   3.334  18.988  0.00  0.00    +0.000 A 
ATOM     20  C   UNL     1       1.922   3.940  18.102  0.00  0.00    +0.000 A 
ENDBRANCH  14  15
ENDBRANCH   2  13
TORSDOF 5
ENDMDL
MODEL 6
REMARK VINA RESULT:      -7.4      4.378      6.095
REMARK  Name = 
REMARK  5 active torsions:
REMARK  status: ('A' for Active; 'I' for Inactive)
REMARK    1  A    between atoms: C_2  and  C_3
REMARK    2  A    between atoms: C_2  and  C_11
REMARK    3  A    between atoms: C_4  and  C_5
REMARK    4  A    between atoms: N_13  and  C_14
REMARK    5  A    between atoms: C_14  and  C_15
REMARK                            x       y       z     vdW  Elec       q    Type
REMARK                         _______ _______ _______ _____ _____    ______ ____
ROOT
ATOM      1  O   UNL     1       8.128   5.748  18.953  0.00  0.00    +0.000 OA
ATOM      2  C   UNL     1       7.259   5.122  18.361  0.00  0.00    +0.000 C 
ENDROOT
BRANCH   2   3
ATOM      3  C   UNL     1       5.924   4.800  19.057  0.00  0.00    +0.000 C 
ATOM      4  O   UNL     1       5.262   5.695  19.569  0.00  0.00    +0.000 OA
ATOM      5  N   UNL     1       5.573   3.468  19.059  0.00  0.00    +0.000 N 
ATOM      6  H   UNL     1       6.203   2.796  18.633  0.00  0.00    +0.000 HD
BRANCH   5   7
ATOM      7  C   UNL     1       4.335   2.999  19.663  0.00  0.00    +0.000 C 
BRANCH   7   8
ATOM      8  C   UNL     1       3.205   2.852  18.644  0.00  0.00    +0.000 C 
ATOM      9  C   UNL     1       2.481   4.151  18.321  0.00  0.00    +0.000 C 
ATOM     10  C   UNL     1       1.111   3.658  17.929  0.00  0.00    +0.000 C 
ATOM     11  C   UNL     1       0.912   2.476  18.853  0.00  0.00    +0.000 C 
ATOM     12  O   UNL     1       2.209   1.935  19.137  0.00  0.00    +0.000 OA
ENDBRANCH   7   8
ENDBRANCH   5   7
ENDBRANCH   2   3
BRANCH   2  13
ATOM     13  C   UNL     1       7.378   4.651  16.953  0.00  0.00    +0.000 C 
ATOM     14  C   UNL     1       6.808   5.311  15.932  0.00  0.00    +0.000 C 
BRANCH  14  15
ATOM     15  C   UNL     1       6.828   4.826  14.539  0.00  0.00    +0.000 A 
ATOM     16  C   UNL     1       7.688   5.442  13.620  0.00  0.00    +0.000 A 
ATOM     17  C   UNL     1       7.704   5.049  12.279  0.00  0.00    +0.000 A 
ATOM     18  C   UNL     1       6.871   4.021  11.841  0.00  0.00    +0.000 A 
ATOM     19  C   UNL     1       6.037   3.376  12.750  0.00  0.00    +0.000 A 
ATOM     20  C   UNL     1       6.022   3.769  14.091  0.00  0.00    +0.000 A 
ENDBRANCH  14  15
ENDBRANCH   2  13
TORSDOF 5
ENDMDL
MODEL 7
REMARK VINA RESULT:      -7.4      0.546      1.238
REMARK  Name = 
REMARK  5 active torsions:
REMARK  status: ('A' for Active; 'I' for Inactive)
REMARK    1  A    between atoms: C_2  and  C_3
REMARK    2  A    between atoms: C_2  and  C_11
REMARK    3  A    between atoms: C_4  and  C_5
REMARK    4  A    between atoms: N_13  and  C_14
REMARK    5  A    between atoms: C_14  and  C_15
REMARK                            x       y       z     vdW  Elec       q    Type
REMARK                         _______ _______ _______ _____ _____    ______ ____
ROOT
ATOM      1  O   UNL     1       7.423   7.026  16.562  0.00  0.00    +0.000 OA
ATOM      2  C   UNL     1       7.585   7.088  17.773  0.00  0.00    +0.000 C 
ENDROOT
BRANCH   2   3
ATOM      3  C   UNL     1       6.883   6.082  18.703  0.00  0.00    +0.000 C 
ATOM      4  O   UNL     1       7.527   5.453  19.533  0.00  0.00    +0.000 OA
ATOM      5  N   UNL     1       5.526   5.955  18.506  0.00  0.00    +0.000 N 
ATOM      6  H   UNL     1       5.085   6.499  17.772  0.00  0.00    +0.000 HD
BRANCH   5   7
ATOM      7  C   UNL     1       4.712   5.056  19.312  0.00  0.00    +0.000 C 
BRANCH   7   8
ATOM      8  C   UNL     1       4.737   3.618  18.792  0.00  0.00    +0.000 C 
ATOM      9  C   UNL     1       3.466   3.189  18.075  0.00  0.00    +0.000 C 
ATOM     10  C   UNL     1       3.461   1.700  18.309  0.00  0.00    +0.000 C 
ATOM     11  C   UNL     1       4.043   1.585  19.700  0.00  0.00    +0.000 C 
ATOM     12  O   UNL     1       4.926   2.699  19.885  0.00  0.00    +0.000 OA
ENDBRANCH   7   8
ENDBRANCH   5   7
ENDBRANCH   2   3
BRANCH   2  13
ATOM     13  C   UNL     1       8.466   8.079  18.450  0.00  0.00    +0.000 C 
ATOM     14  C   UNL     1       8.378   9.396  18.200  0.00  0.00    +0.000 C 
BRANCH  14  15
ATOM     15  C   UNL     1       9.293  10.396  18.783  0.00  0.00    +0.000 A 
ATOM     16  C   UNL     1      10.186  11.070  17.939  0.00  0.00    +0.000 A 
ATOM     17  C   UNL     1      11.103  11.990  18.454  0.00  0.00    +0.000 A 
ATOM     18  C   UNL     1      11.130  12.260  19.821  0.00  0.00    +0.000 A 
ATOM     19  C   UNL     1      10.226  11.624  20.667  0.00  0.00    +0.000 A 
ATOM     20  C   UNL     1       9.308  10.706  20.151  0.00  0.00    +0.000 A 
ENDBRANCH  14  15
ENDBRANCH   2  13
TORSDOF 5
ENDMDL
MODEL 8
REMARK VINA RESULT:      -7.3      5.010      5.770
REMARK  Name = 
REMARK  5 active torsions:
REMARK  status: ('A' for Active; 'I' for Inactive)
REMARK    1  A    between atoms: C_2  and  C_3
REMARK    2  A    between atoms: C_2  and  C_11
REMARK    3  A    between atoms: C_4  and  C_5
REMARK    4  A    between atoms: N_13  and  C_14
REMARK    5  A    between atoms: C_14  and  C_15
REMARK                            x       y       z     vdW  Elec       q    Type
REMARK                         _______ _______ _______ _____ _____    ______ ____
ROOT
ATOM      1  O   UNL     1       5.440   5.385  15.730  0.00  0.00    +0.000 OA
ATOM      2  C   UNL     1       4.897   5.451  16.824  0.00  0.00    +0.000 C 
ENDROOT
BRANCH   2   3
ATOM      3  C   UNL     1       4.958   4.259  17.795  0.00  0.00    +0.000 C 
ATOM      4  O   UNL     1       5.917   4.118  18.544  0.00  0.00    +0.000 OA
ATOM      5  N   UNL     1       3.885   3.398  17.730  0.00  0.00    +0.000 N 
ATOM      6  H   UNL     1       3.150   3.583  17.055  0.00  0.00    +0.000 HD
BRANCH   5   7
ATOM      7  C   UNL     1       3.782   2.228  18.591  0.00  0.00    +0.000 C 
BRANCH   7   8
ATOM      8  C   UNL     1       2.574   2.294  19.527  0.00  0.00    +0.000 C 
ATOM      9  C   UNL     1       1.605   3.426  19.219  0.00  0.00    +0.000 C 
ATOM     10  C   UNL     1       0.995   3.693  20.571  0.00  0.00    +0.000 C 
ATOM     11  C   UNL     1       2.158   3.452  21.508  0.00  0.00    +0.000 C 
ATOM     12  O   UNL     1       3.011   2.481  20.886  0.00  0.00    +0.000 OA
ENDBRANCH   7   8
ENDBRANCH   5   7
ENDBRANCH   2   3
BRANCH   2  13
ATOM     13  C   UNL     1       4.178   6.653  17.330  0.00  0.00    +0.000 C 
ATOM     14  C   UNL     1       3.151   6.558  18.190  0.00  0.00    +0.000 C 
BRANCH  14  15
ATOM     15  C   UNL     1       2.358   7.717  18.642  0.00  0.00    +0.000 A 
ATOM     16  C   UNL     1       2.085   8.747  17.731  0.00  0.00    +0.000 A 
ATOM     17  C   UNL     1       1.379   9.886  18.129  0.00  0.00    +0.000 A 
ATOM     18  C   UNL     1       0.923  10.004  19.441  0.00  0.00    +0.000 A 
ATOM     19  C   UNL     1       1.157   8.974  20.347  0.00  0.00    +0.000 A 
ATOM     20  C   UNL     1       1.861   7.834  19.948  0.00  0.00    +0.000 A 
ENDBRANCH  14  15
ENDBRANCH   2  13
TORSDOF 5
ENDMDL
MODEL 9
REMARK VINA RESULT:      -7.1      4.493      6.134
REMARK  Name = 
REMARK  5 active torsions:
REMARK  status: ('A' for Active; 'I' for Inactive)
REMARK    1  A    between atoms: C_2  and  C_3
REMARK    2  A    between atoms: C_2  and  C_11
REMARK    3  A    between atoms: C_4  and  C_5
REMARK    4  A    between atoms: N_13  and  C_14
REMARK    5  A    between atoms: C_14  and  C_15
REMARK                            x       y       z     vdW  Elec       q    Type
REMARK                         _______ _______ _______ _____ _____    ______ ____
ROOT
ATOM      1  O   UNL     1       8.278   5.182  19.135  0.00  0.00    +0.000 OA
ATOM      2  C   UNL     1       7.357   4.924  18.372  0.00  0.00    +0.000 C 
ENDROOT
BRANCH   2   3
ATOM      3  C   UNL     1       5.923   4.772  18.911  0.00  0.00    +0.000 C 
ATOM      4  O   UNL     1       5.201   5.754  19.034  0.00  0.00    +0.000 OA
ATOM      5  N   UNL     1       5.555   3.486  19.237  0.00  0.00    +0.000 N 
ATOM      6  H   UNL     1       6.234   2.740  19.126  0.00  0.00    +0.000 HD
BRANCH   5   7
ATOM      7  C   UNL     1       4.229   3.169  19.746  0.00  0.00    +0.000 C 
BRANCH   7   8
ATOM      8  C   UNL     1       3.190   3.033  18.632  0.00  0.00    +0.000 C 
ATOM      9  C   UNL     1       2.356   4.283  18.398  0.00  0.00    +0.000 C 
ATOM     10  C   UNL     1       1.075   3.707  17.849  0.00  0.00    +0.000 C 
ATOM     11  C   UNL     1       0.942   2.412  18.619  0.00  0.00    +0.000 C 
ATOM     12  O   UNL     1       2.268   1.971  18.942  0.00  0.00    +0.000 OA
ENDBRANCH   7   8
ENDBRANCH   5   7
ENDBRANCH   2   3
BRANCH   2  13
ATOM     13  C   UNL     1       7.508   4.766  16.899  0.00  0.00    +0.000 C 
ATOM     14  C   UNL     1       6.457   4.822  16.066  0.00  0.00    +0.000 C 
BRANCH  14  15
ATOM     15  C   UNL     1       6.556   4.581  14.614  0.00  0.00    +0.000 A 
ATOM     16  C   UNL     1       5.619   3.737  14.001  0.00  0.00    +0.000 A 
ATOM     17  C   UNL     1       5.705   3.442  12.638  0.00  0.00    +0.000 A 
ATOM     18  C   UNL     1       6.721   4.001  11.864  0.00  0.00    +0.000 A 
ATOM     19  C   UNL     1       7.637   4.868  12.451  0.00  0.00    +0.000 A 
ATOM     20  C   UNL     1       7.550   5.164  13.814  0.00  0.00    +0.000 A 
ENDBRANCH  14  15
ENDBRANCH   2  13
TORSDOF 5
ENDMDL
