MODEL 1
REMARK VINA RESULT:      -7.1      0.000      0.000
REMARK  Name = 
REMARK  5 active torsions:
REMARK  status: ('A' for Active; 'I' for Inactive)
REMARK    1  A    between atoms: N_1  and  C_2
REMARK    2  A    between atoms: N_15  and  C_16
REMARK    3  A    between atoms: C_18  and  C_19
REMARK    4  A    between atoms: C_19  and  O_20
REMARK    5  A    between atoms: C_21  and  O_22
REMARK                            x       y       z     vdW  Elec       q    Type
REMARK                         _______ _______ _______ _____ _____    ______ ____
ROOT
ATOM      1  C   UNL     1       6.891   6.742  17.414  0.00  0.00    +0.000 A 
ATOM      2  N   UNL     1       8.001   5.977  17.402  0.00  0.00    +0.000 NA
ATOM      3  C   UNL     1       7.897   4.693  17.781  0.00  0.00    +0.000 A 
ATOM      4  N   UNL     1       6.789   4.046  18.173  0.00  0.00    +0.000 NA
ATOM      5  C   UNL     1       5.708   4.835  18.171  0.00  0.00    +0.000 A 
ATOM      6  C   UNL     1       5.671   6.169  17.805  0.00  0.00    +0.000 A 
ATOM      7  C   UNL     1       4.315   6.597  17.941  0.00  0.00    +0.000 A 
ATOM      8  C   UNL     1       3.658   7.829  17.731  0.00  0.00    +0.000 A 
ATOM      9  C   UNL     1       2.280   7.920  17.928  0.00  0.00    +0.000 A 
ATOM     10 CL   UNL     1       1.486   9.425  17.663  0.00  0.00    +0.000 Cl
ATOM     11  C   UNL     1       1.543   6.814  18.329  0.00  0.00    +0.000 A 
ATOM     12  C   UNL     1       2.168   5.583  18.562  0.00  0.00    +0.000 A 
ATOM     13  C   UNL     1       3.559   5.492  18.370  0.00  0.00    +0.000 A 
ATOM     14  N   UNL     1       4.447   4.440  18.547  0.00  0.00    +0.000 N 
ENDROOT
BRANCH  14  15
ATOM     15  C   UNL     1       4.122   3.122  19.078  0.00  0.00    +0.000 C 
ATOM     16  O   UNL     1       2.967   2.600  18.376  0.00  0.00    +0.000 OA
ATOM     17  C   UNL     1       2.062   2.069  19.368  0.00  0.00    +0.000 C 
ATOM     18  C   UNL     1       2.335   2.833  20.659  0.00  0.00    +0.000 C 
ATOM     19  C   UNL     1       3.831   3.061  20.576  0.00  0.00    +0.000 C 
ATOM     20  F   UNL     1       4.444   1.940  21.082  0.00  0.00    +0.000 F 
BRANCH  18  21
ATOM     21  O   UNL     1       1.956   2.091  21.819  0.00  0.00    +0.000 OA
ATOM     22  H   UNL     1       1.599   1.234  21.511  0.00  0.00    +0.000 HD
ENDBRANCH  18  21
BRANCH  17  23
ATOM     23  C   UNL     1       0.621   2.188  18.869  0.00  0.00    +0.000 C 
BRANCH  23  24
ATOM     24  O   UNL     1      -0.153   3.069  19.679  0.00  0.00    +0.000 OA
ATOM     25  H   UNL     1       0.007   2.808  20.607  0.00  0.00    +0.000 HD
ENDBRANCH  23  24
ENDBRANCH  17  23
ENDBRANCH  14  15
BRANCH   1  26
ATOM     26  N   UNL     1       7.049   8.059  17.008  0.00  0.00    +0.000 N 
ATOM     27  H   UNL     1       6.830   8.150  16.022  0.00  0.00    +0.000 HD
ATOM     28  H   UNL     1       6.631   8.749  17.616  0.00  0.00    +0.000 HD
ENDBRANCH   1  26
TORSDOF 5
ENDMDL
MODEL 2
REMARK VINA RESULT:      -7.0      3.245      5.252
REMARK  Name = 
REMARK  5 active torsions:
REMARK  status: ('A' for Active; 'I' for Inactive)
REMARK    1  A    between atoms: N_1  and  C_2
REMARK    2  A    between atoms: N_15  and  C_16
REMARK    3  A    between atoms: C_18  and  C_19
REMARK    4  A    between atoms: C_19  and  O_20
REMARK    5  A    between atoms: C_21  and  O_22
REMARK                            x       y       z     vdW  Elec       q    Type
REMARK                         _______ _______ _______ _____ _____    ______ ____
ROOT
ATOM      1  C   UNL     1       2.756   3.473  20.880  0.00  0.00    +0.000 A 
ATOM      2  N   UNL     1       3.547   2.450  20.500  0.00  0.00    +0.000 NA
ATOM      3  C   UNL     1       4.345   2.620  19.434  0.00  0.00    +0.000 A 
ATOM      4  N   UNL     1       4.471   3.721  18.678  0.00  0.00    +0.000 NA
ATOM      5  C   UNL     1       3.673   4.715  19.083  0.00  0.00    +0.000 A 
ATOM      6  C   UNL     1       2.805   4.678  20.161  0.00  0.00    +0.000 A 
ATOM      7  C   UNL     1       2.175   5.958  20.229  0.00  0.00    +0.000 A 
ATOM      8  C   UNL     1       1.205   6.521  21.086  0.00  0.00    +0.000 A 
ATOM      9  C   UNL     1       0.808   7.846  20.906  0.00  0.00    +0.000 A 
ATOM     10 CL   UNL     1      -0.371   8.526  21.961  0.00  0.00    +0.000 Cl
ATOM     11  C   UNL     1       1.354   8.622  19.892  0.00  0.00    +0.000 A 
ATOM     12  C   UNL     1       2.305   8.087  19.015  0.00  0.00    +0.000 A 
ATOM     13  C   UNL     1       2.702   6.748  19.193  0.00  0.00    +0.000 A 
ATOM     14  N   UNL     1       3.581   5.945  18.479  0.00  0.00    +0.000 N 
ENDROOT
BRANCH  14  15
ATOM     15  C   UNL     1       4.286   6.317  17.259  0.00  0.00    +0.000 C 
ATOM     16  O   UNL     1       4.295   5.186  16.354  0.00  0.00    +0.000 OA
ATOM     17  C   UNL     1       5.639   5.054  15.842  0.00  0.00    +0.000 C 
ATOM     18  C   UNL     1       6.566   5.651  16.894  0.00  0.00    +0.000 C 
ATOM     19  C   UNL     1       5.726   6.790  17.439  0.00  0.00    +0.000 C 
ATOM     20  F   UNL     1       5.923   7.873  16.616  0.00  0.00    +0.000 F 
BRANCH  18  21
ATOM     21  O   UNL     1       7.803   6.099  16.337  0.00  0.00    +0.000 OA
ATOM     22  H   UNL     1       8.519   5.739  16.898  0.00  0.00    +0.000 HD
ENDBRANCH  18  21
BRANCH  17  23
ATOM     23  C   UNL     1       5.927   3.586  15.523  0.00  0.00    +0.000 C 
BRANCH  23  24
ATOM     24  O   UNL     1       6.318   3.403  14.164  0.00  0.00    +0.000 OA
ATOM     25  H   UNL     1       5.856   2.602  13.846  0.00  0.00    +0.000 HD
ENDBRANCH  23  24
ENDBRANCH  17  23
ENDBRANCH  14  15
BRANCH   1  26
ATOM     26  N   UNL     1       1.954   3.250  21.989  0.00  0.00    +0.000 N 
ATOM     27  H   UNL     1       1.057   2.872  21.703  0.00  0.00    +0.000 HD
ATOM     28  H   UNL     1       2.405   2.776  22.758  0.00  0.00    +0.000 HD
ENDBRANCH   1  26
TORSDOF 5
ENDMDL
MODEL 3
REMARK VINA RESULT:      -6.9      3.740      5.801
REMARK  Name = 
REMARK  5 active torsions:
REMARK  status: ('A' for Active; 'I' for Inactive)
REMARK    1  A    between atoms: N_1  and  C_2
REMARK    2  A    between atoms: N_15  and  C_16
REMARK    3  A    between atoms: C_18  and  C_19
REMARK    4  A    between atoms: C_19  and  O_20
REMARK    5  A    between atoms: C_21  and  O_22
REMARK                            x       y       z     vdW  Elec       q    Type
REMARK                         _______ _______ _______ _____ _____    ______ ____
ROOT
ATOM      1  C   UNL     1       1.304   8.403  19.565  0.00  0.00    +0.000 A 
ATOM      2  N   UNL     1       1.289   9.598  18.940  0.00  0.00    +0.000 NA
ATOM      3  C   UNL     1       2.199   9.828  17.980  0.00  0.00    +0.000 A 
ATOM      4  N   UNL     1       3.147   8.990  17.537  0.00  0.00    +0.000 NA
ATOM      5  C   UNL     1       3.132   7.815  18.178  0.00  0.00    +0.000 A 
ATOM      6  C   UNL     1       2.254   7.443  19.181  0.00  0.00    +0.000 A 
ATOM      7  C   UNL     1       2.595   6.107  19.555  0.00  0.00    +0.000 A 
ATOM      8  C   UNL     1       2.082   5.204  20.511  0.00  0.00    +0.000 A 
ATOM      9  C   UNL     1       2.627   3.924  20.615  0.00  0.00    +0.000 A 
ATOM     10 CL   UNL     1       1.991   2.826  21.779  0.00  0.00    +0.000 Cl
ATOM     11  C   UNL     1       3.671   3.525  19.790  0.00  0.00    +0.000 A 
ATOM     12  C   UNL     1       4.212   4.404  18.845  0.00  0.00    +0.000 A 
ATOM     13  C   UNL     1       3.667   5.698  18.744  0.00  0.00    +0.000 A 
ATOM     14  N   UNL     1       4.004   6.780  17.943  0.00  0.00    +0.000 N 
ENDROOT
BRANCH  14  15
ATOM     15  C   UNL     1       5.125   6.844  17.013  0.00  0.00    +0.000 C 
ATOM     16  O   UNL     1       4.752   6.190  15.776  0.00  0.00    +0.000 OA
ATOM     17  C   UNL     1       5.845   5.325  15.398  0.00  0.00    +0.000 C 
ATOM     18  C   UNL     1       6.569   4.951  16.686  0.00  0.00    +0.000 C 
ATOM     19  C   UNL     1       6.431   6.221  17.501  0.00  0.00    +0.000 C 
ATOM     20  F   UNL     1       7.461   7.055  17.137  0.00  0.00    +0.000 F 
BRANCH  18  21
ATOM     21  O   UNL     1       7.932   4.590  16.457  0.00  0.00    +0.000 OA
ATOM     22  H   UNL     1       8.316   4.348  17.323  0.00  0.00    +0.000 HD
ENDBRANCH  18  21
BRANCH  17  23
ATOM     23  C   UNL     1       5.307   4.124  14.617  0.00  0.00    +0.000 C 
BRANCH  23  24
ATOM     24  O   UNL     1       6.353   3.370  14.011  0.00  0.00    +0.000 OA
ATOM     25  H   UNL     1       6.420   3.677  13.085  0.00  0.00    +0.000 HD
ENDBRANCH  23  24
ENDBRANCH  17  23
ENDBRANCH  14  15
BRANCH   1  26
ATOM     26  N   UNL     1       0.341   8.211  20.544  0.00  0.00    +0.000 N 
ATOM     27  H   UNL     1       0.688   8.529  21.443  0.00  0.00    +0.000 HD
ATOM     28  H   UNL     1      -0.589   8.517  20.300  0.00  0.00    +0.000 HD
ENDBRANCH   1  26
TORSDOF 5
ENDMDL
MODEL 4
REMARK VINA RESULT:      -6.9      3.239      5.520
REMARK  Name = 
REMARK  5 active torsions:
REMARK  status: ('A' for Active; 'I' for Inactive)
REMARK    1  A    between atoms: N_1  and  C_2
REMARK    2  A    between atoms: N_15  and  C_16
REMARK    3  A    between atoms: C_18  and  C_19
REMARK    4  A    between atoms: C_19  and  O_20
REMARK    5  A    between atoms: C_21  and  O_22
REMARK                            x       y       z     vdW  Elec       q    Type
REMARK                         _______ _______ _______ _____ _____    ______ ____
ROOT
ATOM      1  C   UNL     1       1.681   2.834  20.155  0.00  0.00    +0.000 A 
ATOM      2  N   UNL     1       2.151   1.660  19.689  0.00  0.00    +0.000 NA
ATOM      3  C   UNL     1       3.059   1.683  18.700  0.00  0.00    +0.000 A 
ATOM      4  N   UNL     1       3.585   2.761  18.101  0.00  0.00    +0.000 NA
ATOM      5  C   UNL     1       3.096   3.907  18.588  0.00  0.00    +0.000 A 
ATOM      6  C   UNL     1       2.164   4.031  19.603  0.00  0.00    +0.000 A 
ATOM      7  C   UNL     1       1.953   5.430  19.802  0.00  0.00    +0.000 A 
ATOM      8  C   UNL     1       1.127   6.175  20.672  0.00  0.00    +0.000 A 
ATOM      9  C   UNL     1       1.174   7.569  20.644  0.00  0.00    +0.000 A 
ATOM     10 CL   UNL     1       0.169   8.470  21.713  0.00  0.00    +0.000 Cl
ATOM     11  C   UNL     1       2.023   8.236  19.771  0.00  0.00    +0.000 A 
ATOM     12  C   UNL     1       2.841   7.526  18.885  0.00  0.00    +0.000 A 
ATOM     13  C   UNL     1       2.790   6.119  18.908  0.00  0.00    +0.000 A 
ATOM     14  N   UNL     1       3.443   5.160  18.145  0.00  0.00    +0.000 N 
ENDROOT
BRANCH  14  15
ATOM     15  C   UNL     1       4.337   5.419  17.023  0.00  0.00    +0.000 C 
ATOM     16  O   UNL     1       5.422   4.459  17.051  0.00  0.00    +0.000 OA
ATOM     17  C   UNL     1       6.650   5.190  16.842  0.00  0.00    +0.000 C 
ATOM     18  C   UNL     1       6.401   6.610  17.336  0.00  0.00    +0.000 C 
ATOM     19  C   UNL     1       4.945   6.817  16.966  0.00  0.00    +0.000 C 
ATOM     20  F   UNL     1       4.912   7.241  15.658  0.00  0.00    +0.000 F 
BRANCH  18  21
ATOM     21  O   UNL     1       7.267   7.561  16.714  0.00  0.00    +0.000 OA
ATOM     22  H   UNL     1       7.392   7.274  15.787  0.00  0.00    +0.000 HD
ENDBRANCH  18  21
BRANCH  17  23
ATOM     23  C   UNL     1       7.802   4.478  17.554  0.00  0.00    +0.000 C 
BRANCH  23  24
ATOM     24  O   UNL     1       7.899   4.860  18.923  0.00  0.00    +0.000 OA
ATOM     25  H   UNL     1       8.727   5.371  19.013  0.00  0.00    +0.000 HD
ENDBRANCH  23  24
ENDBRANCH  17  23
ENDBRANCH  14  15
BRANCH   1  26
ATOM     26  N   UNL     1       0.750   2.759  21.181  0.00  0.00    +0.000 N 
ATOM     27  H   UNL     1       0.874   3.534  21.824  0.00  0.00    +0.000 HD
ATOM     28  H   UNL     1      -0.200   2.580  20.889  0.00  0.00    +0.000 HD
ENDBRANCH   1  26
TORSDOF 5
ENDMDL
MODEL 5
REMARK VINA RESULT:      -6.8      2.984      5.491
REMARK  Name = 
REMARK  5 active torsions:
REMARK  status: ('A' for Active; 'I' for Inactive)
REMARK    1  A    between atoms: N_1  and  C_2
REMARK    2  A    between atoms: N_15  and  C_16
REMARK    3  A    between atoms: C_18  and  C_19
REMARK    4  A    between atoms: C_19  and  O_20
REMARK    5  A    between atoms: C_21  and  O_22
REMARK                            x       y       z     vdW  Elec       q    Type
REMARK                         _______ _______ _______ _____ _____    ______ ____
ROOT
ATOM      1  C   UNL     1       1.556   3.722  20.187  0.00  0.00    +0.000 A 
ATOM      2  N   UNL     1       1.931   2.503  20.625  0.00  0.00    +0.000 NA
ATOM      3  C   UNL     1       3.178   2.083  20.357  0.00  0.00    +0.000 A 
ATOM      4  N   UNL     1       4.137   2.748  19.697  0.00  0.00    +0.000 NA
ATOM      5  C   UNL     1       3.731   3.952  19.279  0.00  0.00    +0.000 A 
ATOM      6  C   UNL     1       2.481   4.510  19.485  0.00  0.00    +0.000 A 
ATOM      7  C   UNL     1       2.502   5.806  18.884  0.00  0.00    +0.000 A 
ATOM      8  C   UNL     1       1.543   6.833  18.755  0.00  0.00    +0.000 A 
ATOM      9  C   UNL     1       1.890   8.027  18.122  0.00  0.00    +0.000 A 
ATOM     10 CL   UNL     1       0.717   9.279  17.975  0.00  0.00    +0.000 Cl
ATOM     11  C   UNL     1       3.169   8.219  17.615  0.00  0.00    +0.000 A 
ATOM     12  C   UNL     1       4.136   7.212  17.712  0.00  0.00    +0.000 A 
ATOM     13  C   UNL     1       3.785   6.005  18.345  0.00  0.00    +0.000 A 
ATOM     14  N   UNL     1       4.500   4.835  18.561  0.00  0.00    +0.000 N 
ENDROOT
BRANCH  14  15
ATOM     15  C   UNL     1       5.848   4.553  18.082  0.00  0.00    +0.000 C 
ATOM     16  O   UNL     1       6.777   5.463  18.720  0.00  0.00    +0.000 OA
ATOM     17  C   UNL     1       7.650   5.979  17.691  0.00  0.00    +0.000 C 
ATOM     18  C   UNL     1       6.868   5.914  16.384  0.00  0.00    +0.000 C 
ATOM     19  C   UNL     1       6.052   4.650  16.573  0.00  0.00    +0.000 C 
ATOM     20  F   UNL     1       6.839   3.593  16.182  0.00  0.00    +0.000 F 
BRANCH  18  21
ATOM     21  O   UNL     1       7.724   5.850  15.242  0.00  0.00    +0.000 OA
ATOM     22  H   UNL     1       7.170   6.028  14.456  0.00  0.00    +0.000 HD
ENDBRANCH  18  21
BRANCH  17  23
ATOM     23  C   UNL     1       8.114   7.388  18.067  0.00  0.00    +0.000 C 
BRANCH  23  24
ATOM     24  O   UNL     1       7.613   8.372  17.166  0.00  0.00    +0.000 OA
ATOM     25  H   UNL     1       8.314   9.046  17.070  0.00  0.00    +0.000 HD
ENDBRANCH  23  24
ENDBRANCH  17  23
ENDBRANCH  14  15
BRANCH   1  26
ATOM     26  N   UNL     1       0.261   4.113  20.494  0.00  0.00    +0.000 N 
ATOM     27  H   UNL     1      -0.158   3.458  21.145  0.00  0.00    +0.000 HD
ATOM     28  H   UNL     1       0.149   5.090  20.721  0.00  0.00    +0.000 HD
ENDBRANCH   1  26
TORSDOF 5
ENDMDL
MODEL 6
REMARK VINA RESULT:      -6.7      3.680      5.903
REMARK  Name = 
REMARK  5 active torsions:
REMARK  status: ('A' for Active; 'I' for Inactive)
REMARK    1  A    between atoms: N_1  and  C_2
REMARK    2  A    between atoms: N_15  and  C_16
REMARK    3  A    between atoms: C_18  and  C_19
REMARK    4  A    between atoms: C_19  and  O_20
REMARK    5  A    between atoms: C_21  and  O_22
REMARK                            x       y       z     vdW  Elec       q    Type
REMARK                         _______ _______ _______ _____ _____    ______ ____
ROOT
ATOM      1  C   UNL     1       1.486   7.842  20.010  0.00  0.00    +0.000 A 
ATOM      2  N   UNL     1       1.618   9.014  19.357  0.00  0.00    +0.000 NA
ATOM      3  C   UNL     1       2.406   9.054  18.271  0.00  0.00    +0.000 A 
ATOM      4  N   UNL     1       3.093   8.041  17.724  0.00  0.00    +0.000 NA
ATOM      5  C   UNL     1       2.938   6.895  18.396  0.00  0.00    +0.000 A 
ATOM      6  C   UNL     1       2.160   6.710  19.526  0.00  0.00    +0.000 A 
ATOM      7  C   UNL     1       2.278   5.333  19.889  0.00  0.00    +0.000 A 
ATOM      8  C   UNL     1       1.741   4.554  20.935  0.00  0.00    +0.000 A 
ATOM      9  C   UNL     1       2.029   3.190  21.000  0.00  0.00    +0.000 A 
ATOM     10 CL   UNL     1       1.363   2.245  22.276  0.00  0.00    +0.000 Cl
ATOM     11  C   UNL     1       2.841   2.587  20.048  0.00  0.00    +0.000 A 
ATOM     12  C   UNL     1       3.402   3.337  19.008  0.00  0.00    +0.000 A 
ATOM     13  C   UNL     1       3.117   4.714  18.946  0.00  0.00    +0.000 A 
ATOM     14  N   UNL     1       3.543   5.705  18.072  0.00  0.00    +0.000 N 
ENDROOT
BRANCH  14  15
ATOM     15  C   UNL     1       4.506   5.539  16.990  0.00  0.00    +0.000 C 
ATOM     16  O   UNL     1       5.455   4.508  17.355  0.00  0.00    +0.000 OA
ATOM     17  C   UNL     1       6.775   5.008  17.047  0.00  0.00    +0.000 C 
ATOM     18  C   UNL     1       6.693   6.528  17.119  0.00  0.00    +0.000 C 
ATOM     19  C   UNL     1       5.292   6.789  16.602  0.00  0.00    +0.000 C 
ATOM     20  F   UNL     1       5.365   6.835  15.230  0.00  0.00    +0.000 F 
BRANCH  18  21
ATOM     21  O   UNL     1       7.698   7.165  16.329  0.00  0.00    +0.000 OA
ATOM     22  H   UNL     1       8.495   6.599  16.365  0.00  0.00    +0.000 HD
ENDBRANCH  18  21
BRANCH  17  23
ATOM     23  C   UNL     1       7.797   4.395  18.007  0.00  0.00    +0.000 C 
BRANCH  23  24
ATOM     24  O   UNL     1       7.894   5.132  19.223  0.00  0.00    +0.000 OA
ATOM     25  H   UNL     1       7.475   4.584  19.916  0.00  0.00    +0.000 HD
ENDBRANCH  23  24
ENDBRANCH  17  23
ENDBRANCH  14  15
BRANCH   1  26
ATOM     26  N   UNL     1       0.658   7.849  21.123  0.00  0.00    +0.000 N 
ATOM     27  H   UNL     1       1.151   7.481  21.929  0.00  0.00    +0.000 HD
ATOM     28  H   UNL     1       0.148   8.708  21.275  0.00  0.00    +0.000 HD
ENDBRANCH   1  26
TORSDOF 5
ENDMDL
MODEL 7
REMARK VINA RESULT:      -6.6      3.905      5.984
REMARK  Name = 
REMARK  5 active torsions:
REMARK  status: ('A' for Active; 'I' for Inactive)
REMARK    1  A    between atoms: N_1  and  C_2
REMARK    2  A    between atoms: N_15  and  C_16
REMARK    3  A    between atoms: C_18  and  C_19
REMARK    4  A    between atoms: C_19  and  O_20
REMARK    5  A    between atoms: C_21  and  O_22
REMARK                            x       y       z     vdW  Elec       q    Type
REMARK                         _______ _______ _______ _____ _____    ______ ____
ROOT
ATOM      1  C   UNL     1       2.242   2.965  18.955  0.00  0.00    +0.000 A 
ATOM      2  N   UNL     1       1.332   2.990  19.949  0.00  0.00    +0.000 NA
ATOM      3  C   UNL     1       0.977   4.179  20.461  0.00  0.00    +0.000 A 
ATOM      4  N   UNL     1       1.417   5.391  20.091  0.00  0.00    +0.000 NA
ATOM      5  C   UNL     1       2.318   5.328  19.103  0.00  0.00    +0.000 A 
ATOM      6  C   UNL     1       2.772   4.177  18.484  0.00  0.00    +0.000 A 
ATOM      7  C   UNL     1       3.706   4.587  17.483  0.00  0.00    +0.000 A 
ATOM      8  C   UNL     1       4.498   3.887  16.547  0.00  0.00    +0.000 A 
ATOM      9  C   UNL     1       5.308   4.596  15.660  0.00  0.00    +0.000 A 
ATOM     10 CL   UNL     1       6.266   3.735  14.517  0.00  0.00    +0.000 Cl
ATOM     11  C   UNL     1       5.347   5.984  15.685  0.00  0.00    +0.000 A 
ATOM     12  C   UNL     1       4.586   6.705  16.612  0.00  0.00    +0.000 A 
ATOM     13  C   UNL     1       3.773   5.990  17.512  0.00  0.00    +0.000 A 
ATOM     14  N   UNL     1       2.948   6.413  18.545  0.00  0.00    +0.000 N 
ENDROOT
BRANCH  14  15
ATOM     15  C   UNL     1       2.785   7.787  19.005  0.00  0.00    +0.000 C 
ATOM     16  O   UNL     1       2.179   7.776  20.321  0.00  0.00    +0.000 OA
ATOM     17  C   UNL     1       1.121   8.760  20.317  0.00  0.00    +0.000 C 
ATOM     18  C   UNL     1       0.654   8.890  18.872  0.00  0.00    +0.000 C 
ATOM     19  C   UNL     1       1.948   8.694  18.107  0.00  0.00    +0.000 C 
ATOM     20  F   UNL     1       2.572   9.917  18.040  0.00  0.00    +0.000 F 
BRANCH  18  21
ATOM     21  O   UNL     1       0.047  10.157  18.609  0.00  0.00    +0.000 OA
ATOM     22  H   UNL     1      -0.903  10.072  18.824  0.00  0.00    +0.000 HD
ENDBRANCH  18  21
BRANCH  17  23
ATOM     23  C   UNL     1       0.019   8.337  21.290  0.00  0.00    +0.000 C 
BRANCH  23  24
ATOM     24  O   UNL     1      -0.241   9.340  22.269  0.00  0.00    +0.000 OA
ATOM     25  H   UNL     1       0.585   9.455  22.777  0.00  0.00    +0.000 HD
ENDBRANCH  23  24
ENDBRANCH  17  23
ENDBRANCH  14  15
BRANCH   1  26
ATOM     26  N   UNL     1       2.572   1.714  18.455  0.00  0.00    +0.000 N 
ATOM     27  H   UNL     1       1.779   1.311  17.968  0.00  0.00    +0.000 HD
ATOM     28  H   UNL     1       3.457   1.664  17.970  0.00  0.00    +0.000 HD
ENDBRANCH   1  26
TORSDOF 5
ENDMDL
MODEL 8
REMARK VINA RESULT:      -6.4      2.893      5.389
REMARK  Name = 
REMARK  5 active torsions:
REMARK  status: ('A' for Active; 'I' for Inactive)
REMARK    1  A    between atoms: N_1  and  C_2
REMARK    2  A    between atoms: N_15  and  C_16
REMARK    3  A    between atoms: C_18  and  C_19
REMARK    4  A    between atoms: C_19  and  O_20
REMARK    5  A    between atoms: C_21  and  O_22
REMARK                            x       y       z     vdW  Elec       q    Type
REMARK                         _______ _______ _______ _____ _____    ______ ____
ROOT
ATOM      1  C   UNL     1       1.152   3.814  20.025  0.00  0.00    +0.000 A 
ATOM      2  N   UNL     1       1.363   2.532  20.386  0.00  0.00    +0.000 NA
ATOM      3  C   UNL     1       2.512   1.945  20.014  0.00  0.00    +0.000 A 
ATOM      4  N   UNL     1       3.518   2.490  19.315  0.00  0.00    +0.000 NA
ATOM      5  C   UNL     1       3.274   3.761  18.974  0.00  0.00    +0.000 A 
ATOM      6  C   UNL     1       2.140   4.488  19.290  0.00  0.00    +0.000 A 
ATOM      7  C   UNL     1       2.320   5.795  18.741  0.00  0.00    +0.000 A 
ATOM      8  C   UNL     1       1.523   6.960  18.721  0.00  0.00    +0.000 A 
ATOM      9  C   UNL     1       2.008   8.118  18.112  0.00  0.00    +0.000 A 
ATOM     10 CL   UNL     1       1.032   9.537  18.099  0.00  0.00    +0.000 Cl
ATOM     11  C   UNL     1       3.265   8.142  17.524  0.00  0.00    +0.000 A 
ATOM     12  C   UNL     1       4.071   6.998  17.512  0.00  0.00    +0.000 A 
ATOM     13  C   UNL     1       3.581   5.827  18.121  0.00  0.00    +0.000 A 
ATOM     14  N   UNL     1       4.122   4.554  18.239  0.00  0.00    +0.000 N 
ENDROOT
BRANCH  14  15
ATOM     15  C   UNL     1       5.377   4.097  17.655  0.00  0.00    +0.000 C 
ATOM     16  O   UNL     1       6.452   4.338  18.595  0.00  0.00    +0.000 OA
ATOM     17  C   UNL     1       7.541   4.938  17.860  0.00  0.00    +0.000 C 
ATOM     18  C   UNL     1       6.919   5.651  16.665  0.00  0.00    +0.000 C 
ATOM     19  C   UNL     1       5.762   4.733  16.323  0.00  0.00    +0.000 C 
ATOM     20  F   UNL     1       6.254   3.743  15.505  0.00  0.00    +0.000 F 
BRANCH  18  21
ATOM     21  O   UNL     1       7.840   5.802  15.583  0.00  0.00    +0.000 OA
ATOM     22  H   UNL     1       7.319   5.785  14.756  0.00  0.00    +0.000 HD
ENDBRANCH  18  21
BRANCH  17  23
ATOM     23  C   UNL     1       8.343   5.857  18.783  0.00  0.00    +0.000 C 
BRANCH  23  24
ATOM     24  O   UNL     1       8.092   5.581  20.159  0.00  0.00    +0.000 OA
ATOM     25  H   UNL     1       8.560   6.268  20.672  0.00  0.00    +0.000 HD
ENDBRANCH  23  24
ENDBRANCH  17  23
ENDBRANCH  14  15
BRANCH   1  26
ATOM     26  N   UNL     1      -0.046   4.379  20.437  0.00  0.00    +0.000 N 
ATOM     27  H   UNL     1       0.131   5.201  21.004  0.00  0.00    +0.000 HD
ATOM     28  H   UNL     1      -0.742   4.487  19.714  0.00  0.00    +0.000 HD
ENDBRANCH   1  26
TORSDOF 5
ENDMDL
MODEL 9
REMARK VINA RESULT:      -6.4      0.908      1.015
REMARK  Name = 
REMARK  5 active torsions:
REMARK  status: ('A' for Active; 'I' for Inactive)
REMARK    1  A    between atoms: N_1  and  C_2
REMARK    2  A    between atoms: N_15  and  C_16
REMARK    3  A    between atoms: C_18  and  C_19
REMARK    4  A    between atoms: C_19  and  O_20
REMARK    5  A    between atoms: C_21  and  O_22
REMARK                            x       y       z     vdW  Elec       q    Type
REMARK                         _______ _______ _______ _____ _____    ______ ____
ROOT
ATOM      1  C   UNL     1       6.848   6.724  17.317  0.00  0.00    +0.000 A 
ATOM      2  N   UNL     1       7.910   5.896  17.258  0.00  0.00    +0.000 NA
ATOM      3  C   UNL     1       7.721   4.594  17.525  0.00  0.00    +0.000 A 
ATOM      4  N   UNL     1       6.568   3.986  17.842  0.00  0.00    +0.000 NA
ATOM      5  C   UNL     1       5.537   4.837  17.890  0.00  0.00    +0.000 A 
ATOM      6  C   UNL     1       5.587   6.196  17.637  0.00  0.00    +0.000 A 
ATOM      7  C   UNL     1       4.257   6.695  17.788  0.00  0.00    +0.000 A 
ATOM      8  C   UNL     1       3.680   7.978  17.673  0.00  0.00    +0.000 A 
ATOM      9  C   UNL     1       2.306   8.137  17.854  0.00  0.00    +0.000 A 
ATOM     10 CL   UNL     1       1.610   9.705  17.705  0.00  0.00    +0.000 Cl
ATOM     11  C   UNL     1       1.495   7.049  18.147  0.00  0.00    +0.000 A 
ATOM     12  C   UNL     1       2.040   5.767  18.285  0.00  0.00    +0.000 A 
ATOM     13  C   UNL     1       3.427   5.607  18.108  0.00  0.00    +0.000 A 
ATOM     14  N   UNL     1       4.246   4.490  18.210  0.00  0.00    +0.000 N 
ENDROOT
BRANCH  14  15
ATOM     15  C   UNL     1       3.831   3.155  18.622  0.00  0.00    +0.000 C 
ATOM     16  O   UNL     1       2.410   3.167  18.903  0.00  0.00    +0.000 OA
ATOM     17  C   UNL     1       2.212   2.475  20.155  0.00  0.00    +0.000 C 
ATOM     18  C   UNL     1       3.508   2.621  20.943  0.00  0.00    +0.000 C 
ATOM     19  C   UNL     1       4.549   2.581  19.840  0.00  0.00    +0.000 C 
ATOM     20  F   UNL     1       4.824   1.258  19.587  0.00  0.00    +0.000 F 
BRANCH  18  21
ATOM     21  O   UNL     1       3.682   1.576  21.901  0.00  0.00    +0.000 OA
ATOM     22  H   UNL     1       2.842   1.493  22.394  0.00  0.00    +0.000 HD
ENDBRANCH  18  21
BRANCH  17  23
ATOM     23  C   UNL     1       0.984   3.043  20.869  0.00  0.00    +0.000 C 
BRANCH  23  24
ATOM     24  O   UNL     1       0.904   2.602  22.222  0.00  0.00    +0.000 OA
ATOM     25  H   UNL     1       1.036   3.392  22.782  0.00  0.00    +0.000 HD
ENDBRANCH  23  24
ENDBRANCH  17  23
ENDBRANCH  14  15
BRANCH   1  26
ATOM     26  N   UNL     1       7.093   8.058  17.027  0.00  0.00    +0.000 N 
ATOM     27  H   UNL     1       8.081   8.203  16.850  0.00  0.00    +0.000 HD
ATOM     28  H   UNL     1       6.462   8.477  16.359  0.00  0.00    +0.000 HD
ENDBRANCH   1  26
TORSDOF 5
ENDMDL
