MODEL 1
REMARK VINA RESULT:      -8.2      0.000      0.000
REMARK  Name = 
REMARK  9 active torsions:
REMARK  status: ('A' for Active; 'I' for Inactive)
REMARK    1  A    between atoms: C_1  and  N_2
REMARK    2  A    between atoms: N_2  and  C_3
REMARK    3  A    between atoms: C_4  and  C_6
REMARK    4  A    between atoms: C_10  and  C_11
REMARK    5  A    between atoms: C_11  and  O_12
REMARK    6  A    between atoms: O_12  and  C_13
REMARK    7  A    between atoms: C_16  and  C_17
REMARK    8  A    between atoms: C_17  and  N_18
REMARK    9  A    between atoms: C_19  and  C_21
REMARK                            x       y       z     vdW  Elec       q    Type
REMARK                         _______ _______ _______ _____ _____    ______ ____
ROOT
ATOM      1  C   UNL     1       0.105   9.882  18.539  0.00  0.00    +0.000 A 
ATOM      2  C   UNL     1      -0.673   9.353  17.511  0.00  0.00    +0.000 A 
ATOM      3  C   UNL     1      -1.905   9.925  17.193  0.00  0.00    +0.000 A 
ATOM      4  C   UNL     1      -2.391  11.026  17.909  0.00  0.00    +0.000 A 
ATOM      5  C   UNL     1      -1.631  11.528  18.977  0.00  0.00    +0.000 A 
ATOM      6  C   UNL     1      -0.387  10.954  19.288  0.00  0.00    +0.000 A 
ENDROOT
BRANCH   1   7
ATOM      7  O   UNL     1       1.348   9.418  18.874  0.00  0.00    +0.000 OA
BRANCH   7   8
ATOM      8  C   UNL     1       2.259   9.316  17.774  0.00  0.00    +0.000 C 
BRANCH   8  13
ATOM      9  C   UNL     1       2.576   5.543  18.075  0.00  0.00    +0.000 A 
ATOM     10  C   UNL     1       3.890   5.339  17.634  0.00  0.00    +0.000 A 
ATOM     11  C   UNL     1       4.688   6.425  17.263  0.00  0.00    +0.000 A 
ATOM     12  C   UNL     1       4.168   7.718  17.303  0.00  0.00    +0.000 A 
ATOM     13  C   UNL     1       2.866   7.939  17.757  0.00  0.00    +0.000 A 
ATOM     14  C   UNL     1       2.104   6.849  18.197  0.00  0.00    +0.000 A 
BRANCH   9  18
ATOM     15  C   UNL     1       0.940   2.720  20.054  0.00  0.00    +0.000 C 
ATOM     16  N   UNL     1       1.728   3.913  19.796  0.00  0.00    +0.000 N 
ATOM     17  C   UNL     1       2.262   4.615  20.957  0.00  0.00    +0.000 C 
ATOM     18  C   UNL     1       1.751   4.367  18.469  0.00  0.00    +0.000 C 
ATOM     19  O   UNL     1       1.094   3.819  17.583  0.00  0.00    +0.000 OA
ENDBRANCH   9  18
ENDBRANCH   8  13
ENDBRANCH   7   8
ENDBRANCH   1   7
BRANCH   4  20
ATOM     20  C   UNL     1      -3.727  11.616  17.531  0.00  0.00    +0.000 C 
BRANCH  20  21
ATOM     21  N   UNL     1      -4.392  12.183  18.678  0.00  0.00    +0.000 N 
ATOM     22  C   UNL     1      -5.714  11.917  18.949  0.00  0.00    +0.000 C 
ATOM     23  O   UNL     1      -6.407  11.194  18.242  0.00  0.00    +0.000 OA
ATOM     24  H   UNL     1      -3.819  12.583  19.404  0.00  0.00    +0.000 HD
BRANCH  22  25
ATOM     25  C   UNL     1      -6.219  12.552  20.150  0.00  0.00    +0.000 A 
ATOM     26  C   UNL     1      -6.577  13.870  20.399  0.00  0.00    +0.000 A 
ATOM     27  C   UNL     1      -7.018  13.974  21.744  0.00  0.00    +0.000 A 
ATOM     28  C   UNL     1      -7.479  15.031  22.532  0.00  0.00    +0.000 A 
ATOM     29  N   UNL     1      -7.827  14.826  23.825  0.00  0.00    +0.000 NA
ATOM     30  C   UNL     1      -7.724  13.576  24.331  0.00  0.00    +0.000 A 
ATOM     31  C   UNL     1      -7.287  12.460  23.629  0.00  0.00    +0.000 A 
ATOM     32  C   UNL     1      -6.930  12.701  22.304  0.00  0.00    +0.000 A 
ATOM     33  N   UNL     1      -6.459  11.858  21.322  0.00  0.00    +0.000 N 
ATOM     34  H   UNL     1      -6.305  10.863  21.426  0.00  0.00    +0.000 HD
ENDBRANCH  22  25
ENDBRANCH  20  21
ENDBRANCH   4  20
TORSDOF 7
ENDMDL
MODEL 2
REMARK VINA RESULT:      -8.2      2.164     11.169
REMARK  Name = 
REMARK  9 active torsions:
REMARK  status: ('A' for Active; 'I' for Inactive)
REMARK    1  A    between atoms: C_1  and  N_2
REMARK    2  A    between atoms: N_2  and  C_3
REMARK    3  A    between atoms: C_4  and  C_6
REMARK    4  A    between atoms: C_10  and  C_11
REMARK    5  A    between atoms: C_11  and  O_12
REMARK    6  A    between atoms: O_12  and  C_13
REMARK    7  A    between atoms: C_16  and  C_17
REMARK    8  A    between atoms: C_17  and  N_18
REMARK    9  A    between atoms: C_19  and  C_21
REMARK                            x       y       z     vdW  Elec       q    Type
REMARK                         _______ _______ _______ _____ _____    ______ ____
ROOT
ATOM      1  C   UNL     1      -2.639  11.363  17.681  0.00  0.00    +0.000 A 
ATOM      2  C   UNL     1      -2.209  12.027  18.828  0.00  0.00    +0.000 A 
ATOM      3  C   UNL     1      -1.074  11.590  19.513  0.00  0.00    +0.000 A 
ATOM      4  C   UNL     1      -0.359  10.469  19.072  0.00  0.00    +0.000 A 
ATOM      5  C   UNL     1      -0.820   9.770  17.946  0.00  0.00    +0.000 A 
ATOM      6  C   UNL     1      -1.958  10.219  17.255  0.00  0.00    +0.000 A 
ENDROOT
BRANCH   1   7
ATOM      7  O   UNL     1      -3.704  11.762  16.920  0.00  0.00    +0.000 OA
BRANCH   7   8
ATOM      8  C   UNL     1      -4.883  10.967  17.086  0.00  0.00    +0.000 C 
BRANCH   8  13
ATOM      9  C   UNL     1      -6.735  12.394  20.079  0.00  0.00    +0.000 A 
ATOM     10  C   UNL     1      -7.665  13.236  19.454  0.00  0.00    +0.000 A 
ATOM     11  C   UNL     1      -7.715  13.323  18.061  0.00  0.00    +0.000 A 
ATOM     12  C   UNL     1      -6.816  12.593  17.284  0.00  0.00    +0.000 A 
ATOM     13  C   UNL     1      -5.895  11.737  17.891  0.00  0.00    +0.000 A 
ATOM     14  C   UNL     1      -5.907  11.602  19.285  0.00  0.00    +0.000 A 
BRANCH   9  18
ATOM     15  C   UNL     1      -5.877  12.945  23.757  0.00  0.00    +0.000 C 
ATOM     16  N   UNL     1      -5.868  13.151  22.319  0.00  0.00    +0.000 N 
ATOM     17  C   UNL     1      -5.131  14.306  21.822  0.00  0.00    +0.000 C 
ATOM     18  C   UNL     1      -6.709  12.317  21.567  0.00  0.00    +0.000 C 
ATOM     19  O   UNL     1      -7.458  11.498  22.101  0.00  0.00    +0.000 OA
ENDBRANCH   9  18
ENDBRANCH   8  13
ENDBRANCH   7   8
ENDBRANCH   1   7
BRANCH   4  20
ATOM     20  C   UNL     1       0.863  10.031  19.840  0.00  0.00    +0.000 C 
BRANCH  20  21
ATOM     21  N   UNL     1       1.636   9.072  19.091  0.00  0.00    +0.000 N 
ATOM     22  C   UNL     1       1.939   7.832  19.603  0.00  0.00    +0.000 C 
ATOM     23  O   UNL     1       1.581   7.465  20.717  0.00  0.00    +0.000 OA
ATOM     24  H   UNL     1       1.750   9.228  18.101  0.00  0.00    +0.000 HD
BRANCH  22  25
ATOM     25  C   UNL     1       2.705   6.984  18.711  0.00  0.00    +0.000 A 
ATOM     26  C   UNL     1       2.712   5.605  18.550  0.00  0.00    +0.000 A 
ATOM     27  C   UNL     1       3.646   5.272  17.536  0.00  0.00    +0.000 A 
ATOM     28  C   UNL     1       4.070   4.067  16.969  0.00  0.00    +0.000 A 
ATOM     29  N   UNL     1       5.013   4.057  15.997  0.00  0.00    +0.000 NA
ATOM     30  C   UNL     1       5.527   5.238  15.583  0.00  0.00    +0.000 A 
ATOM     31  C   UNL     1       5.166   6.485  16.075  0.00  0.00    +0.000 A 
ATOM     32  C   UNL     1       4.199   6.466  17.079  0.00  0.00    +0.000 A 
ATOM     33  N   UNL     1       3.609   7.485  17.792  0.00  0.00    +0.000 N 
ATOM     34  H   UNL     1       3.797   8.473  17.671  0.00  0.00    +0.000 HD
ENDBRANCH  22  25
ENDBRANCH  20  21
ENDBRANCH   4  20
TORSDOF 7
ENDMDL
MODEL 3
REMARK VINA RESULT:      -8.1      2.534     11.370
REMARK  Name = 
REMARK  9 active torsions:
REMARK  status: ('A' for Active; 'I' for Inactive)
REMARK    1  A    between atoms: C_1  and  N_2
REMARK    2  A    between atoms: N_2  and  C_3
REMARK    3  A    between atoms: C_4  and  C_6
REMARK    4  A    between atoms: C_10  and  C_11
REMARK    5  A    between atoms: C_11  and  O_12
REMARK    6  A    between atoms: O_12  and  C_13
REMARK    7  A    between atoms: C_16  and  C_17
REMARK    8  A    between atoms: C_17  and  N_18
REMARK    9  A    between atoms: C_19  and  C_21
REMARK                            x       y       z     vdW  Elec       q    Type
REMARK                         _______ _______ _______ _____ _____    ______ ____
ROOT
ATOM      1  C   UNL     1       0.219  10.614  20.433  0.00  0.00    +0.000 A 
ATOM      2  C   UNL     1       0.992   9.965  19.472  0.00  0.00    +0.000 A 
ATOM      3  C   UNL     1       1.424   8.655  19.682  0.00  0.00    +0.000 A 
ATOM      4  C   UNL     1       1.107   7.977  20.865  0.00  0.00    +0.000 A 
ATOM      5  C   UNL     1       0.371   8.646  21.854  0.00  0.00    +0.000 A 
ATOM      6  C   UNL     1      -0.070   9.962  21.635  0.00  0.00    +0.000 A 
ENDROOT
BRANCH   1   7
ATOM      7  O   UNL     1      -0.294  11.873  20.278  0.00  0.00    +0.000 OA
BRANCH   7   8
ATOM      8  C   UNL     1      -0.560  12.243  18.921  0.00  0.00    +0.000 C 
BRANCH   8  13
ATOM      9  C   UNL     1      -4.334  11.834  18.773  0.00  0.00    +0.000 A 
ATOM     10  C   UNL     1      -4.471  10.897  17.741  0.00  0.00    +0.000 A 
ATOM     11  C   UNL     1      -3.341  10.372  17.108  0.00  0.00    +0.000 A 
ATOM     12  C   UNL     1      -2.069  10.804  17.481  0.00  0.00    +0.000 A 
ATOM     13  C   UNL     1      -1.915  11.725  18.519  0.00  0.00    +0.000 A 
ATOM     14  C   UNL     1      -3.052  12.184  19.196  0.00  0.00    +0.000 A 
BRANCH   9  18
ATOM     15  C   UNL     1      -7.849  12.217  20.207  0.00  0.00    +0.000 C 
ATOM     16  N   UNL     1      -6.694  11.571  19.609  0.00  0.00    +0.000 N 
ATOM     17  C   UNL     1      -6.770  10.128  19.417  0.00  0.00    +0.000 C 
ATOM     18  C   UNL     1      -5.556  12.372  19.434  0.00  0.00    +0.000 C 
ATOM     19  O   UNL     1      -5.518  13.541  19.821  0.00  0.00    +0.000 OA
ENDBRANCH   9  18
ENDBRANCH   8  13
ENDBRANCH   7   8
ENDBRANCH   1   7
BRANCH   4  20
ATOM     20  C   UNL     1       1.592   6.560  21.051  0.00  0.00    +0.000 C 
BRANCH  20  21
ATOM     21  N   UNL     1       2.677   6.256  20.153  0.00  0.00    +0.000 N 
ATOM     22  C   UNL     1       2.996   4.960  19.819  0.00  0.00    +0.000 C 
ATOM     23  O   UNL     1       2.391   3.990  20.261  0.00  0.00    +0.000 OA
ATOM     24  H   UNL     1       3.046   7.006  19.590  0.00  0.00    +0.000 HD
BRANCH  22  25
ATOM     25  C   UNL     1       4.101   4.834  18.889  0.00  0.00    +0.000 A 
ATOM     26  C   UNL     1       5.472   4.888  19.095  0.00  0.00    +0.000 A 
ATOM     27  C   UNL     1       6.126   4.703  17.851  0.00  0.00    +0.000 A 
ATOM     28  C   UNL     1       7.467   4.670  17.456  0.00  0.00    +0.000 A 
ATOM     29  N   UNL     1       7.798   4.481  16.156  0.00  0.00    +0.000 NA
ATOM     30  C   UNL     1       6.804   4.319  15.253  0.00  0.00    +0.000 A 
ATOM     31  C   UNL     1       5.447   4.326  15.545  0.00  0.00    +0.000 A 
ATOM     32  C   UNL     1       5.134   4.528  16.888  0.00  0.00    +0.000 A 
ATOM     33  N   UNL     1       3.922   4.599  17.539  0.00  0.00    +0.000 N 
ATOM     34  H   UNL     1       3.014   4.492  17.103  0.00  0.00    +0.000 HD
ENDBRANCH  22  25
ENDBRANCH  20  21
ENDBRANCH   4  20
TORSDOF 7
ENDMDL
MODEL 4
REMARK VINA RESULT:      -8.1      1.972     10.728
REMARK  Name = 
REMARK  9 active torsions:
REMARK  status: ('A' for Active; 'I' for Inactive)
REMARK    1  A    between atoms: C_1  and  N_2
REMARK    2  A    between atoms: N_2  and  C_3
REMARK    3  A    between atoms: C_4  and  C_6
REMARK    4  A    between atoms: C_10  and  C_11
REMARK    5  A    between atoms: C_11  and  O_12
REMARK    6  A    between atoms: O_12  and  C_13
REMARK    7  A    between atoms: C_16  and  C_17
REMARK    8  A    between atoms: C_17  and  N_18
REMARK    9  A    between atoms: C_19  and  C_21
REMARK                            x       y       z     vdW  Elec       q    Type
REMARK                         _______ _______ _______ _____ _____    ______ ____
ROOT
ATOM      1  C   UNL     1      -2.691  11.357  17.725  0.00  0.00    +0.000 A 
ATOM      2  C   UNL     1      -2.176  12.045  18.822  0.00  0.00    +0.000 A 
ATOM      3  C   UNL     1      -0.935  11.695  19.355  0.00  0.00    +0.000 A 
ATOM      4  C   UNL     1      -0.194  10.638  18.811  0.00  0.00    +0.000 A 
ATOM      5  C   UNL     1      -0.734   9.912  17.739  0.00  0.00    +0.000 A 
ATOM      6  C   UNL     1      -1.980  10.274  17.200  0.00  0.00    +0.000 A 
ENDROOT
BRANCH   1   7
ATOM      7  O   UNL     1      -3.869  11.676  17.107  0.00  0.00    +0.000 OA
BRANCH   7   8
ATOM      8  C   UNL     1      -4.984  10.869  17.505  0.00  0.00    +0.000 C 
BRANCH   8  13
ATOM      9  C   UNL     1      -6.528  12.676  20.468  0.00  0.00    +0.000 A 
ATOM     10  C   UNL     1      -7.601  13.340  19.860  0.00  0.00    +0.000 A 
ATOM     11  C   UNL     1      -7.846  13.183  18.493  0.00  0.00    +0.000 A 
ATOM     12  C   UNL     1      -7.002  12.387  17.720  0.00  0.00    +0.000 A 
ATOM     13  C   UNL     1      -5.939  11.705  18.315  0.00  0.00    +0.000 A 
ATOM     14  C   UNL     1      -5.751  11.810  19.699  0.00  0.00    +0.000 A 
BRANCH   9  18
ATOM     15  C   UNL     1      -5.226  13.895  23.842  0.00  0.00    +0.000 C 
ATOM     16  N   UNL     1      -5.428  13.851  22.404  0.00  0.00    +0.000 N 
ATOM     17  C   UNL     1      -4.859  14.944  21.623  0.00  0.00    +0.000 C 
ATOM     18  C   UNL     1      -6.295  12.856  21.928  0.00  0.00    +0.000 C 
ATOM     19  O   UNL     1      -6.897  12.100  22.692  0.00  0.00    +0.000 OA
ENDBRANCH   9  18
ENDBRANCH   8  13
ENDBRANCH   7   8
ENDBRANCH   1   7
BRANCH   4  20
ATOM     20  C   UNL     1       1.145  10.293  19.416  0.00  0.00    +0.000 C 
BRANCH  20  21
ATOM     21  N   UNL     1       1.298   8.869  19.572  0.00  0.00    +0.000 N 
ATOM     22  C   UNL     1       2.157   8.145  18.779  0.00  0.00    +0.000 C 
ATOM     23  O   UNL     1       2.838   8.653  17.896  0.00  0.00    +0.000 OA
ATOM     24  H   UNL     1       0.948   8.448  20.419  0.00  0.00    +0.000 HD
BRANCH  22  25
ATOM     25  C   UNL     1       2.204   6.728  19.083  0.00  0.00    +0.000 A 
ATOM     26  C   UNL     1       2.352   5.625  18.253  0.00  0.00    +0.000 A 
ATOM     27  C   UNL     1       2.337   4.452  19.049  0.00  0.00    +0.000 A 
ATOM     28  C   UNL     1       2.435   3.087  18.765  0.00  0.00    +0.000 A 
ATOM     29  N   UNL     1       2.375   2.170  19.760  0.00  0.00    +0.000 NA
ATOM     30  C   UNL     1       2.225   2.605  21.031  0.00  0.00    +0.000 A 
ATOM     31  C   UNL     1       2.128   3.935  21.417  0.00  0.00    +0.000 A 
ATOM     32  C   UNL     1       2.186   4.857  20.374  0.00  0.00    +0.000 A 
ATOM     33  N   UNL     1       2.121   6.232  20.371  0.00  0.00    +0.000 N 
ATOM     34  H   UNL     1       2.027   6.818  21.192  0.00  0.00    +0.000 HD
ENDBRANCH  22  25
ENDBRANCH  20  21
ENDBRANCH   4  20
TORSDOF 7
ENDMDL
MODEL 5
REMARK VINA RESULT:      -8.1      2.535     11.569
REMARK  Name = 
REMARK  9 active torsions:
REMARK  status: ('A' for Active; 'I' for Inactive)
REMARK    1  A    between atoms: C_1  and  N_2
REMARK    2  A    between atoms: N_2  and  C_3
REMARK    3  A    between atoms: C_4  and  C_6
REMARK    4  A    between atoms: C_10  and  C_11
REMARK    5  A    between atoms: C_11  and  O_12
REMARK    6  A    between atoms: O_12  and  C_13
REMARK    7  A    between atoms: C_16  and  C_17
REMARK    8  A    between atoms: C_17  and  N_18
REMARK    9  A    between atoms: C_19  and  C_21
REMARK                            x       y       z     vdW  Elec       q    Type
REMARK                         _______ _______ _______ _____ _____    ______ ____
ROOT
ATOM      1  C   UNL     1      -0.037  10.716  20.572  0.00  0.00    +0.000 A 
ATOM      2  C   UNL     1       0.883  10.223  19.649  0.00  0.00    +0.000 A 
ATOM      3  C   UNL     1       1.386   8.927  19.777  0.00  0.00    +0.000 A 
ATOM      4  C   UNL     1       0.990   8.108  20.842  0.00  0.00    +0.000 A 
ATOM      5  C   UNL     1       0.102   8.622  21.799  0.00  0.00    +0.000 A 
ATOM      6  C   UNL     1      -0.408   9.923  21.661  0.00  0.00    +0.000 A 
ENDROOT
BRANCH   1   7
ATOM      7  O   UNL     1      -0.622  11.951  20.484  0.00  0.00    +0.000 OA
BRANCH   7   8
ATOM      8  C   UNL     1      -1.116  12.281  19.181  0.00  0.00    +0.000 C 
BRANCH   8  13
ATOM      9  C   UNL     1      -4.789  12.451  20.131  0.00  0.00    +0.000 A 
ATOM     10  C   UNL     1      -5.384  11.769  19.062  0.00  0.00    +0.000 A 
ATOM     11  C   UNL     1      -4.596  11.228  18.042  0.00  0.00    +0.000 A 
ATOM     12  C   UNL     1      -3.211  11.390  18.070  0.00  0.00    +0.000 A 
ATOM     13  C   UNL     1      -2.602  12.052  19.138  0.00  0.00    +0.000 A 
ATOM     14  C   UNL     1      -3.398  12.523  20.191  0.00  0.00    +0.000 A 
BRANCH   9  18
ATOM     15  C   UNL     1      -6.888  14.800  22.285  0.00  0.00    +0.000 C 
ATOM     16  N   UNL     1      -6.105  14.340  21.151  0.00  0.00    +0.000 N 
ATOM     17  C   UNL     1      -6.017  15.233  20.002  0.00  0.00    +0.000 C 
ATOM     18  C   UNL     1      -5.654  13.012  21.206  0.00  0.00    +0.000 C 
ATOM     19  O   UNL     1      -5.955  12.262  22.135  0.00  0.00    +0.000 OA
ENDBRANCH   9  18
ENDBRANCH   8  13
ENDBRANCH   7   8
ENDBRANCH   1   7
BRANCH   4  20
ATOM     20  C   UNL     1       1.555   6.713  20.943  0.00  0.00    +0.000 C 
BRANCH  20  21
ATOM     21  N   UNL     1       2.631   6.515  20.005  0.00  0.00    +0.000 N 
ATOM     22  C   UNL     1       2.620   5.475  19.104  0.00  0.00    +0.000 C 
ATOM     23  O   UNL     1       1.711   4.656  19.043  0.00  0.00    +0.000 OA
ATOM     24  H   UNL     1       3.273   7.278  19.856  0.00  0.00    +0.000 HD
BRANCH  22  25
ATOM     25  C   UNL     1       3.769   5.434  18.221  0.00  0.00    +0.000 A 
ATOM     26  C   UNL     1       4.965   6.138  18.254  0.00  0.00    +0.000 A 
ATOM     27  C   UNL     1       5.764   5.726  17.157  0.00  0.00    +0.000 A 
ATOM     28  C   UNL     1       7.031   6.088  16.691  0.00  0.00    +0.000 A 
ATOM     29  N   UNL     1       7.546   5.516  15.577  0.00  0.00    +0.000 NA
ATOM     30  C   UNL     1       6.810   4.583  14.931  0.00  0.00    +0.000 A 
ATOM     31  C   UNL     1       5.549   4.148  15.317  0.00  0.00    +0.000 A 
ATOM     32  C   UNL     1       5.041   4.758  16.463  0.00  0.00    +0.000 A 
ATOM     33  N   UNL     1       3.848   4.589  17.129  0.00  0.00    +0.000 N 
ATOM     34  H   UNL     1       3.117   3.938  16.870  0.00  0.00    +0.000 HD
ENDBRANCH  22  25
ENDBRANCH  20  21
ENDBRANCH   4  20
TORSDOF 7
ENDMDL
MODEL 6
REMARK VINA RESULT:      -8.0      3.172     12.081
REMARK  Name = 
REMARK  9 active torsions:
REMARK  status: ('A' for Active; 'I' for Inactive)
REMARK    1  A    between atoms: C_1  and  N_2
REMARK    2  A    between atoms: N_2  and  C_3
REMARK    3  A    between atoms: C_4  and  C_6
REMARK    4  A    between atoms: C_10  and  C_11
REMARK    5  A    between atoms: C_11  and  O_12
REMARK    6  A    between atoms: O_12  and  C_13
REMARK    7  A    between atoms: C_16  and  C_17
REMARK    8  A    between atoms: C_17  and  N_18
REMARK    9  A    between atoms: C_19  and  C_21
REMARK                            x       y       z     vdW  Elec       q    Type
REMARK                         _______ _______ _______ _____ _____    ______ ____
ROOT
ATOM      1  C   UNL     1       1.083   9.276  19.633  0.00  0.00    +0.000 A 
ATOM      2  C   UNL     1       1.768   8.904  18.478  0.00  0.00    +0.000 A 
ATOM      3  C   UNL     1       2.455   7.690  18.426  0.00  0.00    +0.000 A 
ATOM      4  C   UNL     1       2.485   6.836  19.535  0.00  0.00    +0.000 A 
ATOM      5  C   UNL     1       1.838   7.233  20.715  0.00  0.00    +0.000 A 
ATOM      6  C   UNL     1       1.140   8.452  20.760  0.00  0.00    +0.000 A 
ENDROOT
BRANCH   1   7
ATOM      7  O   UNL     1       0.338  10.419  19.745  0.00  0.00    +0.000 OA
BRANCH   7   8
ATOM      8  C   UNL     1       0.057  11.068  18.500  0.00  0.00    +0.000 C 
BRANCH   8  13
ATOM      9  C   UNL     1      -3.724  11.434  18.530  0.00  0.00    +0.000 A 
ATOM     10  C   UNL     1      -4.090  10.610  17.458  0.00  0.00    +0.000 A 
ATOM     11  C   UNL     1      -3.118   9.911  16.739  0.00  0.00    +0.000 A 
ATOM     12  C   UNL     1      -1.770  10.054  17.067  0.00  0.00    +0.000 A 
ATOM     13  C   UNL     1      -1.390  10.858  18.144  0.00  0.00    +0.000 A 
ATOM     14  C   UNL     1      -2.381  11.493  18.903  0.00  0.00    +0.000 A 
BRANCH   9  18
ATOM     15  C   UNL     1      -7.060  12.495  20.048  0.00  0.00    +0.000 C 
ATOM     16  N   UNL     1      -6.095  11.671  19.342  0.00  0.00    +0.000 N 
ATOM     17  C   UNL     1      -6.538  10.346  18.925  0.00  0.00    +0.000 C 
ATOM     18  C   UNL     1      -4.783  12.163  19.282  0.00  0.00    +0.000 C 
ATOM     19  O   UNL     1      -4.454  13.207  19.848  0.00  0.00    +0.000 OA
ENDBRANCH   9  18
ENDBRANCH   8  13
ENDBRANCH   7   8
ENDBRANCH   1   7
BRANCH   4  20
ATOM     20  C   UNL     1       3.238   5.532  19.436  0.00  0.00    +0.000 C 
BRANCH  20  21
ATOM     21  N   UNL     1       3.920   5.416  18.172  0.00  0.00    +0.000 N 
ATOM     22  C   UNL     1       5.093   4.708  18.048  0.00  0.00    +0.000 C 
ATOM     23  O   UNL     1       5.632   4.140  18.990  0.00  0.00    +0.000 OA
ATOM     24  H   UNL     1       3.409   5.658  17.337  0.00  0.00    +0.000 HD
BRANCH  22  25
ATOM     25  C   UNL     1       5.634   4.676  16.703  0.00  0.00    +0.000 A 
ATOM     26  C   UNL     1       6.749   5.298  16.158  0.00  0.00    +0.000 A 
ATOM     27  C   UNL     1       6.846   4.938  14.790  0.00  0.00    +0.000 A 
ATOM     28  C   UNL     1       7.738   5.262  13.764  0.00  0.00    +0.000 A 
ATOM     29  N   UNL     1       7.566   4.761  12.517  0.00  0.00    +0.000 NA
ATOM     30  C   UNL     1       6.518   3.937  12.291  0.00  0.00    +0.000 A 
ATOM     31  C   UNL     1       5.585   3.547  13.242  0.00  0.00    +0.000 A 
ATOM     32  C   UNL     1       5.781   4.082  14.514  0.00  0.00    +0.000 A 
ATOM     33  N   UNL     1       5.072   3.929  15.685  0.00  0.00    +0.000 N 
ATOM     34  H   UNL     1       4.250   3.350  15.802  0.00  0.00    +0.000 HD
ENDBRANCH  22  25
ENDBRANCH  20  21
ENDBRANCH   4  20
TORSDOF 7
ENDMDL
MODEL 7
REMARK VINA RESULT:      -8.0      2.159     10.800
REMARK  Name = 
REMARK  9 active torsions:
REMARK  status: ('A' for Active; 'I' for Inactive)
REMARK    1  A    between atoms: C_1  and  N_2
REMARK    2  A    between atoms: N_2  and  C_3
REMARK    3  A    between atoms: C_4  and  C_6
REMARK    4  A    between atoms: C_10  and  C_11
REMARK    5  A    between atoms: C_11  and  O_12
REMARK    6  A    between atoms: O_12  and  C_13
REMARK    7  A    between atoms: C_16  and  C_17
REMARK    8  A    between atoms: C_17  and  N_18
REMARK    9  A    between atoms: C_19  and  C_21
REMARK                            x       y       z     vdW  Elec       q    Type
REMARK                         _______ _______ _______ _____ _____    ______ ____
ROOT
ATOM      1  C   UNL     1      -2.549  11.443  17.585  0.00  0.00    +0.000 A 
ATOM      2  C   UNL     1      -1.819  12.406  18.279  0.00  0.00    +0.000 A 
ATOM      3  C   UNL     1      -0.689  12.042  19.012  0.00  0.00    +0.000 A 
ATOM      4  C   UNL     1      -0.278  10.704  19.078  0.00  0.00    +0.000 A 
ATOM      5  C   UNL     1      -1.041   9.727  18.421  0.00  0.00    +0.000 A 
ATOM      6  C   UNL     1      -2.174  10.100  17.677  0.00  0.00    +0.000 A 
ENDROOT
BRANCH   1   7
ATOM      7  O   UNL     1      -3.632  11.725  16.797  0.00  0.00    +0.000 OA
BRANCH   7   8
ATOM      8  C   UNL     1      -4.777  10.902  17.046  0.00  0.00    +0.000 C 
BRANCH   8  13
ATOM      9  C   UNL     1      -6.553  12.389  20.057  0.00  0.00    +0.000 A 
ATOM     10  C   UNL     1      -7.527  13.184  19.440  0.00  0.00    +0.000 A 
ATOM     11  C   UNL     1      -7.631  13.221  18.047  0.00  0.00    +0.000 A 
ATOM     12  C   UNL     1      -6.743  12.486  17.261  0.00  0.00    +0.000 A 
ATOM     13  C   UNL     1      -5.778  11.676  17.862  0.00  0.00    +0.000 A 
ATOM     14  C   UNL     1      -5.734  11.590  19.260  0.00  0.00    +0.000 A 
BRANCH   9  18
ATOM     15  C   UNL     1      -5.510  13.021  23.673  0.00  0.00    +0.000 C 
ATOM     16  N   UNL     1      -5.549  13.172  22.229  0.00  0.00    +0.000 N 
ATOM     17  C   UNL     1      -4.766  14.262  21.658  0.00  0.00    +0.000 C 
ATOM     18  C   UNL     1      -6.469  12.365  21.544  0.00  0.00    +0.000 C 
ATOM     19  O   UNL     1      -7.243  11.613  22.139  0.00  0.00    +0.000 OA
ENDBRANCH   9  18
ENDBRANCH   8  13
ENDBRANCH   7   8
ENDBRANCH   1   7
BRANCH   4  20
ATOM     20  C   UNL     1       0.951  10.353  19.879  0.00  0.00    +0.000 C 
BRANCH  20  21
ATOM     21  N   UNL     1       1.500   9.086  19.467  0.00  0.00    +0.000 N 
ATOM     22  C   UNL     1       1.668   8.050  20.356  0.00  0.00    +0.000 C 
ATOM     23  O   UNL     1       1.370   8.134  21.542  0.00  0.00    +0.000 OA
ATOM     24  H   UNL     1       1.540   8.889  18.479  0.00  0.00    +0.000 HD
BRANCH  22  25
ATOM     25  C   UNL     1       2.214   6.840  19.771  0.00  0.00    +0.000 A 
ATOM     26  C   UNL     1       2.599   6.555  18.468  0.00  0.00    +0.000 A 
ATOM     27  C   UNL     1       3.075   5.220  18.418  0.00  0.00    +0.000 A 
ATOM     28  C   UNL     1       3.574   4.408  17.395  0.00  0.00    +0.000 A 
ATOM     29  N   UNL     1       3.951   3.133  17.650  0.00  0.00    +0.000 NA
ATOM     30  C   UNL     1       3.843   2.668  18.916  0.00  0.00    +0.000 A 
ATOM     31  C   UNL     1       3.371   3.397  20.000  0.00  0.00    +0.000 A 
ATOM     32  C   UNL     1       2.983   4.703  19.708  0.00  0.00    +0.000 A 
ATOM     33  N   UNL     1       2.473   5.700  20.508  0.00  0.00    +0.000 N 
ATOM     34  H   UNL     1       2.307   5.627  21.505  0.00  0.00    +0.000 HD
ENDBRANCH  22  25
ENDBRANCH  20  21
ENDBRANCH   4  20
TORSDOF 7
ENDMDL
MODEL 8
REMARK VINA RESULT:      -8.0      2.992     11.587
REMARK  Name = 
REMARK  9 active torsions:
REMARK  status: ('A' for Active; 'I' for Inactive)
REMARK    1  A    between atoms: C_1  and  N_2
REMARK    2  A    between atoms: N_2  and  C_3
REMARK    3  A    between atoms: C_4  and  C_6
REMARK    4  A    between atoms: C_10  and  C_11
REMARK    5  A    between atoms: C_11  and  O_12
REMARK    6  A    between atoms: O_12  and  C_13
REMARK    7  A    between atoms: C_16  and  C_17
REMARK    8  A    between atoms: C_17  and  N_18
REMARK    9  A    between atoms: C_19  and  C_21
REMARK                            x       y       z     vdW  Elec       q    Type
REMARK                         _______ _______ _______ _____ _____    ______ ____
ROOT
ATOM      1  C   UNL     1       0.464  11.187  21.046  0.00  0.00    +0.000 A 
ATOM      2  C   UNL     1       0.301  10.385  22.174  0.00  0.00    +0.000 A 
ATOM      3  C   UNL     1       0.578   9.019  22.115  0.00  0.00    +0.000 A 
ATOM      4  C   UNL     1       1.006   8.426  20.921  0.00  0.00    +0.000 A 
ATOM      5  C   UNL     1       1.122   9.222  19.772  0.00  0.00    +0.000 A 
ATOM      6  C   UNL     1       0.851  10.599  19.838  0.00  0.00    +0.000 A 
ENDROOT
BRANCH   1   7
ATOM      7  O   UNL     1       0.271  12.542  21.035  0.00  0.00    +0.000 OA
BRANCH   7   8
ATOM      8  C   UNL     1      -0.454  13.046  22.163  0.00  0.00    +0.000 C 
BRANCH   8  13
ATOM      9  C   UNL     1      -4.121  13.320  21.211  0.00  0.00    +0.000 A 
ATOM     10  C   UNL     1      -4.236  14.691  20.945  0.00  0.00    +0.000 A 
ATOM     11  C   UNL     1      -3.121  15.527  21.045  0.00  0.00    +0.000 A 
ATOM     12  C   UNL     1      -1.891  15.004  21.441  0.00  0.00    +0.000 A 
ATOM     13  C   UNL     1      -1.756  13.638  21.694  0.00  0.00    +0.000 A 
ATOM     14  C   UNL     1      -2.864  12.799  21.515  0.00  0.00    +0.000 A 
BRANCH   9  18
ATOM     15  C   UNL     1      -6.930  11.132  19.840  0.00  0.00    +0.000 C 
ATOM     16  N   UNL     1      -5.703  11.909  19.853  0.00  0.00    +0.000 N 
ATOM     17  C   UNL     1      -4.902  11.900  18.635  0.00  0.00    +0.000 C 
ATOM     18  C   UNL     1      -5.325  12.452  21.090  0.00  0.00    +0.000 C 
ATOM     19  O   UNL     1      -5.966  12.232  22.119  0.00  0.00    +0.000 OA
ENDBRANCH   9  18
ENDBRANCH   8  13
ENDBRANCH   7   8
ENDBRANCH   1   7
BRANCH   4  20
ATOM     20  C   UNL     1       1.298   6.946  20.901  0.00  0.00    +0.000 C 
BRANCH  20  21
ATOM     21  N   UNL     1       2.407   6.643  20.032  0.00  0.00    +0.000 N 
ATOM     22  C   UNL     1       2.993   5.398  20.019  0.00  0.00    +0.000 C 
ATOM     23  O   UNL     1       2.620   4.478  20.737  0.00  0.00    +0.000 OA
ATOM     24  H   UNL     1       2.596   7.276  19.271  0.00  0.00    +0.000 HD
BRANCH  22  25
ATOM     25  C   UNL     1       4.083   5.258  19.073  0.00  0.00    +0.000 A 
ATOM     26  C   UNL     1       5.428   4.980  19.272  0.00  0.00    +0.000 A 
ATOM     27  C   UNL     1       6.076   4.947  18.010  0.00  0.00    +0.000 A 
ATOM     28  C   UNL     1       7.396   4.727  17.605  0.00  0.00    +0.000 A 
ATOM     29  N   UNL     1       7.729   4.771  16.293  0.00  0.00    +0.000 NA
ATOM     30  C   UNL     1       6.758   5.024  15.387  0.00  0.00    +0.000 A 
ATOM     31  C   UNL     1       5.420   5.245  15.687  0.00  0.00    +0.000 A 
ATOM     32  C   UNL     1       5.105   5.201  17.044  0.00  0.00    +0.000 A 
ATOM     33  N   UNL     1       3.910   5.373  17.706  0.00  0.00    +0.000 N 
ATOM     34  H   UNL     1       3.017   5.557  17.267  0.00  0.00    +0.000 HD
ENDBRANCH  22  25
ENDBRANCH  20  21
ENDBRANCH   4  20
TORSDOF 7
ENDMDL
MODEL 9
REMARK VINA RESULT:      -7.9      2.586      3.330
REMARK  Name = 
REMARK  9 active torsions:
REMARK  status: ('A' for Active; 'I' for Inactive)
REMARK    1  A    between atoms: C_1  and  N_2
REMARK    2  A    between atoms: N_2  and  C_3
REMARK    3  A    between atoms: C_4  and  C_6
REMARK    4  A    between atoms: C_10  and  C_11
REMARK    5  A    between atoms: C_11  and  O_12
REMARK    6  A    between atoms: O_12  and  C_13
REMARK    7  A    between atoms: C_16  and  C_17
REMARK    8  A    between atoms: C_17  and  N_18
REMARK    9  A    between atoms: C_19  and  C_21
REMARK                            x       y       z     vdW  Elec       q    Type
REMARK                         _______ _______ _______ _____ _____    ______ ____
ROOT
ATOM      1  C   UNL     1       1.491   8.738  19.147  0.00  0.00    +0.000 A 
ATOM      2  C   UNL     1       1.741   8.016  20.313  0.00  0.00    +0.000 A 
ATOM      3  C   UNL     1       1.222   8.446  21.534  0.00  0.00    +0.000 A 
ATOM      4  C   UNL     1       0.457   9.617  21.615  0.00  0.00    +0.000 A 
ATOM      5  C   UNL     1       0.247  10.372  20.451  0.00  0.00    +0.000 A 
ATOM      6  C   UNL     1       0.765   9.930  19.222  0.00  0.00    +0.000 A 
ENDROOT
BRANCH   1   7
ATOM      7  O   UNL     1       1.913   8.353  17.903  0.00  0.00    +0.000 OA
BRANCH   7   8
ATOM      8  C   UNL     1       3.333   8.390  17.721  0.00  0.00    +0.000 C 
BRANCH   8  13
ATOM      9  C   UNL     1       3.491   4.610  17.381  0.00  0.00    +0.000 A 
ATOM     10  C   UNL     1       4.597   4.454  16.535  0.00  0.00    +0.000 A 
ATOM     11  C   UNL     1       5.313   5.570  16.094  0.00  0.00    +0.000 A 
ATOM     12  C   UNL     1       4.910   6.850  16.471  0.00  0.00    +0.000 A 
ATOM     13  C   UNL     1       3.820   7.022  17.327  0.00  0.00    +0.000 A 
ATOM     14  C   UNL     1       3.159   5.890  17.822  0.00  0.00    +0.000 A 
BRANCH   9  18
ATOM     15  C   UNL     1       2.494   1.390  19.170  0.00  0.00    +0.000 C 
ATOM     16  N   UNL     1       3.269   2.576  18.847  0.00  0.00    +0.000 N 
ATOM     17  C   UNL     1       4.401   2.881  19.714  0.00  0.00    +0.000 C 
ATOM     18  C   UNL     1       2.750   3.402  17.839  0.00  0.00    +0.000 C 
ATOM     19  O   UNL     1       1.668   3.167  17.300  0.00  0.00    +0.000 OA
ENDBRANCH   9  18
ENDBRANCH   8  13
ENDBRANCH   7   8
ENDBRANCH   1   7
BRANCH   4  20
ATOM     20  C   UNL     1      -0.088  10.046  22.955  0.00  0.00    +0.000 C 
BRANCH  20  21
ATOM     21  N   UNL     1      -1.409  10.608  22.827  0.00  0.00    +0.000 N 
ATOM     22  C   UNL     1      -1.651  11.942  23.060  0.00  0.00    +0.000 C 
ATOM     23  O   UNL     1      -0.773  12.730  23.393  0.00  0.00    +0.000 OA
ATOM     24  H   UNL     1      -2.105  10.067  22.338  0.00  0.00    +0.000 HD
BRANCH  22  25
ATOM     25  C   UNL     1      -3.030  12.344  22.867  0.00  0.00    +0.000 A 
ATOM     26  C   UNL     1      -3.702  12.769  21.728  0.00  0.00    +0.000 A 
ATOM     27  C   UNL     1      -5.050  13.042  22.072  0.00  0.00    +0.000 A 
ATOM     28  C   UNL     1      -6.160  13.495  21.354  0.00  0.00    +0.000 A 
ATOM     29  N   UNL     1      -7.352  13.678  21.970  0.00  0.00    +0.000 NA
ATOM     30  C   UNL     1      -7.445  13.406  23.292  0.00  0.00    +0.000 A 
ATOM     31  C   UNL     1      -6.406  12.943  24.090  0.00  0.00    +0.000 A 
ATOM     32  C   UNL     1      -5.190  12.769  23.432  0.00  0.00    +0.000 A 
ATOM     33  N   UNL     1      -3.964  12.339  23.886  0.00  0.00    +0.000 N 
ATOM     34  H   UNL     1      -3.757  12.052  24.835  0.00  0.00    +0.000 HD
ENDBRANCH  22  25
ENDBRANCH  20  21
ENDBRANCH   4  20
TORSDOF 7
ENDMDL
