MODEL 1
REMARK VINA RESULT:      -6.5      0.000      0.000
REMARK  Name = 
REMARK  8 active torsions:
REMARK  status: ('A' for Active; 'I' for Inactive)
REMARK    1  A    between atoms: C_1  and  C_2
REMARK    2  A    between atoms: C_2  and  C_3
REMARK    3  A    between atoms: C_3  and  N_4
REMARK    4  A    between atoms: C_5  and  C_7
REMARK    5  A    between atoms: C_10  and  S_11
REMARK    6  A    between atoms: S_11  and  C_12
REMARK    7  A    between atoms: C_14  and  O_15
REMARK    8  A    between atoms: O_15  and  C_16
REMARK                            x       y       z     vdW  Elec       q    Type
REMARK                         _______ _______ _______ _____ _____    ______ ____
ROOT
ATOM      1  C   UNL     1       5.649   5.036  16.012  0.00  0.00    +0.000 A 
ATOM      2  C   UNL     1       4.761   4.003  16.381  0.00  0.00    +0.000 A 
ATOM      3  C   UNL     1       3.947   4.108  17.512  0.00  0.00    +0.000 A 
ATOM      4  C   UNL     1       4.018   5.234  18.327  0.00  0.00    +0.000 A 
ATOM      5  C   UNL     1       4.910   6.250  17.974  0.00  0.00    +0.000 A 
ATOM      6  C   UNL     1       5.733   6.177  16.826  0.00  0.00    +0.000 A 
ENDROOT
BRANCH   1   8
ATOM      7  N   UNL     1       5.810   3.992  13.820  0.00  0.00    +0.000 N 
ATOM      8  C   UNL     1       6.439   4.772  14.780  0.00  0.00    +0.000 C 
ATOM      9  O   UNL     1       7.585   5.185  14.647  0.00  0.00    +0.000 OA
ATOM     10  H   UNL     1       4.867   3.663  13.984  0.00  0.00    +0.000 HD
BRANCH   7  11
ATOM     11  C   UNL     1       6.449   3.632  12.568  0.00  0.00    +0.000 C 
BRANCH  11  13
ATOM     12  C   UNL     1       4.246   3.212  11.367  0.00  0.00    +0.000 C 
ATOM     13  C   UNL     1       5.624   2.670  11.715  0.00  0.00    +0.000 C 
ENDBRANCH  11  13
ENDBRANCH   7  11
ENDBRANCH   1   8
BRANCH   4  14
ATOM     14  S   UNL     1       2.907   5.317  19.723  0.00  0.00    +0.000 S 
ATOM     15  C   UNL     1       2.737   3.572  20.187  0.00  0.00    +0.000 C 
ENDBRANCH   4  14
BRANCH   6  16
ATOM     16  O   UNL     1       6.466   7.324  16.714  0.00  0.00    +0.000 OA
ATOM     17  C   UNL     1       7.598   7.569  17.525  0.00  0.00    +0.000 C 
ENDBRANCH   6  16
TORSDOF 5
ENDMDL
MODEL 2
REMARK VINA RESULT:      -6.4      1.459      1.506
REMARK  Name = 
REMARK  8 active torsions:
REMARK  status: ('A' for Active; 'I' for Inactive)
REMARK    1  A    between atoms: C_1  and  C_2
REMARK    2  A    between atoms: C_2  and  C_3
REMARK    3  A    between atoms: C_3  and  N_4
REMARK    4  A    between atoms: C_5  and  C_7
REMARK    5  A    between atoms: C_10  and  S_11
REMARK    6  A    between atoms: S_11  and  C_12
REMARK    7  A    between atoms: C_14  and  O_15
REMARK    8  A    between atoms: O_15  and  C_16
REMARK                            x       y       z     vdW  Elec       q    Type
REMARK                         _______ _______ _______ _____ _____    ______ ____
ROOT
ATOM      1  C   UNL     1       5.735   4.361  16.605  0.00  0.00    +0.000 A 
ATOM      2  C   UNL     1       4.366   4.044  16.479  0.00  0.00    +0.000 A 
ATOM      3  C   UNL     1       3.557   3.839  17.600  0.00  0.00    +0.000 A 
ATOM      4  C   UNL     1       4.099   3.911  18.880  0.00  0.00    +0.000 A 
ATOM      5  C   UNL     1       5.459   4.207  19.006  0.00  0.00    +0.000 A 
ATOM      6  C   UNL     1       6.297   4.436  17.889  0.00  0.00    +0.000 A 
ENDROOT
BRANCH   1   8
ATOM      7  N   UNL     1       6.060   3.721  14.280  0.00  0.00    +0.000 N 
ATOM      8  C   UNL     1       6.453   4.555  15.317  0.00  0.00    +0.000 C 
ATOM      9  O   UNL     1       7.359   5.372  15.199  0.00  0.00    +0.000 OA
ATOM     10  H   UNL     1       5.316   3.053  14.432  0.00  0.00    +0.000 HD
BRANCH   7  11
ATOM     11  C   UNL     1       6.670   3.774  12.964  0.00  0.00    +0.000 C 
BRANCH  11  13
ATOM     12  C   UNL     1       4.530   3.272  11.683  0.00  0.00    +0.000 C 
ATOM     13  C   UNL     1       5.979   2.882  11.933  0.00  0.00    +0.000 C 
ENDBRANCH  11  13
ENDBRANCH   7  11
ENDBRANCH   1   8
BRANCH   4  14
ATOM     14  S   UNL     1       2.990   3.690  20.262  0.00  0.00    +0.000 S 
ATOM     15  C   UNL     1       2.018   5.220  20.228  0.00  0.00    +0.000 C 
ENDBRANCH   4  14
BRANCH   6  16
ATOM     16  O   UNL     1       7.558   4.740  18.317  0.00  0.00    +0.000 OA
ATOM     17  C   UNL     1       7.854   5.966  18.954  0.00  0.00    +0.000 C 
ENDBRANCH   6  16
TORSDOF 5
ENDMDL
MODEL 3
REMARK VINA RESULT:      -6.3      1.520      2.518
REMARK  Name = 
REMARK  8 active torsions:
REMARK  status: ('A' for Active; 'I' for Inactive)
REMARK    1  A    between atoms: C_1  and  C_2
REMARK    2  A    between atoms: C_2  and  C_3
REMARK    3  A    between atoms: C_3  and  N_4
REMARK    4  A    between atoms: C_5  and  C_7
REMARK    5  A    between atoms: C_10  and  S_11
REMARK    6  A    between atoms: S_11  and  C_12
REMARK    7  A    between atoms: C_14  and  O_15
REMARK    8  A    between atoms: O_15  and  C_16
REMARK                            x       y       z     vdW  Elec       q    Type
REMARK                         _______ _______ _______ _____ _____    ______ ____
ROOT
ATOM      1  C   UNL     1       5.167   5.349  16.186  0.00  0.00    +0.000 A 
ATOM      2  C   UNL     1       4.975   6.724  16.436  0.00  0.00    +0.000 A 
ATOM      3  C   UNL     1       4.121   7.172  17.446  0.00  0.00    +0.000 A 
ATOM      4  C   UNL     1       3.406   6.259  18.217  0.00  0.00    +0.000 A 
ATOM      5  C   UNL     1       3.580   4.898  17.960  0.00  0.00    +0.000 A 
ATOM      6  C   UNL     1       4.451   4.416  16.954  0.00  0.00    +0.000 A 
ENDROOT
BRANCH   1   8
ATOM      7  N   UNL     1       5.639   4.165  14.114  0.00  0.00    +0.000 N 
ATOM      8  C   UNL     1       6.113   5.039  15.081  0.00  0.00    +0.000 C 
ATOM      9  O   UNL     1       7.249   5.498  15.056  0.00  0.00    +0.000 OA
ATOM     10  H   UNL     1       4.698   3.803  14.187  0.00  0.00    +0.000 HD
BRANCH   7  11
ATOM     11  C   UNL     1       6.441   3.751  12.978  0.00  0.00    +0.000 C 
BRANCH  11  13
ATOM     12  C   UNL     1       4.343   3.369  11.590  0.00  0.00    +0.000 C 
ATOM     13  C   UNL     1       5.702   2.828  12.010  0.00  0.00    +0.000 C 
ENDBRANCH  11  13
ENDBRANCH   7  11
ENDBRANCH   1   8
BRANCH   4  14
ATOM     14  S   UNL     1       2.376   6.908  19.524  0.00  0.00    +0.000 S 
ATOM     15  C   UNL     1       1.914   5.409  20.434  0.00  0.00    +0.000 C 
ENDBRANCH   4  14
BRANCH   6  16
ATOM     16  O   UNL     1       4.448   3.050  16.960  0.00  0.00    +0.000 OA
ATOM     17  C   UNL     1       3.588   2.309  17.803  0.00  0.00    +0.000 C 
ENDBRANCH   6  16
TORSDOF 5
ENDMDL
MODEL 4
REMARK VINA RESULT:      -6.2      1.769      2.848
REMARK  Name = 
REMARK  8 active torsions:
REMARK  status: ('A' for Active; 'I' for Inactive)
REMARK    1  A    between atoms: C_1  and  C_2
REMARK    2  A    between atoms: C_2  and  C_3
REMARK    3  A    between atoms: C_3  and  N_4
REMARK    4  A    between atoms: C_5  and  C_7
REMARK    5  A    between atoms: C_10  and  S_11
REMARK    6  A    between atoms: S_11  and  C_12
REMARK    7  A    between atoms: C_14  and  O_15
REMARK    8  A    between atoms: O_15  and  C_16
REMARK                            x       y       z     vdW  Elec       q    Type
REMARK                         _______ _______ _______ _____ _____    ______ ____
ROOT
ATOM      1  C   UNL     1       5.209   5.111  16.118  0.00  0.00    +0.000 A 
ATOM      2  C   UNL     1       5.094   6.511  16.239  0.00  0.00    +0.000 A 
ATOM      3  C   UNL     1       4.240   7.097  17.178  0.00  0.00    +0.000 A 
ATOM      4  C   UNL     1       3.450   6.299  18.002  0.00  0.00    +0.000 A 
ATOM      5  C   UNL     1       3.549   4.912  17.871  0.00  0.00    +0.000 A 
ATOM      6  C   UNL     1       4.417   4.293  16.941  0.00  0.00    +0.000 A 
ENDROOT
BRANCH   1   8
ATOM      7  N   UNL     1       5.592   4.148  13.917  0.00  0.00    +0.000 N 
ATOM      8  C   UNL     1       6.165   4.649  15.077  0.00  0.00    +0.000 C 
ATOM      9  O   UNL     1       7.377   4.675  15.255  0.00  0.00    +0.000 OA
ATOM     10  H   UNL     1       4.585   4.135  13.823  0.00  0.00    +0.000 HD
BRANCH   7  11
ATOM     11  C   UNL     1       6.385   3.645  12.810  0.00  0.00    +0.000 C 
BRANCH  11  13
ATOM     12  C   UNL     1       4.273   3.288  11.438  0.00  0.00    +0.000 C 
ATOM     13  C   UNL     1       5.612   2.715  11.876  0.00  0.00    +0.000 C 
ENDBRANCH  11  13
ENDBRANCH   7  11
ENDBRANCH   1   8
BRANCH   4  14
ATOM     14  S   UNL     1       2.425   7.121  19.212  0.00  0.00    +0.000 S 
ATOM     15  C   UNL     1       1.948   8.642  18.347  0.00  0.00    +0.000 C 
ENDBRANCH   4  14
BRANCH   6  16
ATOM     16  O   UNL     1       4.331   2.936  17.066  0.00  0.00    +0.000 OA
ATOM     17  C   UNL     1       3.430   2.325  17.968  0.00  0.00    +0.000 C 
ENDBRANCH   6  16
TORSDOF 5
ENDMDL
MODEL 5
REMARK VINA RESULT:      -6.1      3.165      5.817
REMARK  Name = 
REMARK  8 active torsions:
REMARK  status: ('A' for Active; 'I' for Inactive)
REMARK    1  A    between atoms: C_1  and  C_2
REMARK    2  A    between atoms: C_2  and  C_3
REMARK    3  A    between atoms: C_3  and  N_4
REMARK    4  A    between atoms: C_5  and  C_7
REMARK    5  A    between atoms: C_10  and  S_11
REMARK    6  A    between atoms: S_11  and  C_12
REMARK    7  A    between atoms: C_14  and  O_15
REMARK    8  A    between atoms: O_15  and  C_16
REMARK                            x       y       z     vdW  Elec       q    Type
REMARK                         _______ _______ _______ _____ _____    ______ ____
ROOT
ATOM      1  C   UNL     1       5.384   4.207  17.686  0.00  0.00    +0.000 A 
ATOM      2  C   UNL     1       4.607   4.111  16.513  0.00  0.00    +0.000 A 
ATOM      3  C   UNL     1       5.171   4.282  15.246  0.00  0.00    +0.000 A 
ATOM      4  C   UNL     1       6.524   4.585  15.114  0.00  0.00    +0.000 A 
ATOM      5  C   UNL     1       7.292   4.698  16.276  0.00  0.00    +0.000 A 
ATOM      6  C   UNL     1       6.750   4.513  17.570  0.00  0.00    +0.000 A 
ENDROOT
BRANCH   1   8
ATOM      7  N   UNL     1       3.601   4.886  19.195  0.00  0.00    +0.000 N 
ATOM      8  C   UNL     1       4.635   3.993  18.952  0.00  0.00    +0.000 C 
ATOM      9  O   UNL     1       4.942   3.109  19.744  0.00  0.00    +0.000 OA
ATOM     10  H   UNL     1       3.396   5.607  18.517  0.00  0.00    +0.000 HD
BRANCH   7  11
ATOM     11  C   UNL     1       2.781   4.823  20.391  0.00  0.00    +0.000 C 
BRANCH  11  13
ATOM     12  C   UNL     1       1.185   2.842  20.386  0.00  0.00    +0.000 C 
ATOM     13  C   UNL     1       1.358   4.332  20.132  0.00  0.00    +0.000 C 
ENDBRANCH  11  13
ENDBRANCH   7  11
ENDBRANCH   1   8
BRANCH   4  14
ATOM     14  S   UNL     1       7.181   4.735  13.461  0.00  0.00    +0.000 S 
ATOM     15  C   UNL     1       6.224   3.493  12.549  0.00  0.00    +0.000 C 
ENDBRANCH   4  14
BRANCH   6  16
ATOM     16  O   UNL     1       7.738   4.644  18.504  0.00  0.00    +0.000 OA
ATOM     17  C   UNL     1       7.817   5.771  19.354  0.00  0.00    +0.000 C 
ENDBRANCH   6  16
TORSDOF 5
ENDMDL
MODEL 6
REMARK VINA RESULT:      -6.1      0.884      1.209
REMARK  Name = 
REMARK  8 active torsions:
REMARK  status: ('A' for Active; 'I' for Inactive)
REMARK    1  A    between atoms: C_1  and  C_2
REMARK    2  A    between atoms: C_2  and  C_3
REMARK    3  A    between atoms: C_3  and  N_4
REMARK    4  A    between atoms: C_5  and  C_7
REMARK    5  A    between atoms: C_10  and  S_11
REMARK    6  A    between atoms: S_11  and  C_12
REMARK    7  A    between atoms: C_14  and  O_15
REMARK    8  A    between atoms: O_15  and  C_16
REMARK                            x       y       z     vdW  Elec       q    Type
REMARK                         _______ _______ _______ _____ _____    ______ ____
ROOT
ATOM      1  C   UNL     1       5.452   4.970  16.037  0.00  0.00    +0.000 A 
ATOM      2  C   UNL     1       4.493   3.992  16.373  0.00  0.00    +0.000 A 
ATOM      3  C   UNL     1       3.601   4.174  17.433  0.00  0.00    +0.000 A 
ATOM      4  C   UNL     1       3.662   5.327  18.211  0.00  0.00    +0.000 A 
ATOM      5  C   UNL     1       4.623   6.290  17.893  0.00  0.00    +0.000 A 
ATOM      6  C   UNL     1       5.527   6.138  16.814  0.00  0.00    +0.000 A 
ENDROOT
BRANCH   1   8
ATOM      7  N   UNL     1       5.688   3.976  13.829  0.00  0.00    +0.000 N 
ATOM      8  C   UNL     1       6.319   4.625  14.880  0.00  0.00    +0.000 C 
ATOM      9  O   UNL     1       7.521   4.866  14.879  0.00  0.00    +0.000 OA
ATOM     10  H   UNL     1       4.695   3.787  13.884  0.00  0.00    +0.000 HD
BRANCH   7  11
ATOM     11  C   UNL     1       6.395   3.559  12.633  0.00  0.00    +0.000 C 
BRANCH  11  13
ATOM     12  C   UNL     1       6.419   1.483  11.162  0.00  0.00    +0.000 C 
ATOM     13  C   UNL     1       5.587   2.617  11.741  0.00  0.00    +0.000 C 
ENDBRANCH  11  13
ENDBRANCH   7  11
ENDBRANCH   1   8
BRANCH   4  14
ATOM     14  S   UNL     1       2.454   5.511  19.514  0.00  0.00    +0.000 S 
ATOM     15  C   UNL     1       2.288   7.312  19.637  0.00  0.00    +0.000 C 
ENDBRANCH   4  14
BRANCH   6  16
ATOM     16  O   UNL     1       6.317   7.247  16.719  0.00  0.00    +0.000 OA
ATOM     17  C   UNL     1       7.480   7.406  17.508  0.00  0.00    +0.000 C 
ENDBRANCH   6  16
TORSDOF 5
ENDMDL
MODEL 7
REMARK VINA RESULT:      -6.0      3.073      4.678
REMARK  Name = 
REMARK  8 active torsions:
REMARK  status: ('A' for Active; 'I' for Inactive)
REMARK    1  A    between atoms: C_1  and  C_2
REMARK    2  A    between atoms: C_2  and  C_3
REMARK    3  A    between atoms: C_3  and  N_4
REMARK    4  A    between atoms: C_5  and  C_7
REMARK    5  A    between atoms: C_10  and  S_11
REMARK    6  A    between atoms: S_11  and  C_12
REMARK    7  A    between atoms: C_14  and  O_15
REMARK    8  A    between atoms: O_15  and  C_16
REMARK                            x       y       z     vdW  Elec       q    Type
REMARK                         _______ _______ _______ _____ _____    ______ ____
ROOT
ATOM      1  C   UNL     1       4.221   5.619  17.266  0.00  0.00    +0.000 A 
ATOM      2  C   UNL     1       4.256   4.249  16.931  0.00  0.00    +0.000 A 
ATOM      3  C   UNL     1       3.290   3.356  17.402  0.00  0.00    +0.000 A 
ATOM      4  C   UNL     1       2.277   3.799  18.248  0.00  0.00    +0.000 A 
ATOM      5  C   UNL     1       2.251   5.152  18.596  0.00  0.00    +0.000 A 
ATOM      6  C   UNL     1       3.206   6.081  18.120  0.00  0.00    +0.000 A 
ENDROOT
BRANCH   1   8
ATOM      7  N   UNL     1       6.346   6.771  17.546  0.00  0.00    +0.000 N 
ATOM      8  C   UNL     1       5.316   6.436  16.679  0.00  0.00    +0.000 C 
ATOM      9  O   UNL     1       5.285   6.818  15.514  0.00  0.00    +0.000 OA
ATOM     10  H   UNL     1       6.319   6.442  18.503  0.00  0.00    +0.000 HD
BRANCH   7  11
ATOM     11  C   UNL     1       7.483   7.573  17.134  0.00  0.00    +0.000 C 
BRANCH  11  13
ATOM     12  C   UNL     1       8.528   9.638  18.190  0.00  0.00    +0.000 C 
ATOM     13  C   UNL     1       8.287   8.140  18.303  0.00  0.00    +0.000 C 
ENDBRANCH  11  13
ENDBRANCH   7  11
ENDBRANCH   1   8
BRANCH   4  14
ATOM     14  S   UNL     1       1.050   2.608  18.764  0.00  0.00    +0.000 S 
ATOM     15  C   UNL     1       1.084   2.773  20.569  0.00  0.00    +0.000 C 
ENDBRANCH   4  14
BRANCH   6  16
ATOM     16  O   UNL     1       2.907   7.328  18.590  0.00  0.00    +0.000 OA
ATOM     17  C   UNL     1       2.257   8.293  17.786  0.00  0.00    +0.000 C 
ENDBRANCH   6  16
TORSDOF 5
ENDMDL
MODEL 8
REMARK VINA RESULT:      -5.9      1.190      1.254
REMARK  Name = 
REMARK  8 active torsions:
REMARK  status: ('A' for Active; 'I' for Inactive)
REMARK    1  A    between atoms: C_1  and  C_2
REMARK    2  A    between atoms: C_2  and  C_3
REMARK    3  A    between atoms: C_3  and  N_4
REMARK    4  A    between atoms: C_5  and  C_7
REMARK    5  A    between atoms: C_10  and  S_11
REMARK    6  A    between atoms: S_11  and  C_12
REMARK    7  A    between atoms: C_14  and  O_15
REMARK    8  A    between atoms: O_15  and  C_16
REMARK                            x       y       z     vdW  Elec       q    Type
REMARK                         _______ _______ _______ _____ _____    ______ ____
ROOT
ATOM      1  C   UNL     1       5.618   4.513  16.961  0.00  0.00    +0.000 A 
ATOM      2  C   UNL     1       4.431   3.752  16.976  0.00  0.00    +0.000 A 
ATOM      3  C   UNL     1       3.548   3.795  18.058  0.00  0.00    +0.000 A 
ATOM      4  C   UNL     1       3.841   4.577  19.172  0.00  0.00    +0.000 A 
ATOM      5  C   UNL     1       5.025   5.318  19.167  0.00  0.00    +0.000 A 
ATOM      6  C   UNL     1       5.928   5.305  18.078  0.00  0.00    +0.000 A 
ENDROOT
BRANCH   1   8
ATOM      7  N   UNL     1       5.750   4.022  14.581  0.00  0.00    +0.000 N 
ATOM      8  C   UNL     1       6.445   4.359  15.734  0.00  0.00    +0.000 C 
ATOM      9  O   UNL     1       7.664   4.484  15.756  0.00  0.00    +0.000 OA
ATOM     10  H   UNL     1       4.745   3.918  14.618  0.00  0.00    +0.000 HD
BRANCH   7  11
ATOM     11  C   UNL     1       6.410   3.823  13.304  0.00  0.00    +0.000 C 
BRANCH  11  13
ATOM     12  C   UNL     1       5.884   2.063  11.543  0.00  0.00    +0.000 C 
ATOM     13  C   UNL     1       5.464   3.374  12.191  0.00  0.00    +0.000 C 
ENDBRANCH  11  13
ENDBRANCH   7  11
ENDBRANCH   1   8
BRANCH   4  14
ATOM     14  S   UNL     1       2.637   4.622  20.491  0.00  0.00    +0.000 S 
ATOM     15  C   UNL     1       1.194   3.832  19.725  0.00  0.00    +0.000 C 
ENDBRANCH   4  14
BRANCH   6  16
ATOM     16  O   UNL     1       6.970   6.150  18.336  0.00  0.00    +0.000 OA
ATOM     17  C   UNL     1       7.162   7.344  17.603  0.00  0.00    +0.000 C 
ENDBRANCH   6  16
TORSDOF 5
ENDMDL
MODEL 9
REMARK VINA RESULT:      -5.9      3.114      5.782
REMARK  Name = 
REMARK  8 active torsions:
REMARK  status: ('A' for Active; 'I' for Inactive)
REMARK    1  A    between atoms: C_1  and  C_2
REMARK    2  A    between atoms: C_2  and  C_3
REMARK    3  A    between atoms: C_3  and  N_4
REMARK    4  A    between atoms: C_5  and  C_7
REMARK    5  A    between atoms: C_10  and  S_11
REMARK    6  A    between atoms: S_11  and  C_12
REMARK    7  A    between atoms: C_14  and  O_15
REMARK    8  A    between atoms: O_15  and  C_16
REMARK                            x       y       z     vdW  Elec       q    Type
REMARK                         _______ _______ _______ _____ _____    ______ ____
ROOT
ATOM      1  C   UNL     1       4.692   4.538  18.351  0.00  0.00    +0.000 A 
ATOM      2  C   UNL     1       4.102   4.322  17.088  0.00  0.00    +0.000 A 
ATOM      3  C   UNL     1       4.852   4.380  15.911  0.00  0.00    +0.000 A 
ATOM      4  C   UNL     1       6.209   4.688  15.957  0.00  0.00    +0.000 A 
ATOM      5  C   UNL     1       6.792   4.919  17.205  0.00  0.00    +0.000 A 
ATOM      6  C   UNL     1       6.059   4.850  18.414  0.00  0.00    +0.000 A 
ENDROOT
BRANCH   1   8
ATOM      7  N   UNL     1       3.414   3.145  19.883  0.00  0.00    +0.000 N 
ATOM      8  C   UNL     1       3.758   4.434  19.504  0.00  0.00    +0.000 C 
ATOM      9  O   UNL     1       3.295   5.428  20.052  0.00  0.00    +0.000 OA
ATOM     10  H   UNL     1       3.813   2.357  19.390  0.00  0.00    +0.000 HD
BRANCH   7  11
ATOM     11  C   UNL     1       2.504   2.871  20.980  0.00  0.00    +0.000 C 
BRANCH  11  13
ATOM     12  C   UNL     1       0.796   2.577  19.118  0.00  0.00    +0.000 C 
ATOM     13  C   UNL     1       1.030   2.925  20.580  0.00  0.00    +0.000 C 
ENDBRANCH  11  13
ENDBRANCH   7  11
ENDBRANCH   1   8
BRANCH   4  14
ATOM     14  S   UNL     1       7.110   4.690  14.415  0.00  0.00    +0.000 S 
ATOM     15  C   UNL     1       6.023   3.726  13.330  0.00  0.00    +0.000 C 
ENDBRANCH   4  14
BRANCH   6  16
ATOM     16  O   UNL     1       6.894   5.082  19.470  0.00  0.00    +0.000 OA
ATOM     17  C   UNL     1       8.065   5.863  19.339  0.00  0.00    +0.000 C 
ENDBRANCH   6  16
TORSDOF 5
ENDMDL
