MODEL 1
REMARK VINA RESULT:      -8.5      0.000      0.000
REMARK  Name = 
REMARK  7 active torsions:
REMARK  status: ('A' for Active; 'I' for Inactive)
REMARK    1  A    between atoms: C_1  and  O_2
REMARK    2  A    between atoms: O_2  and  C_3
REMARK    3  A    between atoms: C_6  and  O_7
REMARK    4  A    between atoms: O_7  and  C_8
REMARK    5  A    between atoms: C_8  and  C_9
REMARK    6  A    between atoms: C_15  and  C_16
REMARK    7  A    between atoms: C_23  and  C_24
REMARK                            x       y       z     vdW  Elec       q    Type
REMARK                         _______ _______ _______ _____ _____    ______ ____
ROOT
ATOM      1  C   UNL     1       3.306   3.696  19.379  0.00  0.00    +0.000 A 
ATOM      2  C   UNL     1       3.437   4.779  18.491  0.00  0.00    +0.000 A 
ATOM      3  C   UNL     1       2.893   6.048  18.783  0.00  0.00    +0.000 A 
ATOM      4  C   UNL     1       3.064   7.202  17.989  0.00  0.00    +0.000 A 
ATOM      5  N   UNL     1       2.542   8.414  18.297  0.00  0.00    +0.000 NA
ATOM      6  C   UNL     1       1.824   8.505  19.434  0.00  0.00    +0.000 A 
ATOM      7  C   UNL     1       1.604   7.447  20.288  0.00  0.00    +0.000 A 
ATOM      8  C   UNL     1       2.149   6.200  19.970  0.00  0.00    +0.000 A 
ATOM      9  C   UNL     1       1.975   5.100  20.827  0.00  0.00    +0.000 A 
ATOM     10  C   UNL     1       2.551   3.855  20.549  0.00  0.00    +0.000 A 
ENDROOT
BRANCH  10  11
ATOM     11  C   UNL     1       2.321   2.793  21.586  0.00  0.00    +0.000 C 
ATOM     12  N   UNL     1       1.046   2.577  22.031  0.00  0.00    +0.000 N 
ATOM     13  O   UNL     1       3.251   2.129  22.029  0.00  0.00    +0.000 OA
ATOM     14  H   UNL     1       0.268   3.130  21.700  0.00  0.00    +0.000 HD
ATOM     15  H   UNL     1       0.904   1.851  22.721  0.00  0.00    +0.000 HD
ENDBRANCH  10  11
BRANCH   1  17
ATOM     16  C   UNL     1       3.276   1.759  18.038  0.00  0.00    +0.000 C 
ATOM     17  O   UNL     1       3.884   2.477  19.114  0.00  0.00    +0.000 OA
ENDBRANCH   1  17
BRANCH   4  18
ATOM     18  O   UNL     1       3.812   7.108  16.818  0.00  0.00    +0.000 OA
BRANCH  18  19
ATOM     19  C   UNL     1       5.158   7.551  17.042  0.00  0.00    +0.000 C 
BRANCH  19  20
ATOM     20  C   UNL     1       6.218   6.586  16.514  0.00  0.00    +0.000 C 
ATOM     21  N   UNL     1       7.066   5.969  17.502  0.00  0.00    +0.000 N 
ATOM     22  C   UNL     1       7.463   4.696  17.156  0.00  0.00    +0.000 C 
ATOM     23  O   UNL     1       8.301   4.023  17.730  0.00  0.00    +0.000 OA
ATOM     24  C   UNL     1       6.602   4.228  16.030  0.00  0.00    +0.000 C 
ATOM     25  F   UNL     1       5.942   3.018  16.215  0.00  0.00    +0.000 F 
ATOM     26  C   UNL     1       6.562   4.794  14.633  0.00  0.00    +0.000 C 
ATOM     27  C   UNL     1       5.895   4.024  13.543  0.00  0.00    +0.000 C 
ATOM     28  C   UNL     1       5.709   5.419  15.707  0.00  0.00    +0.000 C 
ATOM     29  H   UNL     1       7.337   6.372  18.388  0.00  0.00    +0.000 HD
ENDBRANCH  19  20
ENDBRANCH  18  19
ENDBRANCH   4  18
TORSDOF 5
ENDMDL
MODEL 2
REMARK VINA RESULT:      -8.4      3.489      7.278
REMARK  Name = 
REMARK  7 active torsions:
REMARK  status: ('A' for Active; 'I' for Inactive)
REMARK    1  A    between atoms: C_1  and  O_2
REMARK    2  A    between atoms: O_2  and  C_3
REMARK    3  A    between atoms: C_6  and  O_7
REMARK    4  A    between atoms: O_7  and  C_8
REMARK    5  A    between atoms: C_8  and  C_9
REMARK    6  A    between atoms: C_15  and  C_16
REMARK    7  A    between atoms: C_23  and  C_24
REMARK                            x       y       z     vdW  Elec       q    Type
REMARK                         _______ _______ _______ _____ _____    ______ ____
ROOT
ATOM      1  C   UNL     1       5.670   6.138  16.671  0.00  0.00    +0.000 A 
ATOM      2  C   UNL     1       4.731   6.267  17.710  0.00  0.00    +0.000 A 
ATOM      3  C   UNL     1       3.764   5.270  17.965  0.00  0.00    +0.000 A 
ATOM      4  C   UNL     1       2.854   5.284  19.044  0.00  0.00    +0.000 A 
ATOM      5  N   UNL     1       1.943   4.308  19.274  0.00  0.00    +0.000 NA
ATOM      6  C   UNL     1       1.921   3.270  18.416  0.00  0.00    +0.000 A 
ATOM      7  C   UNL     1       2.770   3.149  17.338  0.00  0.00    +0.000 A 
ATOM      8  C   UNL     1       3.712   4.154  17.106  0.00  0.00    +0.000 A 
ATOM      9  C   UNL     1       4.617   4.058  16.036  0.00  0.00    +0.000 A 
ATOM     10  C   UNL     1       5.598   5.031  15.814  0.00  0.00    +0.000 A 
ENDROOT
BRANCH  10  11
ATOM     11  C   UNL     1       6.525   4.761  14.664  0.00  0.00    +0.000 C 
ATOM     12  N   UNL     1       7.775   5.315  14.686  0.00  0.00    +0.000 N 
ATOM     13  O   UNL     1       6.177   4.059  13.721  0.00  0.00    +0.000 OA
ATOM     14  H   UNL     1       8.074   5.919  15.439  0.00  0.00    +0.000 HD
ATOM     15  H   UNL     1       8.393   5.117  13.910  0.00  0.00    +0.000 HD
ENDBRANCH  10  11
BRANCH   1  17
ATOM     16  C   UNL     1       7.485   7.324  17.592  0.00  0.00    +0.000 C 
ATOM     17  O   UNL     1       6.643   7.086  16.462  0.00  0.00    +0.000 OA
ENDBRANCH   1  17
BRANCH   4  18
ATOM     18  O   UNL     1       2.883   6.355  19.934  0.00  0.00    +0.000 OA
BRANCH  18  19
ATOM     19  C   UNL     1       2.279   7.516  19.346  0.00  0.00    +0.000 C 
BRANCH  19  20
ATOM     20  C   UNL     1       1.233   8.181  20.238  0.00  0.00    +0.000 C 
ATOM     21  N   UNL     1       1.565   8.293  21.636  0.00  0.00    +0.000 N 
ATOM     22  C   UNL     1       1.036   9.418  22.230  0.00  0.00    +0.000 C 
ATOM     23  O   UNL     1       1.030   9.666  23.423  0.00  0.00    +0.000 OA
ATOM     24  C   UNL     1       0.579  10.344  21.152  0.00  0.00    +0.000 C 
ATOM     25  F   UNL     1       1.083  11.640  21.193  0.00  0.00    +0.000 F 
ATOM     26  C   UNL     1      -0.546  10.104  20.178  0.00  0.00    +0.000 C 
ATOM     27  C   UNL     1      -1.086  11.244  19.379  0.00  0.00    +0.000 C 
ATOM     28  C   UNL     1       0.832   9.583  19.857  0.00  0.00    +0.000 C 
ATOM     29  H   UNL     1       2.153   7.659  22.159  0.00  0.00    +0.000 HD
ENDBRANCH  19  20
ENDBRANCH  18  19
ENDBRANCH   4  18
TORSDOF 5
ENDMDL
MODEL 3
REMARK VINA RESULT:      -8.4      2.976      7.150
REMARK  Name = 
REMARK  7 active torsions:
REMARK  status: ('A' for Active; 'I' for Inactive)
REMARK    1  A    between atoms: C_1  and  O_2
REMARK    2  A    between atoms: O_2  and  C_3
REMARK    3  A    between atoms: C_6  and  O_7
REMARK    4  A    between atoms: O_7  and  C_8
REMARK    5  A    between atoms: C_8  and  C_9
REMARK    6  A    between atoms: C_15  and  C_16
REMARK    7  A    between atoms: C_23  and  C_24
REMARK                            x       y       z     vdW  Elec       q    Type
REMARK                         _______ _______ _______ _____ _____    ______ ____
ROOT
ATOM      1  C   UNL     1       5.424   5.761  16.830  0.00  0.00    +0.000 A 
ATOM      2  C   UNL     1       4.624   5.676  17.984  0.00  0.00    +0.000 A 
ATOM      3  C   UNL     1       3.912   4.501  18.307  0.00  0.00    +0.000 A 
ATOM      4  C   UNL     1       3.168   4.308  19.491  0.00  0.00    +0.000 A 
ATOM      5  N   UNL     1       2.502   3.165  19.785  0.00  0.00    +0.000 NA
ATOM      6  C   UNL     1       2.568   2.164  18.885  0.00  0.00    +0.000 A 
ATOM      7  C   UNL     1       3.274   2.240  17.705  0.00  0.00    +0.000 A 
ATOM      8  C   UNL     1       3.964   3.418  17.407  0.00  0.00    +0.000 A 
ATOM      9  C   UNL     1       4.720   3.529  16.229  0.00  0.00    +0.000 A 
ATOM     10  C   UNL     1       5.456   4.683  15.934  0.00  0.00    +0.000 A 
ENDROOT
BRANCH  10  11
ATOM     11  C   UNL     1       6.256   4.631  14.665  0.00  0.00    +0.000 C 
ATOM     12  N   UNL     1       7.487   5.227  14.642  0.00  0.00    +0.000 N 
ATOM     13  O   UNL     1       5.824   4.067  13.666  0.00  0.00    +0.000 OA
ATOM     14  H   UNL     1       7.853   5.720  15.444  0.00  0.00    +0.000 HD
ATOM     15  H   UNL     1       8.021   5.175  13.784  0.00  0.00    +0.000 HD
ENDBRANCH  10  11
BRANCH   1  17
ATOM     16  C   UNL     1       7.201   7.162  17.487  0.00  0.00    +0.000 C 
ATOM     17  O   UNL     1       6.158   6.890  16.548  0.00  0.00    +0.000 OA
ENDBRANCH   1  17
BRANCH   4  18
ATOM     18  O   UNL     1       3.106   5.341  20.422  0.00  0.00    +0.000 OA
BRANCH  18  19
ATOM     19  C   UNL     1       1.811   5.959  20.406  0.00  0.00    +0.000 C 
BRANCH  19  20
ATOM     20  C   UNL     1       1.856   7.483  20.498  0.00  0.00    +0.000 C 
ATOM     21  N   UNL     1       1.971   8.194  19.250  0.00  0.00    +0.000 N 
ATOM     22  C   UNL     1       1.332   9.414  19.262  0.00  0.00    +0.000 C 
ATOM     23  O   UNL     1       1.409  10.275  18.403  0.00  0.00    +0.000 OA
ATOM     24  C   UNL     1       0.428   9.457  20.450  0.00  0.00    +0.000 C 
ATOM     25  F   UNL     1      -0.908   9.756  20.202  0.00  0.00    +0.000 F 
ATOM     26  C   UNL     1       0.845   9.453  21.898  0.00  0.00    +0.000 C 
ATOM     27  C   UNL     1      -0.146   9.820  22.952  0.00  0.00    +0.000 C 
ATOM     28  C   UNL     1       0.681   8.142  21.174  0.00  0.00    +0.000 C 
ATOM     29  H   UNL     1       2.428   7.858  18.414  0.00  0.00    +0.000 HD
ENDBRANCH  19  20
ENDBRANCH  18  19
ENDBRANCH   4  18
TORSDOF 5
ENDMDL
MODEL 4
REMARK VINA RESULT:      -8.4      2.470      4.406
REMARK  Name = 
REMARK  7 active torsions:
REMARK  status: ('A' for Active; 'I' for Inactive)
REMARK    1  A    between atoms: C_1  and  O_2
REMARK    2  A    between atoms: O_2  and  C_3
REMARK    3  A    between atoms: C_6  and  O_7
REMARK    4  A    between atoms: O_7  and  C_8
REMARK    5  A    between atoms: C_8  and  C_9
REMARK    6  A    between atoms: C_15  and  C_16
REMARK    7  A    between atoms: C_23  and  C_24
REMARK                            x       y       z     vdW  Elec       q    Type
REMARK                         _______ _______ _______ _____ _____    ______ ____
ROOT
ATOM      1  C   UNL     1       2.158   7.499  19.321  0.00  0.00    +0.000 A 
ATOM      2  C   UNL     1       2.609   6.394  18.576  0.00  0.00    +0.000 A 
ATOM      3  C   UNL     1       2.346   5.068  18.983  0.00  0.00    +0.000 A 
ATOM      4  C   UNL     1       2.682   3.915  18.242  0.00  0.00    +0.000 A 
ATOM      5  N   UNL     1       2.408   2.652  18.648  0.00  0.00    +0.000 NA
ATOM      6  C   UNL     1       1.776   2.507  19.829  0.00  0.00    +0.000 A 
ATOM      7  C   UNL     1       1.392   3.563  20.627  0.00  0.00    +0.000 A 
ATOM      8  C   UNL     1       1.671   4.864  20.202  0.00  0.00    +0.000 A 
ATOM      9  C   UNL     1       1.272   5.972  20.970  0.00  0.00    +0.000 A 
ATOM     10  C   UNL     1       1.500   7.284  20.540  0.00  0.00    +0.000 A 
ENDROOT
BRANCH  10  11
ATOM     11  C   UNL     1       0.968   8.359  21.442  0.00  0.00    +0.000 C 
ATOM     12  N   UNL     1       1.853   9.079  22.197  0.00  0.00    +0.000 N 
ATOM     13  O   UNL     1      -0.233   8.596  21.506  0.00  0.00    +0.000 OA
ATOM     14  H   UNL     1       2.845   8.885  22.180  0.00  0.00    +0.000 HD
ATOM     15  H   UNL     1       1.483   9.808  22.792  0.00  0.00    +0.000 HD
ENDBRANCH  10  11
BRANCH   1  17
ATOM     16  C   UNL     1       1.475   9.220  17.864  0.00  0.00    +0.000 C 
ATOM     17  O   UNL     1       2.370   8.788  18.891  0.00  0.00    +0.000 OA
ENDBRANCH   1  17
BRANCH   4  18
ATOM     18  O   UNL     1       3.330   4.067  17.019  0.00  0.00    +0.000 OA
BRANCH  18  19
ATOM     19  C   UNL     1       4.316   3.040  16.840  0.00  0.00    +0.000 C 
BRANCH  19  20
ATOM     20  C   UNL     1       5.739   3.575  16.686  0.00  0.00    +0.000 C 
ATOM     21  N   UNL     1       6.121   3.998  15.363  0.00  0.00    +0.000 N 
ATOM     22  C   UNL     1       7.015   5.047  15.367  0.00  0.00    +0.000 C 
ATOM     23  O   UNL     1       7.614   5.485  14.401  0.00  0.00    +0.000 OA
ATOM     24  C   UNL     1       7.033   5.639  16.738  0.00  0.00    +0.000 C 
ATOM     25  F   UNL     1       6.790   7.006  16.825  0.00  0.00    +0.000 F 
ATOM     26  C   UNL     1       7.523   4.974  17.998  0.00  0.00    +0.000 C 
ATOM     27  C   UNL     1       7.775   5.798  19.217  0.00  0.00    +0.000 C 
ATOM     28  C   UNL     1       6.101   4.754  17.553  0.00  0.00    +0.000 C 
ATOM     29  H   UNL     1       5.768   3.624  14.494  0.00  0.00    +0.000 HD
ENDBRANCH  19  20
ENDBRANCH  18  19
ENDBRANCH   4  18
TORSDOF 5
ENDMDL
MODEL 5
REMARK VINA RESULT:      -8.2      2.457      4.522
REMARK  Name = 
REMARK  7 active torsions:
REMARK  status: ('A' for Active; 'I' for Inactive)
REMARK    1  A    between atoms: C_1  and  O_2
REMARK    2  A    between atoms: O_2  and  C_3
REMARK    3  A    between atoms: C_6  and  O_7
REMARK    4  A    between atoms: O_7  and  C_8
REMARK    5  A    between atoms: C_8  and  C_9
REMARK    6  A    between atoms: C_15  and  C_16
REMARK    7  A    between atoms: C_23  and  C_24
REMARK                            x       y       z     vdW  Elec       q    Type
REMARK                         _______ _______ _______ _____ _____    ______ ____
ROOT
ATOM      1  C   UNL     1       2.263   7.200  19.115  0.00  0.00    +0.000 A 
ATOM      2  C   UNL     1       2.569   5.965  18.515  0.00  0.00    +0.000 A 
ATOM      3  C   UNL     1       2.216   4.739  19.118  0.00  0.00    +0.000 A 
ATOM      4  C   UNL     1       2.404   3.468  18.533  0.00  0.00    +0.000 A 
ATOM      5  N   UNL     1       2.045   2.304  19.128  0.00  0.00    +0.000 NA
ATOM      6  C   UNL     1       1.474   2.384  20.346  0.00  0.00    +0.000 A 
ATOM      7  C   UNL     1       1.233   3.571  21.003  0.00  0.00    +0.000 A 
ATOM      8  C   UNL     1       1.600   4.769  20.384  0.00  0.00    +0.000 A 
ATOM      9  C   UNL     1       1.346   6.004  21.004  0.00  0.00    +0.000 A 
ATOM     10  C   UNL     1       1.663   7.217  20.382  0.00  0.00    +0.000 A 
ENDROOT
BRANCH  10  11
ATOM     11  C   UNL     1       1.283   8.452  21.146  0.00  0.00    +0.000 C 
ATOM     12  N   UNL     1       2.005   8.783  22.259  0.00  0.00    +0.000 N 
ATOM     13  O   UNL     1       0.346   9.157  20.786  0.00  0.00    +0.000 OA
ATOM     14  H   UNL     1       2.764   8.204  22.590  0.00  0.00    +0.000 HD
ATOM     15  H   UNL     1       1.745   9.623  22.759  0.00  0.00    +0.000 HD
ENDBRANCH  10  11
BRANCH   1  17
ATOM     16  C   UNL     1       1.562   8.844  17.581  0.00  0.00    +0.000 C 
ATOM     17  O   UNL     1       2.561   8.391  18.497  0.00  0.00    +0.000 OA
ENDBRANCH   1  17
BRANCH   4  18
ATOM     18  O   UNL     1       2.989   3.387  17.272  0.00  0.00    +0.000 OA
BRANCH  18  19
ATOM     19  C   UNL     1       4.371   3.017  17.379  0.00  0.00    +0.000 C 
BRANCH  19  20
ATOM     20  C   UNL     1       5.332   4.066  16.822  0.00  0.00    +0.000 C 
ATOM     21  N   UNL     1       4.831   4.880  15.744  0.00  0.00    +0.000 N 
ATOM     22  C   UNL     1       5.345   6.158  15.748  0.00  0.00    +0.000 C 
ATOM     23  O   UNL     1       5.212   6.989  14.866  0.00  0.00    +0.000 OA
ATOM     24  C   UNL     1       5.989   6.399  17.072  0.00  0.00    +0.000 C 
ATOM     25  F   UNL     1       5.561   7.520  17.776  0.00  0.00    +0.000 F 
ATOM     26  C   UNL     1       7.213   5.707  17.615  0.00  0.00    +0.000 C 
ATOM     27  C   UNL     1       7.917   6.276  18.802  0.00  0.00    +0.000 C 
ATOM     28  C   UNL     1       5.860   5.073  17.810  0.00  0.00    +0.000 C 
ATOM     29  H   UNL     1       4.145   4.601  15.057  0.00  0.00    +0.000 HD
ENDBRANCH  19  20
ENDBRANCH  18  19
ENDBRANCH   4  18
TORSDOF 5
ENDMDL
MODEL 6
REMARK VINA RESULT:      -8.0      3.672      7.368
REMARK  Name = 
REMARK  7 active torsions:
REMARK  status: ('A' for Active; 'I' for Inactive)
REMARK    1  A    between atoms: C_1  and  O_2
REMARK    2  A    between atoms: O_2  and  C_3
REMARK    3  A    between atoms: C_6  and  O_7
REMARK    4  A    between atoms: O_7  and  C_8
REMARK    5  A    between atoms: C_8  and  C_9
REMARK    6  A    between atoms: C_15  and  C_16
REMARK    7  A    between atoms: C_23  and  C_24
REMARK                            x       y       z     vdW  Elec       q    Type
REMARK                         _______ _______ _______ _____ _____    ______ ____
ROOT
ATOM      1  C   UNL     1       5.330   6.285  16.847  0.00  0.00    +0.000 A 
ATOM      2  C   UNL     1       4.296   6.701  17.705  0.00  0.00    +0.000 A 
ATOM      3  C   UNL     1       3.358   5.788  18.233  0.00  0.00    +0.000 A 
ATOM      4  C   UNL     1       2.355   6.113  19.171  0.00  0.00    +0.000 A 
ATOM      5  N   UNL     1       1.473   5.215  19.673  0.00  0.00    +0.000 NA
ATOM      6  C   UNL     1       1.576   3.942  19.243  0.00  0.00    +0.000 A 
ATOM      7  C   UNL     1       2.524   3.513  18.340  0.00  0.00    +0.000 A 
ATOM      8  C   UNL     1       3.435   4.441  17.828  0.00  0.00    +0.000 A 
ATOM      9  C   UNL     1       4.437   4.042  16.927  0.00  0.00    +0.000 A 
ATOM     10  C   UNL     1       5.388   4.945  16.439  0.00  0.00    +0.000 A 
ENDROOT
BRANCH  10  11
ATOM     11  C   UNL     1       6.426   4.358  15.527  0.00  0.00    +0.000 C 
ATOM     12  N   UNL     1       7.746   4.529  15.841  0.00  0.00    +0.000 N 
ATOM     13  O   UNL     1       6.106   3.735  14.520  0.00  0.00    +0.000 OA
ATOM     14  H   UNL     1       8.034   5.060  16.650  0.00  0.00    +0.000 HD
ATOM     15  H   UNL     1       8.435   4.119  15.224  0.00  0.00    +0.000 HD
ENDBRANCH  10  11
BRANCH   1  17
ATOM     16  C   UNL     1       7.197   7.623  17.371  0.00  0.00    +0.000 C 
ATOM     17  O   UNL     1       6.274   7.170  16.379  0.00  0.00    +0.000 OA
ENDBRANCH   1  17
BRANCH   4  18
ATOM     18  O   UNL     1       2.254   7.428  19.619  0.00  0.00    +0.000 OA
BRANCH  18  19
ATOM     19  C   UNL     1       1.694   7.469  20.940  0.00  0.00    +0.000 C 
BRANCH  19  20
ATOM     20  C   UNL     1       0.542   8.461  21.087  0.00  0.00    +0.000 C 
ATOM     21  N   UNL     1       0.374   9.055  22.389  0.00  0.00    +0.000 N 
ATOM     22  C   UNL     1      -0.113  10.343  22.337  0.00  0.00    +0.000 C 
ATOM     23  O   UNL     1      -0.494  11.006  23.286  0.00  0.00    +0.000 OA
ATOM     24  C   UNL     1       0.017  10.836  20.934  0.00  0.00    +0.000 C 
ATOM     25  F   UNL     1       0.703  12.033  20.760  0.00  0.00    +0.000 F 
ATOM     26  C   UNL     1      -0.716  10.313  19.726  0.00  0.00    +0.000 C 
ATOM     27  C   UNL     1      -0.721  11.110  18.464  0.00  0.00    +0.000 C 
ATOM     28  C   UNL     1       0.565   9.647  20.157  0.00  0.00    +0.000 C 
ATOM     29  H   UNL     1       0.613   8.628  23.273  0.00  0.00    +0.000 HD
ENDBRANCH  19  20
ENDBRANCH  18  19
ENDBRANCH   4  18
TORSDOF 5
ENDMDL
MODEL 7
REMARK VINA RESULT:      -8.0      3.374      7.131
REMARK  Name = 
REMARK  7 active torsions:
REMARK  status: ('A' for Active; 'I' for Inactive)
REMARK    1  A    between atoms: C_1  and  O_2
REMARK    2  A    between atoms: O_2  and  C_3
REMARK    3  A    between atoms: C_6  and  O_7
REMARK    4  A    between atoms: O_7  and  C_8
REMARK    5  A    between atoms: C_8  and  C_9
REMARK    6  A    between atoms: C_15  and  C_16
REMARK    7  A    between atoms: C_23  and  C_24
REMARK                            x       y       z     vdW  Elec       q    Type
REMARK                         _______ _______ _______ _____ _____    ______ ____
ROOT
ATOM      1  C   UNL     1       5.648   6.485  17.413  0.00  0.00    +0.000 A 
ATOM      2  C   UNL     1       4.460   6.852  18.069  0.00  0.00    +0.000 A 
ATOM      3  C   UNL     1       3.729   5.932  18.851  0.00  0.00    +0.000 A 
ATOM      4  C   UNL     1       2.585   6.249  19.614  0.00  0.00    +0.000 A 
ATOM      5  N   UNL     1       1.907   5.350  20.367  0.00  0.00    +0.000 NA
ATOM      6  C   UNL     1       2.369   4.084  20.380  0.00  0.00    +0.000 A 
ATOM      7  C   UNL     1       3.482   3.667  19.684  0.00  0.00    +0.000 A 
ATOM      8  C   UNL     1       4.182   4.599  18.912  0.00  0.00    +0.000 A 
ATOM      9  C   UNL     1       5.340   4.225  18.210  0.00  0.00    +0.000 A 
ATOM     10  C   UNL     1       6.080   5.152  17.468  0.00  0.00    +0.000 A 
ENDROOT
BRANCH  10  11
ATOM     11  C   UNL     1       7.321   4.613  16.817  0.00  0.00    +0.000 C 
ATOM     12  N   UNL     1       7.439   4.700  15.458  0.00  0.00    +0.000 N 
ATOM     13  O   UNL     1       8.217   4.106  17.484  0.00  0.00    +0.000 OA
ATOM     14  H   UNL     1       6.703   5.089  14.886  0.00  0.00    +0.000 HD
ATOM     15  H   UNL     1       8.284   4.343  15.033  0.00  0.00    +0.000 HD
ENDBRANCH  10  11
BRANCH   1  17
ATOM     16  C   UNL     1       7.428   8.028  17.444  0.00  0.00    +0.000 C 
ATOM     17  O   UNL     1       6.384   7.400  16.697  0.00  0.00    +0.000 OA
ENDBRANCH   1  17
BRANCH   4  18
ATOM     18  O   UNL     1       2.113   7.559  19.604  0.00  0.00    +0.000 OA
BRANCH  18  19
ATOM     19  C   UNL     1       1.498   7.883  20.859  0.00  0.00    +0.000 C 
BRANCH  19  20
ATOM     20  C   UNL     1       0.596   9.115  20.801  0.00  0.00    +0.000 C 
ATOM     21  N   UNL     1       1.049  10.272  21.531  0.00  0.00    +0.000 N 
ATOM     22  C   UNL     1       0.681  11.462  20.942  0.00  0.00    +0.000 C 
ATOM     23  O   UNL     1       0.796  12.572  21.432  0.00  0.00    +0.000 OA
ATOM     24  C   UNL     1       0.231  11.174  19.549  0.00  0.00    +0.000 C 
ATOM     25  F   UNL     1       0.860  11.888  18.534  0.00  0.00    +0.000 F 
ATOM     26  C   UNL     1      -0.986  10.384  19.142  0.00  0.00    +0.000 C 
ATOM     27  C   UNL     1      -1.476  10.455  17.734  0.00  0.00    +0.000 C 
ATOM     28  C   UNL     1       0.304   9.658  19.426  0.00  0.00    +0.000 C 
ATOM     29  H   UNL     1       1.613  10.262  22.369  0.00  0.00    +0.000 HD
ENDBRANCH  19  20
ENDBRANCH  18  19
ENDBRANCH   4  18
TORSDOF 5
ENDMDL
MODEL 8
REMARK VINA RESULT:      -7.9      2.244      3.082
REMARK  Name = 
REMARK  7 active torsions:
REMARK  status: ('A' for Active; 'I' for Inactive)
REMARK    1  A    between atoms: C_1  and  O_2
REMARK    2  A    between atoms: O_2  and  C_3
REMARK    3  A    between atoms: C_6  and  O_7
REMARK    4  A    between atoms: O_7  and  C_8
REMARK    5  A    between atoms: C_8  and  C_9
REMARK    6  A    between atoms: C_15  and  C_16
REMARK    7  A    between atoms: C_23  and  C_24
REMARK                            x       y       z     vdW  Elec       q    Type
REMARK                         _______ _______ _______ _____ _____    ______ ____
ROOT
ATOM      1  C   UNL     1       3.492   2.886  18.951  0.00  0.00    +0.000 A 
ATOM      2  C   UNL     1       4.554   3.577  18.340  0.00  0.00    +0.000 A 
ATOM      3  C   UNL     1       4.424   4.921  17.928  0.00  0.00    +0.000 A 
ATOM      4  C   UNL     1       5.469   5.707  17.396  0.00  0.00    +0.000 A 
ATOM      5  N   UNL     1       5.323   7.000  17.019  0.00  0.00    +0.000 NA
ATOM      6  C   UNL     1       4.103   7.553  17.172  0.00  0.00    +0.000 A 
ATOM      7  C   UNL     1       3.018   6.882  17.690  0.00  0.00    +0.000 A 
ATOM      8  C   UNL     1       3.173   5.550  18.083  0.00  0.00    +0.000 A 
ATOM      9  C   UNL     1       2.101   4.837  18.644  0.00  0.00    +0.000 A 
ATOM     10  C   UNL     1       2.248   3.517  19.086  0.00  0.00    +0.000 A 
ENDROOT
BRANCH  10  11
ATOM     11  C   UNL     1       1.027   2.907  19.712  0.00  0.00    +0.000 C 
ATOM     12  N   UNL     1       0.936   2.877  21.076  0.00  0.00    +0.000 N 
ATOM     13  O   UNL     1       0.126   2.444  19.022  0.00  0.00    +0.000 OA
ATOM     14  H   UNL     1       1.677   3.228  21.665  0.00  0.00    +0.000 HD
ATOM     15  H   UNL     1       0.103   2.472  21.484  0.00  0.00    +0.000 HD
ENDBRANCH  10  11
BRANCH   1  17
ATOM     16  C   UNL     1       4.673   1.425  20.373  0.00  0.00    +0.000 C 
ATOM     17  O   UNL     1       3.641   1.594  19.399  0.00  0.00    +0.000 OA
ENDBRANCH   1  17
BRANCH   4  18
ATOM     18  O   UNL     1       6.730   5.136  17.246  0.00  0.00    +0.000 OA
BRANCH  18  19
ATOM     19  C   UNL     1       6.713   4.141  16.212  0.00  0.00    +0.000 C 
BRANCH  19  20
ATOM     20  C   UNL     1       6.500   4.714  14.812  0.00  0.00    +0.000 C 
ATOM     21  N   UNL     1       7.585   5.492  14.270  0.00  0.00    +0.000 N 
ATOM     22  C   UNL     1       7.696   5.386  12.901  0.00  0.00    +0.000 C 
ATOM     23  O   UNL     1       8.416   6.057  12.184  0.00  0.00    +0.000 OA
ATOM     24  C   UNL     1       6.874   4.222  12.454  0.00  0.00    +0.000 C 
ATOM     25  F   UNL     1       7.527   3.257  11.695  0.00  0.00    +0.000 F 
ATOM     26  C   UNL     1       5.374   4.100  12.527  0.00  0.00    +0.000 C 
ATOM     27  C   UNL     1       4.683   3.025  11.756  0.00  0.00    +0.000 C 
ATOM     28  C   UNL     1       6.205   3.714  13.724  0.00  0.00    +0.000 C 
ATOM     29  H   UNL     1       8.245   6.042  14.801  0.00  0.00    +0.000 HD
ENDBRANCH  19  20
ENDBRANCH  18  19
ENDBRANCH   4  18
TORSDOF 5
ENDMDL
MODEL 9
REMARK VINA RESULT:      -7.8      2.966      7.113
REMARK  Name = 
REMARK  7 active torsions:
REMARK  status: ('A' for Active; 'I' for Inactive)
REMARK    1  A    between atoms: C_1  and  O_2
REMARK    2  A    between atoms: O_2  and  C_3
REMARK    3  A    between atoms: C_6  and  O_7
REMARK    4  A    between atoms: O_7  and  C_8
REMARK    5  A    between atoms: C_8  and  C_9
REMARK    6  A    between atoms: C_15  and  C_16
REMARK    7  A    between atoms: C_23  and  C_24
REMARK                            x       y       z     vdW  Elec       q    Type
REMARK                         _______ _______ _______ _____ _____    ______ ____
ROOT
ATOM      1  C   UNL     1       5.192   5.996  16.855  0.00  0.00    +0.000 A 
ATOM      2  C   UNL     1       3.928   5.945  17.470  0.00  0.00    +0.000 A 
ATOM      3  C   UNL     1       3.309   4.719  17.794  0.00  0.00    +0.000 A 
ATOM      4  C   UNL     1       2.090   4.590  18.494  0.00  0.00    +0.000 A 
ATOM      5  N   UNL     1       1.521   3.400  18.805  0.00  0.00    +0.000 NA
ATOM      6  C   UNL     1       2.173   2.286  18.419  0.00  0.00    +0.000 A 
ATOM      7  C   UNL     1       3.373   2.295  17.743  0.00  0.00    +0.000 A 
ATOM      8  C   UNL     1       3.959   3.524  17.428  0.00  0.00    +0.000 A 
ATOM      9  C   UNL     1       5.197   3.581  16.765  0.00  0.00    +0.000 A 
ATOM     10  C   UNL     1       5.823   4.800  16.482  0.00  0.00    +0.000 A 
ENDROOT
BRANCH  10  11
ATOM     11  C   UNL     1       7.165   4.697  15.818  0.00  0.00    +0.000 C 
ATOM     12  N   UNL     1       7.319   5.221  14.565  0.00  0.00    +0.000 N 
ATOM     13  O   UNL     1       8.111   4.156  16.382  0.00  0.00    +0.000 OA
ATOM     14  H   UNL     1       6.548   5.647  14.070  0.00  0.00    +0.000 HD
ATOM     15  H   UNL     1       8.231   5.154  14.133  0.00  0.00    +0.000 HD
ENDBRANCH  10  11
BRANCH   1  17
ATOM     16  C   UNL     1       6.856   7.530  17.509  0.00  0.00    +0.000 C 
ATOM     17  O   UNL     1       5.814   7.193  16.591  0.00  0.00    +0.000 OA
ENDBRANCH   1  17
BRANCH   4  18
ATOM     18  O   UNL     1       1.421   5.743  18.897  0.00  0.00    +0.000 OA
BRANCH  18  19
ATOM     19  C   UNL     1       1.793   6.100  20.236  0.00  0.00    +0.000 C 
BRANCH  19  20
ATOM     20  C   UNL     1       1.820   7.607  20.484  0.00  0.00    +0.000 C 
ATOM     21  N   UNL     1       1.871   8.445  19.313  0.00  0.00    +0.000 N 
ATOM     22  C   UNL     1       1.215   9.645  19.478  0.00  0.00    +0.000 C 
ATOM     23  O   UNL     1       1.242  10.591  18.710  0.00  0.00    +0.000 OA
ATOM     24  C   UNL     1       0.362   9.548  20.699  0.00  0.00    +0.000 C 
ATOM     25  F   UNL     1      -0.987   9.845  20.539  0.00  0.00    +0.000 F 
ATOM     26  C   UNL     1       0.841   9.404  22.121  0.00  0.00    +0.000 C 
ATOM     27  C   UNL     1      -0.109   9.641  23.248  0.00  0.00    +0.000 C 
ATOM     28  C   UNL     1       0.666   8.171  21.272  0.00  0.00    +0.000 C 
ATOM     29  H   UNL     1       2.296   8.205  18.428  0.00  0.00    +0.000 HD
ENDBRANCH  19  20
ENDBRANCH  18  19
ENDBRANCH   4  18
TORSDOF 5
ENDMDL
