MODEL 1
REMARK VINA RESULT:      -5.6      0.000      0.000
REMARK  Name = 
REMARK  11 active torsions:
REMARK  status: ('A' for Active; 'I' for Inactive)
REMARK    1  A    between atoms: C_1  and  C_2
REMARK    2  A    between atoms: C_2  and  C_3
REMARK    3  A    between atoms: C_3  and  C_4
REMARK    4  A    between atoms: C_4  and  C_5
REMARK    5  A    between atoms: C_5  and  C_6
REMARK    6  A    between atoms: C_6  and  C_7
REMARK    7  A    between atoms: C_7  and  C_8
REMARK    8  A    between atoms: C_8  and  N_9
REMARK    9  A    between atoms: N_9  and  C_10
REMARK   10  A    between atoms: C_10  and  C_11
REMARK   11  A    between atoms: C_14  and  O_15
REMARK                            x       y       z     vdW  Elec       q    Type
REMARK                         _______ _______ _______ _____ _____    ______ ____
ROOT
ATOM      1  N   UNL     1       2.379   2.574  17.310  0.00  0.00    +0.000 NA
ATOM      2  H   UNL     1       2.419   3.286  16.581  0.00  0.00    +0.000 HD
ENDROOT
BRANCH   1   3
ATOM      3  C   UNL     1       1.385   2.937  18.311  0.00  0.00    +0.000 C 
BRANCH   3   4
ATOM      4  C   UNL     1       1.744   2.250  19.625  0.00  0.00    +0.000 C 
BRANCH   4   5
ATOM      5  C   UNL     1       1.205   3.039  20.813  0.00  0.00    +0.000 C 
BRANCH   5   6
ATOM      6  C   UNL     1       1.047   4.513  20.461  0.00  0.00    +0.000 C 
BRANCH   6   7
ATOM      7  C   UNL     1       2.372   5.250  20.630  0.00  0.00    +0.000 C 
BRANCH   7   8
ATOM      8  C   UNL     1       2.326   6.616  19.951  0.00  0.00    +0.000 C 
BRANCH   8  10
ATOM      9  C   UNL     1       2.898   7.758  17.791  0.00  0.00    +0.000 C 
ATOM     10  C   UNL     1       2.396   6.475  18.434  0.00  0.00    +0.000 C 
ENDBRANCH   8  10
ENDBRANCH   7   8
ENDBRANCH   6   7
ENDBRANCH   5   6
ENDBRANCH   4   5
ENDBRANCH   3   4
ENDBRANCH   1   3
BRANCH   1  11
ATOM     11  C   UNL     1       3.704   2.426  17.900  0.00  0.00    +0.000 C 
BRANCH  11  12
ATOM     12  C   UNL     1       4.550   3.646  17.626  0.00  0.00    +0.000 A 
ATOM     13  C   UNL     1       4.622   4.192  16.335  0.00  0.00    +0.000 A 
ATOM     14  C   UNL     1       5.385   5.336  16.089  0.00  0.00    +0.000 A 
ATOM     15  C   UNL     1       6.076   5.937  17.137  0.00  0.00    +0.000 A 
ATOM     16  C   UNL     1       6.026   5.407  18.419  0.00  0.00    +0.000 A 
ATOM     17  C   UNL     1       5.268   4.262  18.664  0.00  0.00    +0.000 A 
BRANCH  15  18
ATOM     18  O   UNL     1       6.823   7.061  16.945  0.00  0.00    +0.000 OA
ATOM     19  H   UNL     1       6.596   7.704  17.639  0.00  0.00    +0.000 HD
ENDBRANCH  15  18
ENDBRANCH  11  12
ENDBRANCH   1  11
TORSDOF 10
ENDMDL
MODEL 2
REMARK VINA RESULT:      -5.6      3.835      6.712
REMARK  Name = 
REMARK  11 active torsions:
REMARK  status: ('A' for Active; 'I' for Inactive)
REMARK    1  A    between atoms: C_1  and  C_2
REMARK    2  A    between atoms: C_2  and  C_3
REMARK    3  A    between atoms: C_3  and  C_4
REMARK    4  A    between atoms: C_4  and  C_5
REMARK    5  A    between atoms: C_5  and  C_6
REMARK    6  A    between atoms: C_6  and  C_7
REMARK    7  A    between atoms: C_7  and  C_8
REMARK    8  A    between atoms: C_8  and  N_9
REMARK    9  A    between atoms: N_9  and  C_10
REMARK   10  A    between atoms: C_10  and  C_11
REMARK   11  A    between atoms: C_14  and  O_15
REMARK                            x       y       z     vdW  Elec       q    Type
REMARK                         _______ _______ _______ _____ _____    ______ ____
ROOT
ATOM      1  N   UNL     1       4.879   5.500  16.199  0.00  0.00    +0.000 NA
ATOM      2  H   UNL     1       4.454   4.644  15.844  0.00  0.00    +0.000 HD
ENDROOT
BRANCH   1   3
ATOM      3  C   UNL     1       6.326   5.347  16.274  0.00  0.00    +0.000 C 
BRANCH   3   4
ATOM      4  C   UNL     1       6.742   4.208  15.347  0.00  0.00    +0.000 C 
BRANCH   4   5
ATOM      5  C   UNL     1       5.807   4.118  14.147  0.00  0.00    +0.000 C 
BRANCH   5   6
ATOM      6  C   UNL     1       6.566   3.701  12.894  0.00  0.00    +0.000 C 
BRANCH   6   7
ATOM      7  C   UNL     1       5.637   2.989  11.916  0.00  0.00    +0.000 C 
BRANCH   7   8
ATOM      8  C   UNL     1       4.316   3.741  11.775  0.00  0.00    +0.000 C 
BRANCH   8  10
ATOM      9  C   UNL     1       2.971   4.120   9.691  0.00  0.00    +0.000 C 
ATOM     10  C   UNL     1       3.430   3.095  10.715  0.00  0.00    +0.000 C 
ENDBRANCH   8  10
ENDBRANCH   7   8
ENDBRANCH   6   7
ENDBRANCH   5   6
ENDBRANCH   4   5
ENDBRANCH   3   4
ENDBRANCH   1   3
BRANCH   1  11
ATOM     11  C   UNL     1       4.305   5.808  17.504  0.00  0.00    +0.000 C 
BRANCH  11  12
ATOM     12  C   UNL     1       3.252   4.792  17.876  0.00  0.00    +0.000 A 
ATOM     13  C   UNL     1       2.365   5.036  18.936  0.00  0.00    +0.000 A 
ATOM     14  C   UNL     1       1.375   4.105  19.262  0.00  0.00    +0.000 A 
ATOM     15  C   UNL     1       1.271   2.930  18.526  0.00  0.00    +0.000 A 
ATOM     16  C   UNL     1       2.145   2.665  17.480  0.00  0.00    +0.000 A 
ATOM     17  C   UNL     1       3.136   3.592  17.157  0.00  0.00    +0.000 A 
BRANCH  15  18
ATOM     18  O   UNL     1       0.313   2.000  18.801  0.00  0.00    +0.000 OA
ATOM     19  H   UNL     1       0.221   1.414  18.031  0.00  0.00    +0.000 HD
ENDBRANCH  15  18
ENDBRANCH  11  12
ENDBRANCH   1  11
TORSDOF 10
ENDMDL
MODEL 3
REMARK VINA RESULT:      -5.4      3.118      6.086
REMARK  Name = 
REMARK  11 active torsions:
REMARK  status: ('A' for Active; 'I' for Inactive)
REMARK    1  A    between atoms: C_1  and  C_2
REMARK    2  A    between atoms: C_2  and  C_3
REMARK    3  A    between atoms: C_3  and  C_4
REMARK    4  A    between atoms: C_4  and  C_5
REMARK    5  A    between atoms: C_5  and  C_6
REMARK    6  A    between atoms: C_6  and  C_7
REMARK    7  A    between atoms: C_7  and  C_8
REMARK    8  A    between atoms: C_8  and  N_9
REMARK    9  A    between atoms: N_9  and  C_10
REMARK   10  A    between atoms: C_10  and  C_11
REMARK   11  A    between atoms: C_14  and  O_15
REMARK                            x       y       z     vdW  Elec       q    Type
REMARK                         _______ _______ _______ _____ _____    ______ ____
ROOT
ATOM      1  N   UNL     1       6.639   4.349  18.291  0.00  0.00    +0.000 NA
ATOM      2  H   UNL     1       7.130   3.500  18.575  0.00  0.00    +0.000 HD
ENDROOT
BRANCH   1   3
ATOM      3  C   UNL     1       7.590   5.437  18.103  0.00  0.00    +0.000 C 
BRANCH   3   4
ATOM      4  C   UNL     1       7.328   6.082  16.745  0.00  0.00    +0.000 C 
BRANCH   4   5
ATOM      5  C   UNL     1       6.928   5.031  15.715  0.00  0.00    +0.000 C 
BRANCH   5   6
ATOM      6  C   UNL     1       5.520   5.289  15.192  0.00  0.00    +0.000 C 
BRANCH   6   7
ATOM      7  C   UNL     1       5.143   4.253  14.138  0.00  0.00    +0.000 C 
BRANCH   7   8
ATOM      8  C   UNL     1       6.352   3.880  13.284  0.00  0.00    +0.000 C 
BRANCH   8  10
ATOM      9  C   UNL     1       4.535   3.412  11.617  0.00  0.00    +0.000 C 
ATOM     10  C   UNL     1       5.933   3.038  12.083  0.00  0.00    +0.000 C 
ENDBRANCH   8  10
ENDBRANCH   7   8
ENDBRANCH   6   7
ENDBRANCH   5   6
ENDBRANCH   4   5
ENDBRANCH   3   4
ENDBRANCH   1   3
BRANCH   1  11
ATOM     11  C   UNL     1       5.639   4.678  19.299  0.00  0.00    +0.000 C 
BRANCH  11  12
ATOM     12  C   UNL     1       4.343   3.954  19.022  0.00  0.00    +0.000 A 
ATOM     13  C   UNL     1       3.430   4.456  18.082  0.00  0.00    +0.000 A 
ATOM     14  C   UNL     1       2.243   3.770  17.809  0.00  0.00    +0.000 A 
ATOM     15  C   UNL     1       1.971   2.580  18.477  0.00  0.00    +0.000 A 
ATOM     16  C   UNL     1       2.856   2.073  19.418  0.00  0.00    +0.000 A 
ATOM     17  C   UNL     1       4.039   2.759  19.693  0.00  0.00    +0.000 A 
BRANCH  15  18
ATOM     18  O   UNL     1       0.831   1.873  18.233  0.00  0.00    +0.000 OA
ATOM     19  H   UNL     1       0.503   2.110  17.349  0.00  0.00    +0.000 HD
ENDBRANCH  15  18
ENDBRANCH  11  12
ENDBRANCH   1  11
TORSDOF 10
ENDMDL
MODEL 4
REMARK VINA RESULT:      -5.4      3.402      6.365
REMARK  Name = 
REMARK  11 active torsions:
REMARK  status: ('A' for Active; 'I' for Inactive)
REMARK    1  A    between atoms: C_1  and  C_2
REMARK    2  A    between atoms: C_2  and  C_3
REMARK    3  A    between atoms: C_3  and  C_4
REMARK    4  A    between atoms: C_4  and  C_5
REMARK    5  A    between atoms: C_5  and  C_6
REMARK    6  A    between atoms: C_6  and  C_7
REMARK    7  A    between atoms: C_7  and  C_8
REMARK    8  A    between atoms: C_8  and  N_9
REMARK    9  A    between atoms: N_9  and  C_10
REMARK   10  A    between atoms: C_10  and  C_11
REMARK   11  A    between atoms: C_14  and  O_15
REMARK                            x       y       z     vdW  Elec       q    Type
REMARK                         _______ _______ _______ _____ _____    ______ ____
ROOT
ATOM      1  N   UNL     1       6.154   4.024  18.666  0.00  0.00    +0.000 NA
ATOM      2  H   UNL     1       6.912   3.905  19.339  0.00  0.00    +0.000 HD
ENDROOT
BRANCH   1   3
ATOM      3  C   UNL     1       6.629   4.767  17.506  0.00  0.00    +0.000 C 
BRANCH   3   4
ATOM      4  C   UNL     1       5.522   4.789  16.456  0.00  0.00    +0.000 C 
BRANCH   4   5
ATOM      5  C   UNL     1       5.970   5.549  15.214  0.00  0.00    +0.000 C 
BRANCH   5   6
ATOM      6  C   UNL     1       6.654   4.616  14.221  0.00  0.00    +0.000 C 
BRANCH   6   7
ATOM      7  C   UNL     1       5.620   3.900  13.359  0.00  0.00    +0.000 C 
BRANCH   7   8
ATOM      8  C   UNL     1       6.289   3.176  12.194  0.00  0.00    +0.000 C 
BRANCH   8  10
ATOM      9  C   UNL     1       3.984   3.196  11.203  0.00  0.00    +0.000 C 
ATOM     10  C   UNL     1       5.265   2.397  11.375  0.00  0.00    +0.000 C 
ENDBRANCH   8  10
ENDBRANCH   7   8
ENDBRANCH   6   7
ENDBRANCH   5   6
ENDBRANCH   4   5
ENDBRANCH   3   4
ENDBRANCH   1   3
BRANCH   1  11
ATOM     11  C   UNL     1       5.041   4.702  19.318  0.00  0.00    +0.000 C 
BRANCH  11  12
ATOM     12  C   UNL     1       3.750   3.955  19.084  0.00  0.00    +0.000 A 
ATOM     13  C   UNL     1       2.584   4.640  18.710  0.00  0.00    +0.000 A 
ATOM     14  C   UNL     1       1.397   3.944  18.469  0.00  0.00    +0.000 A 
ATOM     15  C   UNL     1       1.377   2.559  18.601  0.00  0.00    +0.000 A 
ATOM     16  C   UNL     1       2.517   1.863  18.980  0.00  0.00    +0.000 A 
ATOM     17  C   UNL     1       3.700   2.558  19.224  0.00  0.00    +0.000 A 
BRANCH  15  18
ATOM     18  O   UNL     1       0.244   1.838  18.365  0.00  0.00    +0.000 OA
ATOM     19  H   UNL     1       0.443   1.162  17.694  0.00  0.00    +0.000 HD
ENDBRANCH  15  18
ENDBRANCH  11  12
ENDBRANCH   1  11
TORSDOF 10
ENDMDL
MODEL 5
REMARK VINA RESULT:      -5.4      1.734      2.593
REMARK  Name = 
REMARK  11 active torsions:
REMARK  status: ('A' for Active; 'I' for Inactive)
REMARK    1  A    between atoms: C_1  and  C_2
REMARK    2  A    between atoms: C_2  and  C_3
REMARK    3  A    between atoms: C_3  and  C_4
REMARK    4  A    between atoms: C_4  and  C_5
REMARK    5  A    between atoms: C_5  and  C_6
REMARK    6  A    between atoms: C_6  and  C_7
REMARK    7  A    between atoms: C_7  and  C_8
REMARK    8  A    between atoms: C_8  and  N_9
REMARK    9  A    between atoms: N_9  and  C_10
REMARK   10  A    between atoms: C_10  and  C_11
REMARK   11  A    between atoms: C_14  and  O_15
REMARK                            x       y       z     vdW  Elec       q    Type
REMARK                         _______ _______ _______ _____ _____    ______ ____
ROOT
ATOM      1  N   UNL     1       5.371   2.868  19.389  0.00  0.00    +0.000 NA
ATOM      2  H   UNL     1       5.806   2.349  18.625  0.00  0.00    +0.000 HD
ENDROOT
BRANCH   1   3
ATOM      3  C   UNL     1       4.051   2.322  19.674  0.00  0.00    +0.000 C 
BRANCH   3   4
ATOM      4  C   UNL     1       3.613   1.465  18.490  0.00  0.00    +0.000 C 
BRANCH   4   5
ATOM      5  C   UNL     1       2.302   1.978  17.906  0.00  0.00    +0.000 C 
BRANCH   5   6
ATOM      6  C   UNL     1       1.312   2.326  19.011  0.00  0.00    +0.000 C 
BRANCH   6   7
ATOM      7  C   UNL     1       0.967   3.811  18.973  0.00  0.00    +0.000 C 
BRANCH   7   8
ATOM      8  C   UNL     1       1.676   4.506  17.814  0.00  0.00    +0.000 C 
BRANCH   8  10
ATOM      9  C   UNL     1       2.332   5.959  19.752  0.00  0.00    +0.000 C 
ATOM     10  C   UNL     1       2.211   5.870  18.239  0.00  0.00    +0.000 C 
ENDBRANCH   8  10
ENDBRANCH   7   8
ENDBRANCH   6   7
ENDBRANCH   5   6
ENDBRANCH   4   5
ENDBRANCH   3   4
ENDBRANCH   1   3
BRANCH   1  11
ATOM     11  C   UNL     1       5.302   4.278  19.027  0.00  0.00    +0.000 C 
BRANCH  11  12
ATOM     12  C   UNL     1       5.798   4.491  17.616  0.00  0.00    +0.000 A 
ATOM     13  C   UNL     1       5.017   4.103  16.517  0.00  0.00    +0.000 A 
ATOM     14  C   UNL     1       5.467   4.325  15.213  0.00  0.00    +0.000 A 
ATOM     15  C   UNL     1       6.699   4.938  15.008  0.00  0.00    +0.000 A 
ATOM     16  C   UNL     1       7.491   5.321  16.083  0.00  0.00    +0.000 A 
ATOM     17  C   UNL     1       7.044   5.095  17.384  0.00  0.00    +0.000 A 
BRANCH  15  18
ATOM     18  O   UNL     1       7.172   5.185  13.754  0.00  0.00    +0.000 OA
ATOM     19  H   UNL     1       7.495   6.101  13.720  0.00  0.00    +0.000 HD
ENDBRANCH  15  18
ENDBRANCH  11  12
ENDBRANCH   1  11
TORSDOF 10
ENDMDL
MODEL 6
REMARK VINA RESULT:      -5.4      4.206      6.875
REMARK  Name = 
REMARK  11 active torsions:
REMARK  status: ('A' for Active; 'I' for Inactive)
REMARK    1  A    between atoms: C_1  and  C_2
REMARK    2  A    between atoms: C_2  and  C_3
REMARK    3  A    between atoms: C_3  and  C_4
REMARK    4  A    between atoms: C_4  and  C_5
REMARK    5  A    between atoms: C_5  and  C_6
REMARK    6  A    between atoms: C_6  and  C_7
REMARK    7  A    between atoms: C_7  and  C_8
REMARK    8  A    between atoms: C_8  and  N_9
REMARK    9  A    between atoms: N_9  and  C_10
REMARK   10  A    between atoms: C_10  and  C_11
REMARK   11  A    between atoms: C_14  and  O_15
REMARK                            x       y       z     vdW  Elec       q    Type
REMARK                         _______ _______ _______ _____ _____    ______ ____
ROOT
ATOM      1  N   UNL     1       5.877   5.357  16.048  0.00  0.00    +0.000 NA
ATOM      2  H   UNL     1       6.692   5.945  16.226  0.00  0.00    +0.000 HD
ENDROOT
BRANCH   1   3
ATOM      3  C   UNL     1       5.603   5.304  14.618  0.00  0.00    +0.000 C 
BRANCH   3   4
ATOM      4  C   UNL     1       5.854   3.880  14.128  0.00  0.00    +0.000 C 
BRANCH   4   5
ATOM      5  C   UNL     1       6.414   3.886  12.711  0.00  0.00    +0.000 C 
BRANCH   5   6
ATOM      6  C   UNL     1       5.730   2.832  11.849  0.00  0.00    +0.000 C 
BRANCH   6   7
ATOM      7  C   UNL     1       4.244   3.142  11.703  0.00  0.00    +0.000 C 
BRANCH   7   8
ATOM      8  C   UNL     1       4.003   4.142  10.575  0.00  0.00    +0.000 C 
BRANCH   8  10
ATOM      9  C   UNL     1       2.256   4.894   8.939  0.00  0.00    +0.000 C 
ATOM     10  C   UNL     1       2.826   3.711   9.706  0.00  0.00    +0.000 C 
ENDBRANCH   8  10
ENDBRANCH   7   8
ENDBRANCH   6   7
ENDBRANCH   5   6
ENDBRANCH   4   5
ENDBRANCH   3   4
ENDBRANCH   1   3
BRANCH   1  11
ATOM     11  C   UNL     1       4.739   5.884  16.792  0.00  0.00    +0.000 C 
BRANCH  11  12
ATOM     12  C   UNL     1       3.875   4.760  17.311  0.00  0.00    +0.000 A 
ATOM     13  C   UNL     1       4.324   3.432  17.266  0.00  0.00    +0.000 A 
ATOM     14  C   UNL     1       3.532   2.397  17.770  0.00  0.00    +0.000 A 
ATOM     15  C   UNL     1       2.290   2.692  18.322  0.00  0.00    +0.000 A 
ATOM     16  C   UNL     1       1.823   3.999  18.368  0.00  0.00    +0.000 A 
ATOM     17  C   UNL     1       2.611   5.031  17.860  0.00  0.00    +0.000 A 
BRANCH  15  18
ATOM     18  O   UNL     1       1.489   1.715  18.836  0.00  0.00    +0.000 OA
ATOM     19  H   UNL     1       0.565   1.929  18.622  0.00  0.00    +0.000 HD
ENDBRANCH  15  18
ENDBRANCH  11  12
ENDBRANCH   1  11
TORSDOF 10
ENDMDL
MODEL 7
REMARK VINA RESULT:      -5.3      4.012      6.835
REMARK  Name = 
REMARK  11 active torsions:
REMARK  status: ('A' for Active; 'I' for Inactive)
REMARK    1  A    between atoms: C_1  and  C_2
REMARK    2  A    between atoms: C_2  and  C_3
REMARK    3  A    between atoms: C_3  and  C_4
REMARK    4  A    between atoms: C_4  and  C_5
REMARK    5  A    between atoms: C_5  and  C_6
REMARK    6  A    between atoms: C_6  and  C_7
REMARK    7  A    between atoms: C_7  and  C_8
REMARK    8  A    between atoms: C_8  and  N_9
REMARK    9  A    between atoms: N_9  and  C_10
REMARK   10  A    between atoms: C_10  and  C_11
REMARK   11  A    between atoms: C_14  and  O_15
REMARK                            x       y       z     vdW  Elec       q    Type
REMARK                         _______ _______ _______ _____ _____    ______ ____
ROOT
ATOM      1  N   UNL     1       5.674   3.653  16.508  0.00  0.00    +0.000 NA
ATOM      2  H   UNL     1       6.045   2.732  16.745  0.00  0.00    +0.000 HD
ENDROOT
BRANCH   1   3
ATOM      3  C   UNL     1       6.701   4.450  15.850  0.00  0.00    +0.000 C 
BRANCH   3   4
ATOM      4  C   UNL     1       6.251   4.738  14.420  0.00  0.00    +0.000 C 
BRANCH   4   5
ATOM      5  C   UNL     1       6.264   3.465  13.582  0.00  0.00    +0.000 C 
BRANCH   5   6
ATOM      6  C   UNL     1       5.821   3.749  12.152  0.00  0.00    +0.000 C 
BRANCH   6   7
ATOM      7  C   UNL     1       5.203   2.503  11.526  0.00  0.00    +0.000 C 
BRANCH   7   8
ATOM      8  C   UNL     1       3.777   2.778  11.059  0.00  0.00    +0.000 C 
BRANCH   8  10
ATOM      9  C   UNL     1       2.794   4.253   9.282  0.00  0.00    +0.000 C 
ATOM     10  C   UNL     1       3.635   4.208  10.548  0.00  0.00    +0.000 C 
ENDBRANCH   8  10
ENDBRANCH   7   8
ENDBRANCH   6   7
ENDBRANCH   5   6
ENDBRANCH   4   5
ENDBRANCH   3   4
ENDBRANCH   1   3
BRANCH   1  11
ATOM     11  C   UNL     1       5.191   4.298  17.723  0.00  0.00    +0.000 C 
BRANCH  11  12
ATOM     12  C   UNL     1       3.811   3.799  18.079  0.00  0.00    +0.000 A 
ATOM     13  C   UNL     1       2.680   4.596  17.845  0.00  0.00    +0.000 A 
ATOM     14  C   UNL     1       1.402   4.121  18.153  0.00  0.00    +0.000 A 
ATOM     15  C   UNL     1       1.255   2.848  18.693  0.00  0.00    +0.000 A 
ATOM     16  C   UNL     1       2.363   2.048  18.942  0.00  0.00    +0.000 A 
ATOM     17  C   UNL     1       3.639   2.523  18.639  0.00  0.00    +0.000 A 
BRANCH  15  18
ATOM     18  O   UNL     1       0.027   2.341  18.997  0.00  0.00    +0.000 OA
ATOM     19  H   UNL     1      -0.571   3.080  19.199  0.00  0.00    +0.000 HD
ENDBRANCH  15  18
ENDBRANCH  11  12
ENDBRANCH   1  11
TORSDOF 10
ENDMDL
MODEL 8
REMARK VINA RESULT:      -5.2      2.447      4.888
REMARK  Name = 
REMARK  11 active torsions:
REMARK  status: ('A' for Active; 'I' for Inactive)
REMARK    1  A    between atoms: C_1  and  C_2
REMARK    2  A    between atoms: C_2  and  C_3
REMARK    3  A    between atoms: C_3  and  C_4
REMARK    4  A    between atoms: C_4  and  C_5
REMARK    5  A    between atoms: C_5  and  C_6
REMARK    6  A    between atoms: C_6  and  C_7
REMARK    7  A    between atoms: C_7  and  C_8
REMARK    8  A    between atoms: C_8  and  N_9
REMARK    9  A    between atoms: N_9  and  C_10
REMARK   10  A    between atoms: C_10  and  C_11
REMARK   11  A    between atoms: C_14  and  O_15
REMARK                            x       y       z     vdW  Elec       q    Type
REMARK                         _______ _______ _______ _____ _____    ______ ____
ROOT
ATOM      1  N   UNL     1       2.731   6.584  20.175  0.00  0.00    +0.000 NA
ATOM      2  H   UNL     1       2.993   6.995  21.071  0.00  0.00    +0.000 HD
ENDROOT
BRANCH   1   3
ATOM      3  C   UNL     1       2.134   7.598  19.315  0.00  0.00    +0.000 C 
BRANCH   3   4
ATOM      4  C   UNL     1       2.551   7.319  17.874  0.00  0.00    +0.000 C 
BRANCH   4   5
ATOM      5  C   UNL     1       4.056   7.099  17.779  0.00  0.00    +0.000 C 
BRANCH   5   6
ATOM      6  C   UNL     1       4.371   5.772  17.097  0.00  0.00    +0.000 C 
BRANCH   6   7
ATOM      7  C   UNL     1       5.840   5.409  17.287  0.00  0.00    +0.000 C 
BRANCH   7   8
ATOM      8  C   UNL     1       6.735   6.625  17.068  0.00  0.00    +0.000 C 
BRANCH   8  10
ATOM      9  C   UNL     1       7.546   5.689  19.250  0.00  0.00    +0.000 C 
ATOM     10  C   UNL     1       7.719   6.795  18.222  0.00  0.00    +0.000 C 
ENDBRANCH   8  10
ENDBRANCH   7   8
ENDBRANCH   6   7
ENDBRANCH   5   6
ENDBRANCH   4   5
ENDBRANCH   3   4
ENDBRANCH   1   3
BRANCH   1  11
ATOM     11  C   UNL     1       1.815   5.475  20.411  0.00  0.00    +0.000 C 
BRANCH  11  12
ATOM     12  C   UNL     1       2.368   4.194  19.833  0.00  0.00    +0.000 A 
ATOM     13  C   UNL     1       1.700   3.533  18.791  0.00  0.00    +0.000 A 
ATOM     14  C   UNL     1       2.227   2.361  18.241  0.00  0.00    +0.000 A 
ATOM     15  C   UNL     1       3.425   1.852  18.733  0.00  0.00    +0.000 A 
ATOM     16  C   UNL     1       4.096   2.486  19.770  0.00  0.00    +0.000 A 
ATOM     17  C   UNL     1       3.568   3.652  20.322  0.00  0.00    +0.000 A 
BRANCH  15  18
ATOM     18  O   UNL     1       3.981   0.718  18.218  0.00  0.00    +0.000 OA
ATOM     19  H   UNL     1       4.615   0.973  17.526  0.00  0.00    +0.000 HD
ENDBRANCH  15  18
ENDBRANCH  11  12
ENDBRANCH   1  11
TORSDOF 10
ENDMDL
MODEL 9
REMARK VINA RESULT:      -5.2      1.799      3.180
REMARK  Name = 
REMARK  11 active torsions:
REMARK  status: ('A' for Active; 'I' for Inactive)
REMARK    1  A    between atoms: C_1  and  C_2
REMARK    2  A    between atoms: C_2  and  C_3
REMARK    3  A    between atoms: C_3  and  C_4
REMARK    4  A    between atoms: C_4  and  C_5
REMARK    5  A    between atoms: C_5  and  C_6
REMARK    6  A    between atoms: C_6  and  C_7
REMARK    7  A    between atoms: C_7  and  C_8
REMARK    8  A    between atoms: C_8  and  N_9
REMARK    9  A    between atoms: N_9  and  C_10
REMARK   10  A    between atoms: C_10  and  C_11
REMARK   11  A    between atoms: C_14  and  O_15
REMARK                            x       y       z     vdW  Elec       q    Type
REMARK                         _______ _______ _______ _____ _____    ______ ____
ROOT
ATOM      1  N   UNL     1       3.349   6.501  19.194  0.00  0.00    +0.000 NA
ATOM      2  H   UNL     1       3.421   7.181  19.951  0.00  0.00    +0.000 HD
ENDROOT
BRANCH   1   3
ATOM      3  C   UNL     1       2.025   5.893  19.193  0.00  0.00    +0.000 C 
BRANCH   3   4
ATOM      4  C   UNL     1       1.642   5.561  20.633  0.00  0.00    +0.000 C 
BRANCH   4   5
ATOM      5  C   UNL     1       1.239   4.097  20.762  0.00  0.00    +0.000 C 
BRANCH   5   6
ATOM      6  C   UNL     1       2.266   3.318  21.575  0.00  0.00    +0.000 C 
BRANCH   6   7
ATOM      7  C   UNL     1       3.085   2.404  20.670  0.00  0.00    +0.000 C 
BRANCH   7   8
ATOM      8  C   UNL     1       2.352   2.140  19.357  0.00  0.00    +0.000 C 
BRANCH   8  10
ATOM      9  C   UNL     1       2.662   3.009  17.024  0.00  0.00    +0.000 C 
ATOM     10  C   UNL     1       3.304   2.244  18.170  0.00  0.00    +0.000 C 
ENDBRANCH   8  10
ENDBRANCH   7   8
ENDBRANCH   6   7
ENDBRANCH   5   6
ENDBRANCH   4   5
ENDBRANCH   3   4
ENDBRANCH   1   3
BRANCH   1  11
ATOM     11  C   UNL     1       4.398   5.502  19.353  0.00  0.00    +0.000 C 
BRANCH  11  12
ATOM     12  C   UNL     1       5.266   5.437  18.119  0.00  0.00    +0.000 A 
ATOM     13  C   UNL     1       6.505   4.780  18.149  0.00  0.00    +0.000 A 
ATOM     14  C   UNL     1       7.294   4.700  16.998  0.00  0.00    +0.000 A 
ATOM     15  C   UNL     1       6.841   5.276  15.816  0.00  0.00    +0.000 A 
ATOM     16  C   UNL     1       5.623   5.939  15.768  0.00  0.00    +0.000 A 
ATOM     17  C   UNL     1       4.837   6.023  16.917  0.00  0.00    +0.000 A 
BRANCH  15  18
ATOM     18  O   UNL     1       7.573   5.212  14.667  0.00  0.00    +0.000 OA
ATOM     19  H   UNL     1       8.450   5.594  14.838  0.00  0.00    +0.000 HD
ENDBRANCH  15  18
ENDBRANCH  11  12
ENDBRANCH   1  11
TORSDOF 10
ENDMDL
