MODEL 1
REMARK VINA RESULT:      -7.0      0.000      0.000
REMARK  Name = 
REMARK  10 active torsions:
REMARK  status: ('A' for Active; 'I' for Inactive)
REMARK    1  A    between atoms: C_1  and  C_2
REMARK    2  A    between atoms: C_2  and  C_3
REMARK    3  A    between atoms: C_3  and  C_4
REMARK    4  A    between atoms: C_4  and  C_5
REMARK    5  A    between atoms: C_5  and  C_6
REMARK    6  A    between atoms: C_6  and  C_7
REMARK    7  A    between atoms: C_7  and  C_8
REMARK    8  A    between atoms: C_8  and  N_9
REMARK    9  A    between atoms: N_9  and  C_10
REMARK   10  A    between atoms: C_15  and  C_16
REMARK                            x       y       z     vdW  Elec       q    Type
REMARK                         _______ _______ _______ _____ _____    ______ ____
ROOT
ATOM      1  C   UNL     1       4.768   4.346  19.251  0.00  0.00    +0.000 A 
ATOM      2  C   UNL     1       4.432   5.698  19.137  0.00  0.00    +0.000 A 
ATOM      3  C   UNL     1       3.223   6.180  19.623  0.00  0.00    +0.000 A 
ATOM      4  C   UNL     1       2.318   5.311  20.223  0.00  0.00    +0.000 A 
ATOM      5  F   UNL     1       1.162   5.838  20.650  0.00  0.00    +0.000 F 
ATOM      6  C   UNL     1       2.604   3.951  20.365  0.00  0.00    +0.000 A 
ATOM      7  C   UNL     1       3.828   3.483  19.861  0.00  0.00    +0.000 A 
ATOM      8  F   UNL     1       4.157   2.183  19.987  0.00  0.00    +0.000 F 
ENDROOT
BRANCH   6   9
ATOM      9  C   UNL     1       1.610   3.069  21.041  0.00  0.00    +0.000 C 
ATOM     10  N   UNL     1       0.456   2.764  20.366  0.00  0.00    +0.000 N 
ATOM     11  O   UNL     1       1.787   2.613  22.156  0.00  0.00    +0.000 OA
ATOM     12  H   UNL     1       0.251   3.093  19.431  0.00  0.00    +0.000 HD
ATOM     13  H   UNL     1      -0.207   2.152  20.825  0.00  0.00    +0.000 HD
ENDBRANCH   6   9
BRANCH   1  14
ATOM     14  N   UNL     1       5.949   3.852  18.695  0.00  0.00    +0.000 N 
ATOM     15  H   UNL     1       6.322   3.002  19.110  0.00  0.00    +0.000 HD
BRANCH  14  16
ATOM     16  C   UNL     1       6.873   4.739  18.001  0.00  0.00    +0.000 C 
BRANCH  16  17
ATOM     17  C   UNL     1       6.997   4.337  16.539  0.00  0.00    +0.000 C 
BRANCH  17  18
ATOM     18  C   UNL     1       6.026   5.141  15.680  0.00  0.00    +0.000 C 
BRANCH  18  19
ATOM     19  C   UNL     1       6.366   4.997  14.203  0.00  0.00    +0.000 C 
BRANCH  19  20
ATOM     20  C   UNL     1       5.777   3.707  13.644  0.00  0.00    +0.000 C 
BRANCH  20  21
ATOM     21  C   UNL     1       6.381   3.397  12.280  0.00  0.00    +0.000 C 
BRANCH  21  23
ATOM     22  C   UNL     1       6.469   1.226  11.050  0.00  0.00    +0.000 C 
ATOM     23  C   UNL     1       5.565   2.331  11.561  0.00  0.00    +0.000 C 
ENDBRANCH  21  23
ENDBRANCH  20  21
ENDBRANCH  19  20
ENDBRANCH  18  19
ENDBRANCH  17  18
ENDBRANCH  16  17
ENDBRANCH  14  16
ENDBRANCH   1  14
TORSDOF 9
ENDMDL
MODEL 2
REMARK VINA RESULT:      -7.0      2.245      2.656
REMARK  Name = 
REMARK  10 active torsions:
REMARK  status: ('A' for Active; 'I' for Inactive)
REMARK    1  A    between atoms: C_1  and  C_2
REMARK    2  A    between atoms: C_2  and  C_3
REMARK    3  A    between atoms: C_3  and  C_4
REMARK    4  A    between atoms: C_4  and  C_5
REMARK    5  A    between atoms: C_5  and  C_6
REMARK    6  A    between atoms: C_6  and  C_7
REMARK    7  A    between atoms: C_7  and  C_8
REMARK    8  A    between atoms: C_8  and  N_9
REMARK    9  A    between atoms: N_9  and  C_10
REMARK   10  A    between atoms: C_15  and  C_16
REMARK                            x       y       z     vdW  Elec       q    Type
REMARK                         _______ _______ _______ _____ _____    ______ ____
ROOT
ATOM      1  C   UNL     1       4.131   5.456  18.007  0.00  0.00    +0.000 A 
ATOM      2  C   UNL     1       2.742   5.605  18.018  0.00  0.00    +0.000 A 
ATOM      3  C   UNL     1       1.916   4.606  18.516  0.00  0.00    +0.000 A 
ATOM      4  C   UNL     1       2.469   3.425  19.002  0.00  0.00    +0.000 A 
ATOM      5  F   UNL     1       1.614   2.493  19.448  0.00  0.00    +0.000 F 
ATOM      6  C   UNL     1       3.850   3.224  19.017  0.00  0.00    +0.000 A 
ATOM      7  C   UNL     1       4.666   4.244  18.503  0.00  0.00    +0.000 A 
ATOM      8  F   UNL     1       6.007   4.104  18.510  0.00  0.00    +0.000 F 
ENDROOT
BRANCH   6   9
ATOM      9  C   UNL     1       4.391   1.951  19.577  0.00  0.00    +0.000 C 
ATOM     10  N   UNL     1       4.321   0.825  18.796  0.00  0.00    +0.000 N 
ATOM     11  O   UNL     1       4.888   1.878  20.685  0.00  0.00    +0.000 OA
ATOM     12  H   UNL     1       3.938   0.816  17.859  0.00  0.00    +0.000 HD
ATOM     13  H   UNL     1       4.704  -0.031  19.176  0.00  0.00    +0.000 HD
ENDBRANCH   6   9
BRANCH   1  14
ATOM     14  N   UNL     1       4.953   6.429  17.438  0.00  0.00    +0.000 N 
ATOM     15  H   UNL     1       4.587   7.378  17.427  0.00  0.00    +0.000 HD
BRANCH  14  16
ATOM     16  C   UNL     1       5.957   6.069  16.446  0.00  0.00    +0.000 C 
BRANCH  16  17
ATOM     17  C   UNL     1       5.294   5.726  15.120  0.00  0.00    +0.000 C 
BRANCH  17  18
ATOM     18  C   UNL     1       5.498   4.252  14.787  0.00  0.00    +0.000 C 
BRANCH  18  19
ATOM     19  C   UNL     1       6.624   4.078  13.777  0.00  0.00    +0.000 C 
BRANCH  19  20
ATOM     20  C   UNL     1       6.108   3.397  12.515  0.00  0.00    +0.000 C 
BRANCH  20  21
ATOM     21  C   UNL     1       4.688   3.854  12.209  0.00  0.00    +0.000 C 
BRANCH  21  23
ATOM     22  C   UNL     1       3.252   3.858  10.165  0.00  0.00    +0.000 C 
ATOM     23  C   UNL     1       4.075   2.999  11.108  0.00  0.00    +0.000 C 
ENDBRANCH  21  23
ENDBRANCH  20  21
ENDBRANCH  19  20
ENDBRANCH  18  19
ENDBRANCH  17  18
ENDBRANCH  16  17
ENDBRANCH  14  16
ENDBRANCH   1  14
TORSDOF 9
ENDMDL
MODEL 3
REMARK VINA RESULT:      -6.9      3.905      6.254
REMARK  Name = 
REMARK  10 active torsions:
REMARK  status: ('A' for Active; 'I' for Inactive)
REMARK    1  A    between atoms: C_1  and  C_2
REMARK    2  A    between atoms: C_2  and  C_3
REMARK    3  A    between atoms: C_3  and  C_4
REMARK    4  A    between atoms: C_4  and  C_5
REMARK    5  A    between atoms: C_5  and  C_6
REMARK    6  A    between atoms: C_6  and  C_7
REMARK    7  A    between atoms: C_7  and  C_8
REMARK    8  A    between atoms: C_8  and  N_9
REMARK    9  A    between atoms: N_9  and  C_10
REMARK   10  A    between atoms: C_15  and  C_16
REMARK                            x       y       z     vdW  Elec       q    Type
REMARK                         _______ _______ _______ _____ _____    ______ ____
ROOT
ATOM      1  C   UNL     1       4.016   6.045  18.149  0.00  0.00    +0.000 A 
ATOM      2  C   UNL     1       4.178   6.939  17.086  0.00  0.00    +0.000 A 
ATOM      3  C   UNL     1       5.438   7.228  16.578  0.00  0.00    +0.000 A 
ATOM      4  C   UNL     1       6.567   6.635  17.136  0.00  0.00    +0.000 A 
ATOM      5  F   UNL     1       7.753   6.974  16.612  0.00  0.00    +0.000 F 
ATOM      6  C   UNL     1       6.461   5.732  18.196  0.00  0.00    +0.000 A 
ATOM      7  C   UNL     1       5.179   5.460  18.700  0.00  0.00    +0.000 A 
ATOM      8  F   UNL     1       5.024   4.584  19.712  0.00  0.00    +0.000 F 
ENDROOT
BRANCH   6   9
ATOM      9  C   UNL     1       7.700   5.103  18.737  0.00  0.00    +0.000 C 
ATOM     10  N   UNL     1       8.100   5.453  20.002  0.00  0.00    +0.000 N 
ATOM     11  O   UNL     1       8.359   4.297  18.105  0.00  0.00    +0.000 OA
ATOM     12  H   UNL     1       7.592   6.101  20.590  0.00  0.00    +0.000 HD
ATOM     13  H   UNL     1       8.933   5.010  20.368  0.00  0.00    +0.000 HD
ENDBRANCH   6   9
BRANCH   1  14
ATOM     14  N   UNL     1       2.758   5.815  18.705  0.00  0.00    +0.000 N 
ATOM     15  H   UNL     1       2.030   5.505  18.065  0.00  0.00    +0.000 HD
BRANCH  14  16
ATOM     16  C   UNL     1       2.350   6.489  19.931  0.00  0.00    +0.000 C 
BRANCH  16  17
ATOM     17  C   UNL     1       1.470   5.577  20.771  0.00  0.00    +0.000 C 
BRANCH  17  18
ATOM     18  C   UNL     1       2.256   4.353  21.233  0.00  0.00    +0.000 C 
BRANCH  18  19
ATOM     19  C   UNL     1       1.425   3.088  21.075  0.00  0.00    +0.000 C 
BRANCH  19  20
ATOM     20  C   UNL     1       0.708   3.084  19.730  0.00  0.00    +0.000 C 
BRANCH  20  21
ATOM     21  C   UNL     1       1.252   1.972  18.843  0.00  0.00    +0.000 C 
BRANCH  21  23
ATOM     22  C   UNL     1       3.627   2.025  18.070  0.00  0.00    +0.000 C 
ATOM     23  C   UNL     1       2.221   2.534  17.811  0.00  0.00    +0.000 C 
ENDBRANCH  21  23
ENDBRANCH  20  21
ENDBRANCH  19  20
ENDBRANCH  18  19
ENDBRANCH  17  18
ENDBRANCH  16  17
ENDBRANCH  14  16
ENDBRANCH   1  14
TORSDOF 9
ENDMDL
MODEL 4
REMARK VINA RESULT:      -6.9      1.767      1.810
REMARK  Name = 
REMARK  10 active torsions:
REMARK  status: ('A' for Active; 'I' for Inactive)
REMARK    1  A    between atoms: C_1  and  C_2
REMARK    2  A    between atoms: C_2  and  C_3
REMARK    3  A    between atoms: C_3  and  C_4
REMARK    4  A    between atoms: C_4  and  C_5
REMARK    5  A    between atoms: C_5  and  C_6
REMARK    6  A    between atoms: C_6  and  C_7
REMARK    7  A    between atoms: C_7  and  C_8
REMARK    8  A    between atoms: C_8  and  N_9
REMARK    9  A    between atoms: N_9  and  C_10
REMARK   10  A    between atoms: C_15  and  C_16
REMARK                            x       y       z     vdW  Elec       q    Type
REMARK                         _______ _______ _______ _____ _____    ______ ____
ROOT
ATOM      1  C   UNL     1       5.133   4.983  18.940  0.00  0.00    +0.000 A 
ATOM      2  C   UNL     1       4.574   6.133  18.377  0.00  0.00    +0.000 A 
ATOM      3  C   UNL     1       3.273   6.135  17.891  0.00  0.00    +0.000 A 
ATOM      4  C   UNL     1       2.507   4.975  17.948  0.00  0.00    +0.000 A 
ATOM      5  F   UNL     1       1.267   5.040  17.442  0.00  0.00    +0.000 F 
ATOM      6  C   UNL     1       3.015   3.798  18.503  0.00  0.00    +0.000 A 
ATOM      7  C   UNL     1       4.335   3.816  18.982  0.00  0.00    +0.000 A 
ATOM      8  F   UNL     1       4.864   2.710  19.540  0.00  0.00    +0.000 F 
ENDROOT
BRANCH   6   9
ATOM      9  C   UNL     1       2.141   2.592  18.565  0.00  0.00    +0.000 C 
ATOM     10  N   UNL     1       1.184   2.540  19.547  0.00  0.00    +0.000 N 
ATOM     11  O   UNL     1       2.243   1.664  17.784  0.00  0.00    +0.000 OA
ATOM     12  H   UNL     1       1.030   3.283  20.218  0.00  0.00    +0.000 HD
ATOM     13  H   UNL     1       0.584   1.726  19.573  0.00  0.00    +0.000 HD
ENDBRANCH   6   9
BRANCH   1  14
ATOM     14  N   UNL     1       6.463   4.963  19.359  0.00  0.00    +0.000 N 
ATOM     15  H   UNL     1       6.626   5.096  20.354  0.00  0.00    +0.000 HD
BRANCH  14  16
ATOM     16  C   UNL     1       7.539   5.304  18.437  0.00  0.00    +0.000 C 
BRANCH  16  17
ATOM     17  C   UNL     1       7.367   4.559  17.122  0.00  0.00    +0.000 C 
BRANCH  17  18
ATOM     18  C   UNL     1       7.227   5.544  15.965  0.00  0.00    +0.000 C 
BRANCH  18  19
ATOM     19  C   UNL     1       5.966   5.256  15.162  0.00  0.00    +0.000 C 
BRANCH  19  20
ATOM     20  C   UNL     1       5.999   3.838  14.606  0.00  0.00    +0.000 C 
BRANCH  20  21
ATOM     21  C   UNL     1       6.458   3.849  13.154  0.00  0.00    +0.000 C 
BRANCH  21  23
ATOM     22  C   UNL     1       5.867   2.066  11.507  0.00  0.00    +0.000 C 
ATOM     23  C   UNL     1       5.369   3.296  12.243  0.00  0.00    +0.000 C 
ENDBRANCH  21  23
ENDBRANCH  20  21
ENDBRANCH  19  20
ENDBRANCH  18  19
ENDBRANCH  17  18
ENDBRANCH  16  17
ENDBRANCH  14  16
ENDBRANCH   1  14
TORSDOF 9
ENDMDL
MODEL 5
REMARK VINA RESULT:      -6.9      1.093      1.257
REMARK  Name = 
REMARK  10 active torsions:
REMARK  status: ('A' for Active; 'I' for Inactive)
REMARK    1  A    between atoms: C_1  and  C_2
REMARK    2  A    between atoms: C_2  and  C_3
REMARK    3  A    between atoms: C_3  and  C_4
REMARK    4  A    between atoms: C_4  and  C_5
REMARK    5  A    between atoms: C_5  and  C_6
REMARK    6  A    between atoms: C_6  and  C_7
REMARK    7  A    between atoms: C_7  and  C_8
REMARK    8  A    between atoms: C_8  and  N_9
REMARK    9  A    between atoms: N_9  and  C_10
REMARK   10  A    between atoms: C_15  and  C_16
REMARK                            x       y       z     vdW  Elec       q    Type
REMARK                         _______ _______ _______ _____ _____    ______ ____
ROOT
ATOM      1  C   UNL     1       5.099   4.374  19.082  0.00  0.00    +0.000 A 
ATOM      2  C   UNL     1       4.613   5.684  19.037  0.00  0.00    +0.000 A 
ATOM      3  C   UNL     1       3.344   5.995  19.509  0.00  0.00    +0.000 A 
ATOM      4  C   UNL     1       2.529   4.992  20.027  0.00  0.00    +0.000 A 
ATOM      5  F   UNL     1       1.309   5.358  20.445  0.00  0.00    +0.000 F 
ATOM      6  C   UNL     1       2.966   3.668  20.098  0.00  0.00    +0.000 A 
ATOM      7  C   UNL     1       4.249   3.374  19.608  0.00  0.00    +0.000 A 
ATOM      8  F   UNL     1       4.721   2.114  19.669  0.00  0.00    +0.000 F 
ENDROOT
BRANCH   6   9
ATOM      9  C   UNL     1       2.063   2.639  20.688  0.00  0.00    +0.000 C 
ATOM     10  N   UNL     1       2.070   2.482  22.050  0.00  0.00    +0.000 N 
ATOM     11  O   UNL     1       1.325   1.944  20.012  0.00  0.00    +0.000 OA
ATOM     12  H   UNL     1       2.642   3.036  22.675  0.00  0.00    +0.000 HD
ATOM     13  H   UNL     1       1.443   1.792  22.445  0.00  0.00    +0.000 HD
ENDBRANCH   6   9
BRANCH   1  14
ATOM     14  N   UNL     1       6.343   4.053  18.539  0.00  0.00    +0.000 N 
ATOM     15  H   UNL     1       6.623   3.076  18.596  0.00  0.00    +0.000 HD
BRANCH  14  16
ATOM     16  C   UNL     1       7.390   5.060  18.428  0.00  0.00    +0.000 C 
BRANCH  16  17
ATOM     17  C   UNL     1       7.279   5.796  17.101  0.00  0.00    +0.000 C 
BRANCH  17  18
ATOM     18  C   UNL     1       6.866   4.836  15.990  0.00  0.00    +0.000 C 
BRANCH  18  19
ATOM     19  C   UNL     1       5.543   5.265  15.372  0.00  0.00    +0.000 C 
BRANCH  19  20
ATOM     20  C   UNL     1       5.235   4.427  14.137  0.00  0.00    +0.000 C 
BRANCH  20  21
ATOM     21  C   UNL     1       6.525   4.030  13.430  0.00  0.00    +0.000 C 
BRANCH  21  23
ATOM     22  C   UNL     1       4.754   3.323  11.817  0.00  0.00    +0.000 C 
ATOM     23  C   UNL     1       6.223   3.217  12.178  0.00  0.00    +0.000 C 
ENDBRANCH  21  23
ENDBRANCH  20  21
ENDBRANCH  19  20
ENDBRANCH  18  19
ENDBRANCH  17  18
ENDBRANCH  16  17
ENDBRANCH  14  16
ENDBRANCH   1  14
TORSDOF 9
ENDMDL
MODEL 6
REMARK VINA RESULT:      -6.8      3.684      6.543
REMARK  Name = 
REMARK  10 active torsions:
REMARK  status: ('A' for Active; 'I' for Inactive)
REMARK    1  A    between atoms: C_1  and  C_2
REMARK    2  A    between atoms: C_2  and  C_3
REMARK    3  A    between atoms: C_3  and  C_4
REMARK    4  A    between atoms: C_4  and  C_5
REMARK    5  A    between atoms: C_5  and  C_6
REMARK    6  A    between atoms: C_6  and  C_7
REMARK    7  A    between atoms: C_7  and  C_8
REMARK    8  A    between atoms: C_8  and  N_9
REMARK    9  A    between atoms: N_9  and  C_10
REMARK   10  A    between atoms: C_15  and  C_16
REMARK                            x       y       z     vdW  Elec       q    Type
REMARK                         _______ _______ _______ _____ _____    ______ ____
ROOT
ATOM      1  C   UNL     1       4.492   3.471  18.216  0.00  0.00    +0.000 A 
ATOM      2  C   UNL     1       5.046   4.053  19.360  0.00  0.00    +0.000 A 
ATOM      3  C   UNL     1       5.847   5.184  19.274  0.00  0.00    +0.000 A 
ATOM      4  C   UNL     1       6.121   5.749  18.032  0.00  0.00    +0.000 A 
ATOM      5  F   UNL     1       6.919   6.826  18.018  0.00  0.00    +0.000 F 
ATOM      6  C   UNL     1       5.592   5.210  16.858  0.00  0.00    +0.000 A 
ATOM      7  C   UNL     1       4.790   4.062  16.967  0.00  0.00    +0.000 A 
ATOM      8  F   UNL     1       4.243   3.514  15.864  0.00  0.00    +0.000 F 
ENDROOT
BRANCH   6   9
ATOM      9  C   UNL     1       5.894   5.872  15.556  0.00  0.00    +0.000 C 
ATOM     10  N   UNL     1       6.915   5.361  14.796  0.00  0.00    +0.000 N 
ATOM     11  O   UNL     1       5.272   6.836  15.148  0.00  0.00    +0.000 OA
ATOM     12  H   UNL     1       7.461   4.551  15.064  0.00  0.00    +0.000 HD
ATOM     13  H   UNL     1       7.104   5.806  13.907  0.00  0.00    +0.000 HD
ENDBRANCH   6   9
BRANCH   1  14
ATOM     14  N   UNL     1       3.750   2.292  18.300  0.00  0.00    +0.000 N 
ATOM     15  H   UNL     1       4.262   1.425  18.161  0.00  0.00    +0.000 HD
BRANCH  14  16
ATOM     16  C   UNL     1       2.318   2.293  18.031  0.00  0.00    +0.000 C 
BRANCH  16  17
ATOM     17  C   UNL     1       1.533   2.228  19.332  0.00  0.00    +0.000 C 
BRANCH  17  18
ATOM     18  C   UNL     1       0.976   3.602  19.689  0.00  0.00    +0.000 C 
BRANCH  18  19
ATOM     19  C   UNL     1       1.763   4.221  20.835  0.00  0.00    +0.000 C 
BRANCH  19  20
ATOM     20  C   UNL     1       1.952   5.716  20.607  0.00  0.00    +0.000 C 
BRANCH  20  21
ATOM     21  C   UNL     1       2.119   6.008  19.121  0.00  0.00    +0.000 C 
BRANCH  21  23
ATOM     22  C   UNL     1       3.146   7.839  17.769  0.00  0.00    +0.000 C 
ATOM     23  C   UNL     1       2.156   7.509  18.870  0.00  0.00    +0.000 C 
ENDBRANCH  21  23
ENDBRANCH  20  21
ENDBRANCH  19  20
ENDBRANCH  18  19
ENDBRANCH  17  18
ENDBRANCH  16  17
ENDBRANCH  14  16
ENDBRANCH   1  14
TORSDOF 9
ENDMDL
MODEL 7
REMARK VINA RESULT:      -6.8      2.224      2.533
REMARK  Name = 
REMARK  10 active torsions:
REMARK  status: ('A' for Active; 'I' for Inactive)
REMARK    1  A    between atoms: C_1  and  C_2
REMARK    2  A    between atoms: C_2  and  C_3
REMARK    3  A    between atoms: C_3  and  C_4
REMARK    4  A    between atoms: C_4  and  C_5
REMARK    5  A    between atoms: C_5  and  C_6
REMARK    6  A    between atoms: C_6  and  C_7
REMARK    7  A    between atoms: C_7  and  C_8
REMARK    8  A    between atoms: C_8  and  N_9
REMARK    9  A    between atoms: N_9  and  C_10
REMARK   10  A    between atoms: C_15  and  C_16
REMARK                            x       y       z     vdW  Elec       q    Type
REMARK                         _______ _______ _______ _____ _____    ______ ____
ROOT
ATOM      1  C   UNL     1       5.146   4.148  18.028  0.00  0.00    +0.000 A 
ATOM      2  C   UNL     1       4.333   3.376  17.193  0.00  0.00    +0.000 A 
ATOM      3  C   UNL     1       2.955   3.543  17.180  0.00  0.00    +0.000 A 
ATOM      4  C   UNL     1       2.359   4.483  18.016  0.00  0.00    +0.000 A 
ATOM      5  F   UNL     1       1.023   4.578  17.968  0.00  0.00    +0.000 F 
ATOM      6  C   UNL     1       3.124   5.282  18.867  0.00  0.00    +0.000 A 
ATOM      7  C   UNL     1       4.515   5.093  18.870  0.00  0.00    +0.000 A 
ATOM      8  F   UNL     1       5.298   5.851  19.663  0.00  0.00    +0.000 F 
ENDROOT
BRANCH   6   9
ATOM      9  C   UNL     1       2.437   6.294  19.721  0.00  0.00    +0.000 C 
ATOM     10  N   UNL     1       2.056   5.917  20.984  0.00  0.00    +0.000 N 
ATOM     11  O   UNL     1       2.210   7.429  19.344  0.00  0.00    +0.000 OA
ATOM     12  H   UNL     1       2.230   4.997  21.370  0.00  0.00    +0.000 HD
ATOM     13  H   UNL     1       1.605   6.613  21.563  0.00  0.00    +0.000 HD
ENDBRANCH   6   9
BRANCH   1  14
ATOM     14  N   UNL     1       6.522   3.926  18.093  0.00  0.00    +0.000 N 
ATOM     15  H   UNL     1       6.856   3.390  18.891  0.00  0.00    +0.000 HD
BRANCH  14  16
ATOM     16  C   UNL     1       7.455   4.833  17.438  0.00  0.00    +0.000 C 
BRANCH  16  17
ATOM     17  C   UNL     1       6.796   5.496  16.238  0.00  0.00    +0.000 C 
BRANCH  17  18
ATOM     18  C   UNL     1       7.172   4.766  14.952  0.00  0.00    +0.000 C 
BRANCH  18  19
ATOM     19  C   UNL     1       5.972   4.019  14.387  0.00  0.00    +0.000 C 
BRANCH  19  20
ATOM     20  C   UNL     1       6.196   3.684  12.917  0.00  0.00    +0.000 C 
BRANCH  20  21
ATOM     21  C   UNL     1       4.861   3.534  12.199  0.00  0.00    +0.000 C 
BRANCH  21  23
ATOM     22  C   UNL     1       6.144   1.554  11.377  0.00  0.00    +0.000 C 
ATOM     23  C   UNL     1       4.945   2.451  11.131  0.00  0.00    +0.000 C 
ENDBRANCH  21  23
ENDBRANCH  20  21
ENDBRANCH  19  20
ENDBRANCH  18  19
ENDBRANCH  17  18
ENDBRANCH  16  17
ENDBRANCH  14  16
ENDBRANCH   1  14
TORSDOF 9
ENDMDL
MODEL 8
REMARK VINA RESULT:      -6.7      3.535      6.869
REMARK  Name = 
REMARK  10 active torsions:
REMARK  status: ('A' for Active; 'I' for Inactive)
REMARK    1  A    between atoms: C_1  and  C_2
REMARK    2  A    between atoms: C_2  and  C_3
REMARK    3  A    between atoms: C_3  and  C_4
REMARK    4  A    between atoms: C_4  and  C_5
REMARK    5  A    between atoms: C_5  and  C_6
REMARK    6  A    between atoms: C_6  and  C_7
REMARK    7  A    between atoms: C_7  and  C_8
REMARK    8  A    between atoms: C_8  and  N_9
REMARK    9  A    between atoms: N_9  and  C_10
REMARK   10  A    between atoms: C_15  and  C_16
REMARK                            x       y       z     vdW  Elec       q    Type
REMARK                         _______ _______ _______ _____ _____    ______ ____
ROOT
ATOM      1  C   UNL     1       5.227   4.389  17.913  0.00  0.00    +0.000 A 
ATOM      2  C   UNL     1       4.581   5.610  18.125  0.00  0.00    +0.000 A 
ATOM      3  C   UNL     1       4.496   6.561  17.117  0.00  0.00    +0.000 A 
ATOM      4  C   UNL     1       5.071   6.312  15.874  0.00  0.00    +0.000 A 
ATOM      5  F   UNL     1       4.971   7.282  14.954  0.00  0.00    +0.000 F 
ATOM      6  C   UNL     1       5.725   5.108  15.608  0.00  0.00    +0.000 A 
ATOM      7  C   UNL     1       5.806   4.163  16.643  0.00  0.00    +0.000 A 
ATOM      8  F   UNL     1       6.414   2.980  16.429  0.00  0.00    +0.000 F 
ENDROOT
BRANCH   6   9
ATOM      9  C   UNL     1       6.299   4.882  14.250  0.00  0.00    +0.000 C 
ATOM     10  N   UNL     1       7.504   5.466  13.954  0.00  0.00    +0.000 N 
ATOM     11  O   UNL     1       5.744   4.201  13.406  0.00  0.00    +0.000 OA
ATOM     12  H   UNL     1       8.029   6.029  14.612  0.00  0.00    +0.000 HD
ATOM     13  H   UNL     1       7.894   5.295  13.037  0.00  0.00    +0.000 HD
ENDBRANCH   6   9
BRANCH   1  14
ATOM     14  N   UNL     1       5.376   3.467  18.949  0.00  0.00    +0.000 N 
ATOM     15  H   UNL     1       6.321   3.136  19.127  0.00  0.00    +0.000 HD
BRANCH  14  16
ATOM     16  C   UNL     1       4.264   2.618  19.356  0.00  0.00    +0.000 C 
BRANCH  16  17
ATOM     17  C   UNL     1       3.592   2.003  18.138  0.00  0.00    +0.000 C 
BRANCH  17  18
ATOM     18  C   UNL     1       2.271   2.707  17.845  0.00  0.00    +0.000 C 
BRANCH  18  19
ATOM     19  C   UNL     1       1.152   2.134  18.704  0.00  0.00    +0.000 C 
BRANCH  19  20
ATOM     20  C   UNL     1       0.660   3.174  19.703  0.00  0.00    +0.000 C 
BRANCH  20  21
ATOM     21  C   UNL     1       1.249   2.903  21.082  0.00  0.00    +0.000 C 
BRANCH  21  23
ATOM     22  C   UNL     1       1.884   5.277  20.634  0.00  0.00    +0.000 C 
ATOM     23  C   UNL     1       2.095   4.082  21.544  0.00  0.00    +0.000 C 
ENDBRANCH  21  23
ENDBRANCH  20  21
ENDBRANCH  19  20
ENDBRANCH  18  19
ENDBRANCH  17  18
ENDBRANCH  16  17
ENDBRANCH  14  16
ENDBRANCH   1  14
TORSDOF 9
ENDMDL
MODEL 9
REMARK VINA RESULT:      -6.7      3.342      4.661
REMARK  Name = 
REMARK  10 active torsions:
REMARK  status: ('A' for Active; 'I' for Inactive)
REMARK    1  A    between atoms: C_1  and  C_2
REMARK    2  A    between atoms: C_2  and  C_3
REMARK    3  A    between atoms: C_3  and  C_4
REMARK    4  A    between atoms: C_4  and  C_5
REMARK    5  A    between atoms: C_5  and  C_6
REMARK    6  A    between atoms: C_6  and  C_7
REMARK    7  A    between atoms: C_7  and  C_8
REMARK    8  A    between atoms: C_8  and  N_9
REMARK    9  A    between atoms: N_9  and  C_10
REMARK   10  A    between atoms: C_15  and  C_16
REMARK                            x       y       z     vdW  Elec       q    Type
REMARK                         _______ _______ _______ _____ _____    ______ ____
ROOT
ATOM      1  C   UNL     1       2.355   5.952  18.712  0.00  0.00    +0.000 A 
ATOM      2  C   UNL     1       2.195   6.249  20.069  0.00  0.00    +0.000 A 
ATOM      3  C   UNL     1       1.730   5.293  20.962  0.00  0.00    +0.000 A 
ATOM      4  C   UNL     1       1.401   4.018  20.510  0.00  0.00    +0.000 A 
ATOM      5  F   UNL     1       0.938   3.151  21.421  0.00  0.00    +0.000 F 
ATOM      6  C   UNL     1       1.544   3.668  19.166  0.00  0.00    +0.000 A 
ATOM      7  C   UNL     1       2.009   4.652  18.278  0.00  0.00    +0.000 A 
ATOM      8  F   UNL     1       2.179   4.357  16.974  0.00  0.00    +0.000 F 
ENDROOT
BRANCH   6   9
ATOM      9  C   UNL     1       1.205   2.280  18.739  0.00  0.00    +0.000 C 
ATOM     10  N   UNL     1       2.216   1.353  18.703  0.00  0.00    +0.000 N 
ATOM     11  O   UNL     1       0.077   1.943  18.430  0.00  0.00    +0.000 OA
ATOM     12  H   UNL     1       3.173   1.558  18.965  0.00  0.00    +0.000 HD
ATOM     13  H   UNL     1       1.976   0.409  18.429  0.00  0.00    +0.000 HD
ENDBRANCH   6   9
BRANCH   1  14
ATOM     14  N   UNL     1       2.750   6.936  17.806  0.00  0.00    +0.000 N 
ATOM     15  H   UNL     1       2.116   7.119  17.032  0.00  0.00    +0.000 HD
BRANCH  14  16
ATOM     16  C   UNL     1       4.159   7.263  17.629  0.00  0.00    +0.000 C 
BRANCH  16  17
ATOM     17  C   UNL     1       4.720   6.551  16.408  0.00  0.00    +0.000 C 
BRANCH  17  18
ATOM     18  C   UNL     1       5.271   5.182  16.795  0.00  0.00    +0.000 C 
BRANCH  18  19
ATOM     19  C   UNL     1       6.318   5.314  17.893  0.00  0.00    +0.000 C 
BRANCH  19  20
ATOM     20  C   UNL     1       7.548   6.048  17.372  0.00  0.00    +0.000 C 
BRANCH  20  21
ATOM     21  C   UNL     1       7.954   7.152  18.339  0.00  0.00    +0.000 C 
BRANCH  21  23
ATOM     22  C   UNL     1       8.675   9.540  18.466  0.00  0.00    +0.000 C 
ATOM     23  C   UNL     1       7.917   8.510  17.651  0.00  0.00    +0.000 C 
ENDBRANCH  21  23
ENDBRANCH  20  21
ENDBRANCH  19  20
ENDBRANCH  18  19
ENDBRANCH  17  18
ENDBRANCH  16  17
ENDBRANCH  14  16
ENDBRANCH   1  14
TORSDOF 9
ENDMDL
