MODEL 1
REMARK VINA RESULT:      -6.7      0.000      0.000
REMARK  Name = 
REMARK  7 active torsions:
REMARK  status: ('A' for Active; 'I' for Inactive)
REMARK    1  A    between atoms: C_1  and  N_2
REMARK    2  A    between atoms: N_2  and  C_3
REMARK    3  A    between atoms: N_2  and  C_4
REMARK    4  A    between atoms: N_6  and  C_7
REMARK    5  A    between atoms: C_9  and  O_10
REMARK    6  A    between atoms: C_11  and  C_12
REMARK    7  A    between atoms: C_12  and  O_13
REMARK                            x       y       z     vdW  Elec       q    Type
REMARK                         _______ _______ _______ _____ _____    ______ ____
ROOT
ATOM      1  C   UNL     1       2.529   5.928  19.608  0.00  0.00    +0.000 A 
ATOM      2  C   UNL     1       3.692   5.569  19.036  0.00  0.00    +0.000 A 
ATOM      3  N   UNL     1       4.164   4.271  18.935  0.00  0.00    +0.000 N 
ATOM      4  C   UNL     1       3.474   3.210  19.501  0.00  0.00    +0.000 A 
ATOM      5  O   UNL     1       3.838   2.037  19.453  0.00  0.00    +0.000 OA
ATOM      6  N   UNL     1       2.310   3.535  20.133  0.00  0.00    +0.000 N 
ATOM      7  C   UNL     1       1.719   4.766  20.164  0.00  0.00    +0.000 A 
ATOM      8  O   UNL     1       0.586   4.880  20.625  0.00  0.00    +0.000 OA
ATOM      9  H   UNL     1       1.768   2.770  20.499  0.00  0.00    +0.000 HD
ENDROOT
BRANCH   3  10
ATOM     10  C   UNL     1       5.412   4.034  18.197  0.00  0.00    +0.000 C 
ATOM     11  C   UNL     1       6.511   5.076  18.477  0.00  0.00    +0.000 C 
ATOM     12  C   UNL     1       7.283   5.166  17.168  0.00  0.00    +0.000 C 
ATOM     13  C   UNL     1       6.192   5.037  16.099  0.00  0.00    +0.000 C 
ATOM     14  C   UNL     1       5.244   3.970  16.666  0.00  0.00    +0.000 C 
BRANCH  12  15
ATOM     15  O   UNL     1       8.252   4.122  17.089  0.00  0.00    +0.000 OA
ATOM     16  H   UNL     1       7.843   3.288  17.380  0.00  0.00    +0.000 HD
ENDBRANCH  12  15
BRANCH  13  17
ATOM     17  C   UNL     1       6.697   4.713  14.697  0.00  0.00    +0.000 C 
BRANCH  17  18
ATOM     18  O   UNL     1       7.869   5.450  14.372  0.00  0.00    +0.000 OA
ATOM     19  H   UNL     1       7.556   6.335  14.090  0.00  0.00    +0.000 HD
ENDBRANCH  17  18
ENDBRANCH  13  17
ENDBRANCH   3  10
BRANCH   1  21
ATOM     20  C   UNL     1       1.567   7.839  20.942  0.00  0.00    +0.000 C 
ATOM     21  N   UNL     1       2.054   7.255  19.688  0.00  0.00    +0.000 N 
ATOM     22  C   UNL     1       2.114   8.181  18.556  0.00  0.00    +0.000 C 
ENDBRANCH   1  21
TORSDOF 5
ENDMDL
MODEL 2
REMARK VINA RESULT:      -6.4      2.863      6.826
REMARK  Name = 
REMARK  7 active torsions:
REMARK  status: ('A' for Active; 'I' for Inactive)
REMARK    1  A    between atoms: C_1  and  N_2
REMARK    2  A    between atoms: N_2  and  C_3
REMARK    3  A    between atoms: N_2  and  C_4
REMARK    4  A    between atoms: N_6  and  C_7
REMARK    5  A    between atoms: C_9  and  O_10
REMARK    6  A    between atoms: C_11  and  C_12
REMARK    7  A    between atoms: C_12  and  O_13
REMARK                            x       y       z     vdW  Elec       q    Type
REMARK                         _______ _______ _______ _____ _____    ______ ____
ROOT
ATOM      1  C   UNL     1       6.187   3.929  13.568  0.00  0.00    +0.000 A 
ATOM      2  C   UNL     1       5.638   3.797  14.788  0.00  0.00    +0.000 A 
ATOM      3  N   UNL     1       6.039   4.483  15.922  0.00  0.00    +0.000 N 
ATOM      4  C   UNL     1       7.128   5.341  15.894  0.00  0.00    +0.000 A 
ATOM      5  O   UNL     1       7.539   5.977  16.863  0.00  0.00    +0.000 OA
ATOM      6  N   UNL     1       7.745   5.470  14.685  0.00  0.00    +0.000 N 
ATOM      7  C   UNL     1       7.332   4.928  13.500  0.00  0.00    +0.000 A 
ATOM      8  O   UNL     1       7.887   5.265  12.458  0.00  0.00    +0.000 OA
ATOM      9  H   UNL     1       8.500   6.133  14.633  0.00  0.00    +0.000 HD
ENDROOT
BRANCH   3  10
ATOM     10  C   UNL     1       5.274   4.296  17.163  0.00  0.00    +0.000 C 
ATOM     11  C   UNL     1       4.169   3.230  17.059  0.00  0.00    +0.000 C 
ATOM     12  C   UNL     1       3.081   3.727  18.003  0.00  0.00    +0.000 C 
ATOM     13  C   UNL     1       3.109   5.247  17.812  0.00  0.00    +0.000 C 
ATOM     14  C   UNL     1       4.604   5.577  17.697  0.00  0.00    +0.000 C 
BRANCH  12  15
ATOM     15  O   UNL     1       3.372   3.338  19.344  0.00  0.00    +0.000 OA
ATOM     16  H   UNL     1       3.665   2.410  19.348  0.00  0.00    +0.000 HD
ENDBRANCH  12  15
BRANCH  13  17
ATOM     17  C   UNL     1       2.396   6.047  18.897  0.00  0.00    +0.000 C 
BRANCH  17  18
ATOM     18  O   UNL     1       3.143   6.084  20.107  0.00  0.00    +0.000 OA
ATOM     19  H   UNL     1       3.401   7.021  20.230  0.00  0.00    +0.000 HD
ENDBRANCH  17  18
ENDBRANCH  13  17
ENDBRANCH   3  10
BRANCH   1  21
ATOM     20  C   UNL     1       4.461   3.501  11.780  0.00  0.00    +0.000 C 
ATOM     21  N   UNL     1       5.754   3.233  12.417  0.00  0.00    +0.000 N 
ATOM     22  C   UNL     1       6.607   2.275  11.711  0.00  0.00    +0.000 C 
ENDBRANCH   1  21
TORSDOF 5
ENDMDL
MODEL 3
REMARK VINA RESULT:      -6.3      3.146      6.749
REMARK  Name = 
REMARK  7 active torsions:
REMARK  status: ('A' for Active; 'I' for Inactive)
REMARK    1  A    between atoms: C_1  and  N_2
REMARK    2  A    between atoms: N_2  and  C_3
REMARK    3  A    between atoms: N_2  and  C_4
REMARK    4  A    between atoms: N_6  and  C_7
REMARK    5  A    between atoms: C_9  and  O_10
REMARK    6  A    between atoms: C_11  and  C_12
REMARK    7  A    between atoms: C_12  and  O_13
REMARK                            x       y       z     vdW  Elec       q    Type
REMARK                         _______ _______ _______ _____ _____    ______ ____
ROOT
ATOM      1  C   UNL     1       6.136   4.094  13.647  0.00  0.00    +0.000 A 
ATOM      2  C   UNL     1       5.433   4.013  14.791  0.00  0.00    +0.000 A 
ATOM      3  N   UNL     1       5.723   4.705  15.955  0.00  0.00    +0.000 N 
ATOM      4  C   UNL     1       6.846   5.511  16.050  0.00  0.00    +0.000 A 
ATOM      5  O   UNL     1       7.164   6.148  17.053  0.00  0.00    +0.000 OA
ATOM      6  N   UNL     1       7.614   5.585  14.926  0.00  0.00    +0.000 N 
ATOM      7  C   UNL     1       7.327   5.037  13.708  0.00  0.00    +0.000 A 
ATOM      8  O   UNL     1       8.023   5.326  12.738  0.00  0.00    +0.000 OA
ATOM      9  H   UNL     1       8.401   6.212  14.959  0.00  0.00    +0.000 HD
ENDROOT
BRANCH   3  10
ATOM     10  C   UNL     1       4.801   4.580  17.093  0.00  0.00    +0.000 C 
ATOM     11  C   UNL     1       5.443   3.968  18.352  0.00  0.00    +0.000 C 
ATOM     12  C   UNL     1       4.303   3.215  19.023  0.00  0.00    +0.000 C 
ATOM     13  C   UNL     1       3.515   2.632  17.845  0.00  0.00    +0.000 C 
ATOM     14  C   UNL     1       3.533   3.755  16.798  0.00  0.00    +0.000 C 
BRANCH  12  15
ATOM     15  O   UNL     1       3.520   4.103  19.818  0.00  0.00    +0.000 OA
ATOM     16  H   UNL     1       3.369   3.698  20.691  0.00  0.00    +0.000 HD
ENDBRANCH  12  15
BRANCH  13  17
ATOM     17  C   UNL     1       2.111   2.146  18.185  0.00  0.00    +0.000 C 
BRANCH  17  18
ATOM     18  O   UNL     1       1.135   3.162  17.990  0.00  0.00    +0.000 OA
ATOM     19  H   UNL     1       1.630   3.947  17.674  0.00  0.00    +0.000 HD
ENDBRANCH  17  18
ENDBRANCH  13  17
ENDBRANCH   3  10
BRANCH   1  21
ATOM     20  C   UNL     1       6.746   2.448  11.836  0.00  0.00    +0.000 C 
ATOM     21  N   UNL     1       5.816   3.394  12.462  0.00  0.00    +0.000 N 
ATOM     22  C   UNL     1       4.497   3.476  11.832  0.00  0.00    +0.000 C 
ENDBRANCH   1  21
TORSDOF 5
ENDMDL
MODEL 4
REMARK VINA RESULT:      -6.2      2.378      6.223
REMARK  Name = 
REMARK  7 active torsions:
REMARK  status: ('A' for Active; 'I' for Inactive)
REMARK    1  A    between atoms: C_1  and  N_2
REMARK    2  A    between atoms: N_2  and  C_3
REMARK    3  A    between atoms: N_2  and  C_4
REMARK    4  A    between atoms: N_6  and  C_7
REMARK    5  A    between atoms: C_9  and  O_10
REMARK    6  A    between atoms: C_11  and  C_12
REMARK    7  A    between atoms: C_12  and  O_13
REMARK                            x       y       z     vdW  Elec       q    Type
REMARK                         _______ _______ _______ _____ _____    ______ ____
ROOT
ATOM      1  C   UNL     1       6.186   4.662  15.760  0.00  0.00    +0.000 A 
ATOM      2  C   UNL     1       5.316   3.939  16.487  0.00  0.00    +0.000 A 
ATOM      3  N   UNL     1       5.166   4.018  17.861  0.00  0.00    +0.000 N 
ATOM      4  C   UNL     1       5.984   4.834  18.627  0.00  0.00    +0.000 A 
ATOM      5  O   UNL     1       5.908   4.948  19.849  0.00  0.00    +0.000 OA
ATOM      6  N   UNL     1       6.913   5.552  17.934  0.00  0.00    +0.000 N 
ATOM      7  C   UNL     1       7.038   5.623  16.576  0.00  0.00    +0.000 A 
ATOM      8  O   UNL     1       7.809   6.442  16.083  0.00  0.00    +0.000 OA
ATOM      9  H   UNL     1       7.476   6.193  18.468  0.00  0.00    +0.000 HD
ENDROOT
BRANCH   3  10
ATOM     10  C   UNL     1       4.104   3.226  18.497  0.00  0.00    +0.000 C 
ATOM     11  C   UNL     1       3.145   2.551  17.499  0.00  0.00    +0.000 C 
ATOM     12  C   UNL     1       1.809   2.519  18.228  0.00  0.00    +0.000 C 
ATOM     13  C   UNL     1       1.783   3.849  18.988  0.00  0.00    +0.000 C 
ATOM     14  C   UNL     1       3.226   4.017  19.487  0.00  0.00    +0.000 C 
BRANCH  12  15
ATOM     15  O   UNL     1       1.745   1.390  19.097  0.00  0.00    +0.000 OA
ATOM     16  H   UNL     1       1.031   0.800  18.798  0.00  0.00    +0.000 HD
ENDBRANCH  12  15
BRANCH  13  17
ATOM     17  C   UNL     1       0.745   3.936  20.102  0.00  0.00    +0.000 C 
BRANCH  17  18
ATOM     18  O   UNL     1       1.034   3.039  21.168  0.00  0.00    +0.000 OA
ATOM     19  H   UNL     1       1.982   3.172  21.377  0.00  0.00    +0.000 HD
ENDBRANCH  17  18
ENDBRANCH  13  17
ENDBRANCH   3  10
BRANCH   1  21
ATOM     20  C   UNL     1       7.527   5.020  13.654  0.00  0.00    +0.000 C 
ATOM     21  N   UNL     1       6.315   4.582  14.356  0.00  0.00    +0.000 N 
ATOM     22  C   UNL     1       5.300   3.955  13.508  0.00  0.00    +0.000 C 
ENDBRANCH   1  21
TORSDOF 5
ENDMDL
MODEL 5
REMARK VINA RESULT:      -6.1      2.859      6.824
REMARK  Name = 
REMARK  7 active torsions:
REMARK  status: ('A' for Active; 'I' for Inactive)
REMARK    1  A    between atoms: C_1  and  N_2
REMARK    2  A    between atoms: N_2  and  C_3
REMARK    3  A    between atoms: N_2  and  C_4
REMARK    4  A    between atoms: N_6  and  C_7
REMARK    5  A    between atoms: C_9  and  O_10
REMARK    6  A    between atoms: C_11  and  C_12
REMARK    7  A    between atoms: C_12  and  O_13
REMARK                            x       y       z     vdW  Elec       q    Type
REMARK                         _______ _______ _______ _____ _____    ______ ____
ROOT
ATOM      1  C   UNL     1       6.264   4.029  13.748  0.00  0.00    +0.000 A 
ATOM      2  C   UNL     1       5.627   3.740  14.897  0.00  0.00    +0.000 A 
ATOM      3  N   UNL     1       5.890   4.325  16.124  0.00  0.00    +0.000 N 
ATOM      4  C   UNL     1       6.920   5.240  16.277  0.00  0.00    +0.000 A 
ATOM      5  O   UNL     1       7.210   5.793  17.337  0.00  0.00    +0.000 OA
ATOM      6  N   UNL     1       7.623   5.529  15.145  0.00  0.00    +0.000 N 
ATOM      7  C   UNL     1       7.344   5.092  13.881  0.00  0.00    +0.000 A 
ATOM      8  O   UNL     1       7.959   5.567  12.930  0.00  0.00    +0.000 OA
ATOM      9  H   UNL     1       8.336   6.235  15.227  0.00  0.00    +0.000 HD
ENDROOT
BRANCH   3  10
ATOM     10  C   UNL     1       5.041   3.966  17.268  0.00  0.00    +0.000 C 
ATOM     11  C   UNL     1       4.693   2.468  17.342  0.00  0.00    +0.000 C 
ATOM     12  C   UNL     1       3.307   2.437  17.972  0.00  0.00    +0.000 C 
ATOM     13  C   UNL     1       2.610   3.659  17.363  0.00  0.00    +0.000 C 
ATOM     14  C   UNL     1       3.706   4.734  17.336  0.00  0.00    +0.000 C 
BRANCH  12  15
ATOM     15  O   UNL     1       3.405   2.514  19.393  0.00  0.00    +0.000 OA
ATOM     16  H   UNL     1       3.311   3.444  19.667  0.00  0.00    +0.000 HD
ENDBRANCH  12  15
BRANCH  13  17
ATOM     17  C   UNL     1       1.344   4.106  18.087  0.00  0.00    +0.000 C 
BRANCH  17  18
ATOM     18  O   UNL     1       0.718   3.030  18.776  0.00  0.00    +0.000 OA
ATOM     19  H   UNL     1      -0.239   3.113  18.584  0.00  0.00    +0.000 HD
ENDBRANCH  17  18
ENDBRANCH  13  17
ENDBRANCH   3  10
BRANCH   1  21
ATOM     20  C   UNL     1       6.968   2.667  11.746  0.00  0.00    +0.000 C 
ATOM     21  N   UNL     1       5.972   3.436  12.500  0.00  0.00    +0.000 N 
ATOM     22  C   UNL     1       4.629   3.448  11.919  0.00  0.00    +0.000 C 
ENDBRANCH   1  21
TORSDOF 5
ENDMDL
MODEL 6
REMARK VINA RESULT:      -5.9      2.477      6.305
REMARK  Name = 
REMARK  7 active torsions:
REMARK  status: ('A' for Active; 'I' for Inactive)
REMARK    1  A    between atoms: C_1  and  N_2
REMARK    2  A    between atoms: N_2  and  C_3
REMARK    3  A    between atoms: N_2  and  C_4
REMARK    4  A    between atoms: N_6  and  C_7
REMARK    5  A    between atoms: C_9  and  O_10
REMARK    6  A    between atoms: C_11  and  C_12
REMARK    7  A    between atoms: C_12  and  O_13
REMARK                            x       y       z     vdW  Elec       q    Type
REMARK                         _______ _______ _______ _____ _____    ______ ____
ROOT
ATOM      1  C   UNL     1       6.029   4.674  15.696  0.00  0.00    +0.000 A 
ATOM      2  C   UNL     1       5.025   3.993  16.277  0.00  0.00    +0.000 A 
ATOM      3  N   UNL     1       4.566   4.196  17.568  0.00  0.00    +0.000 N 
ATOM      4  C   UNL     1       5.179   5.108  18.412  0.00  0.00    +0.000 A 
ATOM      5  O   UNL     1       4.827   5.334  19.568  0.00  0.00    +0.000 OA
ATOM      6  N   UNL     1       6.233   5.789  17.878  0.00  0.00    +0.000 N 
ATOM      7  C   UNL     1       6.661   5.736  16.582  0.00  0.00    +0.000 A 
ATOM      8  O   UNL     1       7.515   6.531  16.196  0.00  0.00    +0.000 OA
ATOM      9  H   UNL     1       6.652   6.497  18.458  0.00  0.00    +0.000 HD
ENDROOT
BRANCH   3  10
ATOM     10  C   UNL     1       3.397   3.432  18.025  0.00  0.00    +0.000 C 
ATOM     11  C   UNL     1       2.051   4.132  17.757  0.00  0.00    +0.000 C 
ATOM     12  C   UNL     1       1.162   3.682  18.909  0.00  0.00    +0.000 C 
ATOM     13  C   UNL     1       2.118   3.645  20.106  0.00  0.00    +0.000 C 
ATOM     14  C   UNL     1       3.418   3.072  19.523  0.00  0.00    +0.000 C 
BRANCH  12  15
ATOM     15  O   UNL     1       0.589   2.407  18.626  0.00  0.00    +0.000 OA
ATOM     16  H   UNL     1       1.176   1.924  18.017  0.00  0.00    +0.000 HD
ENDBRANCH  12  15
BRANCH  13  17
ATOM     17  C   UNL     1       1.606   2.871  21.316  0.00  0.00    +0.000 C 
BRANCH  17  18
ATOM     18  O   UNL     1       2.669   2.426  22.151  0.00  0.00    +0.000 OA
ATOM     19  H   UNL     1       2.883   1.520  21.846  0.00  0.00    +0.000 HD
ENDBRANCH  17  18
ENDBRANCH  13  17
ENDBRANCH   3  10
BRANCH   1  21
ATOM     20  C   UNL     1       5.725   3.647  13.412  0.00  0.00    +0.000 C 
ATOM     21  N   UNL     1       6.474   4.466  14.372  0.00  0.00    +0.000 N 
ATOM     22  C   UNL     1       7.653   5.138  13.824  0.00  0.00    +0.000 C 
ENDBRANCH   1  21
TORSDOF 5
ENDMDL
MODEL 7
REMARK VINA RESULT:      -5.9      2.547      6.650
REMARK  Name = 
REMARK  7 active torsions:
REMARK  status: ('A' for Active; 'I' for Inactive)
REMARK    1  A    between atoms: C_1  and  N_2
REMARK    2  A    between atoms: N_2  and  C_3
REMARK    3  A    between atoms: N_2  and  C_4
REMARK    4  A    between atoms: N_6  and  C_7
REMARK    5  A    between atoms: C_9  and  O_10
REMARK    6  A    between atoms: C_11  and  C_12
REMARK    7  A    between atoms: C_12  and  O_13
REMARK                            x       y       z     vdW  Elec       q    Type
REMARK                         _______ _______ _______ _____ _____    ______ ____
ROOT
ATOM      1  C   UNL     1       6.199   4.256  14.129  0.00  0.00    +0.000 A 
ATOM      2  C   UNL     1       5.468   3.976  15.222  0.00  0.00    +0.000 A 
ATOM      3  N   UNL     1       5.687   4.502  16.484  0.00  0.00    +0.000 N 
ATOM      4  C   UNL     1       6.763   5.339  16.736  0.00  0.00    +0.000 A 
ATOM      5  O   UNL     1       7.017   5.837  17.832  0.00  0.00    +0.000 OA
ATOM      6  N   UNL     1       7.558   5.614  15.664  0.00  0.00    +0.000 N 
ATOM      7  C   UNL     1       7.336   5.237  14.370  0.00  0.00    +0.000 A 
ATOM      8  O   UNL     1       8.044   5.698  13.478  0.00  0.00    +0.000 OA
ATOM      9  H   UNL     1       8.310   6.266  15.817  0.00  0.00    +0.000 HD
ENDROOT
BRANCH   3  10
ATOM     10  C   UNL     1       4.740   4.168  17.557  0.00  0.00    +0.000 C 
ATOM     11  C   UNL     1       3.454   3.480  17.063  0.00  0.00    +0.000 C 
ATOM     12  C   UNL     1       2.383   3.943  18.042  0.00  0.00    +0.000 C 
ATOM     13  C   UNL     1       2.764   5.400  18.327  0.00  0.00    +0.000 C 
ATOM     14  C   UNL     1       4.297   5.370  18.413  0.00  0.00    +0.000 C 
BRANCH  12  15
ATOM     15  O   UNL     1       2.400   3.133  19.216  0.00  0.00    +0.000 OA
ATOM     16  H   UNL     1       1.673   2.488  19.166  0.00  0.00    +0.000 HD
ENDBRANCH  12  15
BRANCH  13  17
ATOM     17  C   UNL     1       2.101   6.011  19.557  0.00  0.00    +0.000 C 
BRANCH  17  18
ATOM     18  O   UNL     1       2.702   5.558  20.764  0.00  0.00    +0.000 OA
ATOM     19  H   UNL     1       3.634   5.859  20.725  0.00  0.00    +0.000 HD
ENDBRANCH  17  18
ENDBRANCH  13  17
ENDBRANCH   3  10
BRANCH   1  21
ATOM     20  C   UNL     1       7.037   3.361  11.925  0.00  0.00    +0.000 C 
ATOM     21  N   UNL     1       5.953   3.723  12.844  0.00  0.00    +0.000 N 
ATOM     22  C   UNL     1       4.606   3.390  12.376  0.00  0.00    +0.000 C 
ENDBRANCH   1  21
TORSDOF 5
ENDMDL
MODEL 8
REMARK VINA RESULT:      -5.9      3.182      5.363
REMARK  Name = 
REMARK  7 active torsions:
REMARK  status: ('A' for Active; 'I' for Inactive)
REMARK    1  A    between atoms: C_1  and  N_2
REMARK    2  A    between atoms: N_2  and  C_3
REMARK    3  A    between atoms: N_2  and  C_4
REMARK    4  A    between atoms: N_6  and  C_7
REMARK    5  A    between atoms: C_9  and  O_10
REMARK    6  A    between atoms: C_11  and  C_12
REMARK    7  A    between atoms: C_12  and  O_13
REMARK                            x       y       z     vdW  Elec       q    Type
REMARK                         _______ _______ _______ _____ _____    ______ ____
ROOT
ATOM      1  C   UNL     1       1.452   8.778  19.446  0.00  0.00    +0.000 A 
ATOM      2  C   UNL     1       1.706   7.467  19.602  0.00  0.00    +0.000 A 
ATOM      3  N   UNL     1       2.584   6.726  18.828  0.00  0.00    +0.000 N 
ATOM      4  C   UNL     1       3.239   7.293  17.745  0.00  0.00    +0.000 A 
ATOM      5  O   UNL     1       4.025   6.693  17.015  0.00  0.00    +0.000 OA
ATOM      6  N   UNL     1       2.974   8.612  17.522  0.00  0.00    +0.000 N 
ATOM      7  C   UNL     1       2.224   9.435  18.312  0.00  0.00    +0.000 A 
ATOM      8  O   UNL     1       2.209  10.642  18.082  0.00  0.00    +0.000 OA
ATOM      9  H   UNL     1       3.486   9.053  16.775  0.00  0.00    +0.000 HD
ENDROOT
BRANCH   3  10
ATOM     10  C   UNL     1       2.822   5.321  19.186  0.00  0.00    +0.000 C 
ATOM     11  C   UNL     1       2.159   4.313  18.231  0.00  0.00    +0.000 C 
ATOM     12  C   UNL     1       1.820   3.123  19.120  0.00  0.00    +0.000 C 
ATOM     13  C   UNL     1       1.391   3.773  20.440  0.00  0.00    +0.000 C 
ATOM     14  C   UNL     1       2.371   4.943  20.611  0.00  0.00    +0.000 C 
BRANCH  12  15
ATOM     15  O   UNL     1       2.958   2.277  19.271  0.00  0.00    +0.000 OA
ATOM     16  H   UNL     1       2.698   1.359  19.075  0.00  0.00    +0.000 HD
ENDBRANCH  12  15
BRANCH  13  17
ATOM     17  C   UNL     1       1.356   2.834  21.640  0.00  0.00    +0.000 C 
BRANCH  17  18
ATOM     18  O   UNL     1       2.663   2.513  22.102  0.00  0.00    +0.000 OA
ATOM     19  H   UNL     1       3.277   2.877  21.431  0.00  0.00    +0.000 HD
ENDBRANCH  17  18
ENDBRANCH  13  17
ENDBRANCH   3  10
BRANCH   1  21
ATOM     20  C   UNL     1       0.879   9.867  21.647  0.00  0.00    +0.000 C 
ATOM     21  N   UNL     1       0.566   9.523  20.256  0.00  0.00    +0.000 N 
ATOM     22  C   UNL     1      -0.675  10.101  19.738  0.00  0.00    +0.000 C 
ENDBRANCH   1  21
TORSDOF 5
ENDMDL
MODEL 9
REMARK VINA RESULT:      -5.8      2.019      5.967
REMARK  Name = 
REMARK  7 active torsions:
REMARK  status: ('A' for Active; 'I' for Inactive)
REMARK    1  A    between atoms: C_1  and  N_2
REMARK    2  A    between atoms: N_2  and  C_3
REMARK    3  A    between atoms: N_2  and  C_4
REMARK    4  A    between atoms: N_6  and  C_7
REMARK    5  A    between atoms: C_9  and  O_10
REMARK    6  A    between atoms: C_11  and  C_12
REMARK    7  A    between atoms: C_12  and  O_13
REMARK                            x       y       z     vdW  Elec       q    Type
REMARK                         _______ _______ _______ _____ _____    ______ ____
ROOT
ATOM      1  C   UNL     1       6.416   5.753  17.654  0.00  0.00    +0.000 A 
ATOM      2  C   UNL     1       5.215   5.629  18.245  0.00  0.00    +0.000 A 
ATOM      3  N   UNL     1       4.196   4.796  17.814  0.00  0.00    +0.000 N 
ATOM      4  C   UNL     1       4.322   4.049  16.654  0.00  0.00    +0.000 A 
ATOM      5  O   UNL     1       3.457   3.294  16.213  0.00  0.00    +0.000 OA
ATOM      6  N   UNL     1       5.509   4.179  15.996  0.00  0.00    +0.000 N 
ATOM      7  C   UNL     1       6.602   4.879  16.423  0.00  0.00    +0.000 A 
ATOM      8  O   UNL     1       7.663   4.771  15.813  0.00  0.00    +0.000 OA
ATOM      9  H   UNL     1       5.639   3.600  15.183  0.00  0.00    +0.000 HD
ENDROOT
BRANCH   3  10
ATOM     10  C   UNL     1       2.974   4.705  18.626  0.00  0.00    +0.000 C 
ATOM     11  C   UNL     1       2.731   5.930  19.527  0.00  0.00    +0.000 C 
ATOM     12  C   UNL     1       2.022   5.359  20.748  0.00  0.00    +0.000 C 
ATOM     13  C   UNL     1       2.707   4.005  20.961  0.00  0.00    +0.000 C 
ATOM     14  C   UNL     1       2.906   3.464  19.537  0.00  0.00    +0.000 C 
BRANCH  12  15
ATOM     15  O   UNL     1       0.624   5.231  20.495  0.00  0.00    +0.000 OA
ATOM     16  H   UNL     1       0.283   6.081  20.163  0.00  0.00    +0.000 HD
ENDBRANCH  12  15
BRANCH  13  17
ATOM     17  C   UNL     1       1.959   3.040  21.874  0.00  0.00    +0.000 C 
BRANCH  17  18
ATOM     18  O   UNL     1       0.734   2.604  21.298  0.00  0.00    +0.000 OA
ATOM     19  H   UNL     1       0.043   3.193  21.668  0.00  0.00    +0.000 HD
ENDBRANCH  17  18
ENDBRANCH  13  17
ENDBRANCH   3  10
BRANCH   1  21
ATOM     20  C   UNL     1       7.710   7.914  17.528  0.00  0.00    +0.000 C 
ATOM     21  N   UNL     1       7.452   6.595  18.116  0.00  0.00    +0.000 N 
ATOM     22  C   UNL     1       8.271   6.266  19.283  0.00  0.00    +0.000 C 
ENDBRANCH   1  21
TORSDOF 5
ENDMDL
