MODEL 1
REMARK VINA RESULT:      -8.7      0.000      0.000
REMARK  Name = 
REMARK  9 active torsions:
REMARK  status: ('A' for Active; 'I' for Inactive)
REMARK    1  A    between atoms: C_1  and  C_2
REMARK    2  A    between atoms: C_2  and  O_3
REMARK    3  A    between atoms: O_3  and  C_4
REMARK    4  A    between atoms: C_4  and  C_6
REMARK    5  A    between atoms: C_6  and  O_7
REMARK    6  A    between atoms: C_8  and  C_9
REMARK    7  A    between atoms: C_9  and  C_11
REMARK    8  A    between atoms: N_13  and  C_14
REMARK    9  A    between atoms: C_14  and  C_15
REMARK                            x       y       z     vdW  Elec       q    Type
REMARK                         _______ _______ _______ _____ _____    ______ ____
ROOT
ATOM      1  C   UNL     1       4.807   5.253  18.405  0.00  0.00    +0.000 A 
ATOM      2  C   UNL     1       4.106   5.942  19.319  0.00  0.00    +0.000 A 
ATOM      3  N   UNL     1       2.882   5.591  19.880  0.00  0.00    +0.000 N 
ATOM      4  C   UNL     1       2.260   4.393  19.458  0.00  0.00    +0.000 A 
ATOM      5  C   UNL     1       1.002   3.962  19.905  0.00  0.00    +0.000 A 
ATOM      6  C   UNL     1       0.424   2.770  19.446  0.00  0.00    +0.000 A 
ATOM      7  C   UNL     1       1.099   1.965  18.538  0.00  0.00    +0.000 A 
ATOM      8  C   UNL     1       2.348   2.357  18.080  0.00  0.00    +0.000 A 
ATOM      9  C   UNL     1       2.918   3.559  18.526  0.00  0.00    +0.000 A 
ATOM     10  C   UNL     1       4.236   3.957  17.973  0.00  0.00    +0.000 A 
ATOM     11  O   UNL     1       4.808   3.226  17.171  0.00  0.00    +0.000 OA
ENDROOT
BRANCH   1  12
ATOM     12  C   UNL     1       6.047   5.872  17.859  0.00  0.00    +0.000 C 
ATOM     13  O   UNL     1       6.880   6.378  18.608  0.00  0.00    +0.000 OA
BRANCH  12  15
ATOM     14  C   UNL     1       7.109   4.906  15.823  0.00  0.00    +0.000 C 
ATOM     15  C   UNL     1       6.265   5.771  16.396  0.00  0.00    +0.000 C 
BRANCH  14  16
ATOM     16  C   UNL     1       7.116   4.854  14.328  0.00  0.00    +0.000 C 
ATOM     17  O   UNL     1       7.796   5.551  13.594  0.00  0.00    +0.000 OA
BRANCH  16  18
ATOM     18  O   UNL     1       6.131   3.994  13.948  0.00  0.00    +0.000 OA
BRANCH  18  20
ATOM     19  C   UNL     1       4.879   3.425  11.994  0.00  0.00    +0.000 C 
ATOM     20  C   UNL     1       6.265   3.494  12.610  0.00  0.00    +0.000 C 
ENDBRANCH  18  20
ENDBRANCH  16  18
ENDBRANCH  14  16
BRANCH  14  21
ATOM     21  O   UNL     1       7.914   4.029  16.530  0.00  0.00    +0.000 OA
ATOM     22  H   UNL     1       7.355   3.669  17.247  0.00  0.00    +0.000 HD
ENDBRANCH  14  21
ENDBRANCH  12  15
ENDBRANCH   1  12
BRANCH   3  23
ATOM     23  C   UNL     1       2.202   6.476  20.848  0.00  0.00    +0.000 C 
BRANCH  23  24
ATOM     24  C   UNL     1       1.726   7.772  20.231  0.00  0.00    +0.000 A 
ATOM     25  C   UNL     1       2.010   8.094  18.895  0.00  0.00    +0.000 A 
ATOM     26  C   UNL     1       1.662   9.343  18.385  0.00  0.00    +0.000 A 
ATOM     27  F   UNL     1       1.971   9.644  17.117  0.00  0.00    +0.000 F 
ATOM     28  C   UNL     1       1.023  10.290  19.175  0.00  0.00    +0.000 A 
ATOM     29  C   UNL     1       0.711   9.976  20.496  0.00  0.00    +0.000 A 
ATOM     30  C   UNL     1       1.065   8.729  21.010  0.00  0.00    +0.000 A 
ATOM     31  F   UNL     1       0.779   8.465  22.293  0.00  0.00    +0.000 F 
ENDBRANCH  23  24
ENDBRANCH   3  23
TORSDOF 8
ENDMDL
MODEL 2
REMARK VINA RESULT:      -8.7      1.178      2.059
REMARK  Name = 
REMARK  9 active torsions:
REMARK  status: ('A' for Active; 'I' for Inactive)
REMARK    1  A    between atoms: C_1  and  C_2
REMARK    2  A    between atoms: C_2  and  O_3
REMARK    3  A    between atoms: O_3  and  C_4
REMARK    4  A    between atoms: C_4  and  C_6
REMARK    5  A    between atoms: C_6  and  O_7
REMARK    6  A    between atoms: C_8  and  C_9
REMARK    7  A    between atoms: C_9  and  C_11
REMARK    8  A    between atoms: N_13  and  C_14
REMARK    9  A    between atoms: C_14  and  C_15
REMARK                            x       y       z     vdW  Elec       q    Type
REMARK                         _______ _______ _______ _____ _____    ______ ____
ROOT
ATOM      1  C   UNL     1       5.101   5.983  18.222  0.00  0.00    +0.000 A 
ATOM      2  C   UNL     1       3.974   6.700  18.095  0.00  0.00    +0.000 A 
ATOM      3  N   UNL     1       2.712   6.375  18.582  0.00  0.00    +0.000 N 
ATOM      4  C   UNL     1       2.545   5.156  19.278  0.00  0.00    +0.000 A 
ATOM      5  C   UNL     1       1.314   4.691  19.765  0.00  0.00    +0.000 A 
ATOM      6  C   UNL     1       1.202   3.468  20.441  0.00  0.00    +0.000 A 
ATOM      7  C   UNL     1       2.324   2.682  20.665  0.00  0.00    +0.000 A 
ATOM      8  C   UNL     1       3.559   3.114  20.203  0.00  0.00    +0.000 A 
ATOM      9  C   UNL     1       3.667   4.329  19.512  0.00  0.00    +0.000 A 
ATOM     10  C   UNL     1       5.002   4.727  18.999  0.00  0.00    +0.000 A 
ATOM     11  O   UNL     1       5.976   4.012  19.211  0.00  0.00    +0.000 OA
ENDROOT
BRANCH   1  12
ATOM     12  C   UNL     1       6.324   6.469  17.523  0.00  0.00    +0.000 C 
ATOM     13  O   UNL     1       7.215   7.047  18.142  0.00  0.00    +0.000 OA
BRANCH  12  15
ATOM     14  C   UNL     1       7.127   5.096  15.606  0.00  0.00    +0.000 C 
ATOM     15  C   UNL     1       6.451   6.148  16.081  0.00  0.00    +0.000 C 
BRANCH  14  16
ATOM     16  C   UNL     1       7.051   4.852  14.131  0.00  0.00    +0.000 C 
ATOM     17  O   UNL     1       7.698   5.435  13.278  0.00  0.00    +0.000 OA
BRANCH  16  18
ATOM     18  O   UNL     1       6.035   3.969  13.919  0.00  0.00    +0.000 OA
BRANCH  18  20
ATOM     19  C   UNL     1       4.742   3.471  11.973  0.00  0.00    +0.000 C 
ATOM     20  C   UNL     1       6.090   3.299  12.651  0.00  0.00    +0.000 C 
ENDBRANCH  18  20
ENDBRANCH  16  18
ENDBRANCH  14  16
BRANCH  14  21
ATOM     21  O   UNL     1       7.827   4.204  16.400  0.00  0.00    +0.000 OA
ATOM     22  H   UNL     1       7.397   4.231  17.278  0.00  0.00    +0.000 HD
ENDBRANCH  14  21
ENDBRANCH  12  15
ENDBRANCH   1  12
BRANCH   3  23
ATOM     23  C   UNL     1       1.545   7.244  18.324  0.00  0.00    +0.000 C 
BRANCH  23  24
ATOM     24  C   UNL     1       1.430   8.388  19.306  0.00  0.00    +0.000 A 
ATOM     25  C   UNL     1       1.377   8.161  20.690  0.00  0.00    +0.000 A 
ATOM     26  C   UNL     1       1.153   9.220  21.567  0.00  0.00    +0.000 A 
ATOM     27  F   UNL     1       1.073   8.979  22.881  0.00  0.00    +0.000 F 
ATOM     28  C   UNL     1       0.985  10.517  21.099  0.00  0.00    +0.000 A 
ATOM     29  C   UNL     1       1.060  10.763  19.730  0.00  0.00    +0.000 A 
ATOM     30  C   UNL     1       1.278   9.703  18.851  0.00  0.00    +0.000 A 
ATOM     31  F   UNL     1       1.315   9.964  17.536  0.00  0.00    +0.000 F 
ENDBRANCH  23  24
ENDBRANCH   3  23
TORSDOF 8
ENDMDL
MODEL 3
REMARK VINA RESULT:      -8.5      2.744      4.681
REMARK  Name = 
REMARK  9 active torsions:
REMARK  status: ('A' for Active; 'I' for Inactive)
REMARK    1  A    between atoms: C_1  and  C_2
REMARK    2  A    between atoms: C_2  and  O_3
REMARK    3  A    between atoms: O_3  and  C_4
REMARK    4  A    between atoms: C_4  and  C_6
REMARK    5  A    between atoms: C_6  and  O_7
REMARK    6  A    between atoms: C_8  and  C_9
REMARK    7  A    between atoms: C_9  and  C_11
REMARK    8  A    between atoms: N_13  and  C_14
REMARK    9  A    between atoms: C_14  and  C_15
REMARK                            x       y       z     vdW  Elec       q    Type
REMARK                         _______ _______ _______ _____ _____    ______ ____
ROOT
ATOM      1  C   UNL     1       5.745   6.139  17.682  0.00  0.00    +0.000 A 
ATOM      2  C   UNL     1       4.558   6.753  17.558  0.00  0.00    +0.000 A 
ATOM      3  N   UNL     1       3.337   6.334  18.076  0.00  0.00    +0.000 N 
ATOM      4  C   UNL     1       3.287   5.123  18.805  0.00  0.00    +0.000 A 
ATOM      5  C   UNL     1       2.109   4.568  19.325  0.00  0.00    +0.000 A 
ATOM      6  C   UNL     1       2.113   3.357  20.033  0.00  0.00    +0.000 A 
ATOM      7  C   UNL     1       3.303   2.676  20.255  0.00  0.00    +0.000 A 
ATOM      8  C   UNL     1       4.488   3.200  19.761  0.00  0.00    +0.000 A 
ATOM      9  C   UNL     1       4.480   4.403  19.038  0.00  0.00    +0.000 A 
ATOM     10  C   UNL     1       5.767   4.899  18.491  0.00  0.00    +0.000 A 
ATOM     11  O   UNL     1       6.802   4.276  18.703  0.00  0.00    +0.000 OA
ENDROOT
BRANCH   1  12
ATOM     12  C   UNL     1       6.910   6.710  16.950  0.00  0.00    +0.000 C 
ATOM     13  O   UNL     1       7.446   6.087  16.035  0.00  0.00    +0.000 OA
BRANCH  12  15
ATOM     14  C   UNL     1       8.183   8.369  18.305  0.00  0.00    +0.000 C 
ATOM     15  C   UNL     1       7.330   8.085  17.315  0.00  0.00    +0.000 C 
BRANCH  14  16
ATOM     16  C   UNL     1       8.591   9.800  18.458  0.00  0.00    +0.000 C 
ATOM     17  O   UNL     1       8.290  10.711  17.706  0.00  0.00    +0.000 OA
BRANCH  16  18
ATOM     18  O   UNL     1       9.464   9.863  19.501  0.00  0.00    +0.000 OA
BRANCH  18  20
ATOM     19  C   UNL     1      10.686  11.734  20.346  0.00  0.00    +0.000 C 
ATOM     20  C   UNL     1       9.336  11.041  20.310  0.00  0.00    +0.000 C 
ENDBRANCH  18  20
ENDBRANCH  16  18
ENDBRANCH  14  16
BRANCH  14  21
ATOM     21  O   UNL     1       8.744   7.417  19.138  0.00  0.00    +0.000 OA
ATOM     22  H   UNL     1       8.369   6.558  18.857  0.00  0.00    +0.000 HD
ENDBRANCH  14  21
ENDBRANCH  12  15
ENDBRANCH   1  12
BRANCH   3  23
ATOM     23  C   UNL     1       2.096   7.093  17.818  0.00  0.00    +0.000 C 
BRANCH  23  24
ATOM     24  C   UNL     1       1.823   8.153  18.861  0.00  0.00    +0.000 A 
ATOM     25  C   UNL     1       1.727   7.832  20.224  0.00  0.00    +0.000 A 
ATOM     26  C   UNL     1       1.359   8.805  21.151  0.00  0.00    +0.000 A 
ATOM     27  F   UNL     1       1.240   8.470  22.442  0.00  0.00    +0.000 F 
ATOM     28  C   UNL     1       1.087  10.108  20.755  0.00  0.00    +0.000 A 
ATOM     29  C   UNL     1       1.203  10.450  19.410  0.00  0.00    +0.000 A 
ATOM     30  C   UNL     1       1.565   9.475  18.480  0.00  0.00    +0.000 A 
ATOM     31  F   UNL     1       1.639   9.825  17.187  0.00  0.00    +0.000 F 
ENDBRANCH  23  24
ENDBRANCH   3  23
TORSDOF 8
ENDMDL
MODEL 4
REMARK VINA RESULT:      -8.3      1.296      2.176
REMARK  Name = 
REMARK  9 active torsions:
REMARK  status: ('A' for Active; 'I' for Inactive)
REMARK    1  A    between atoms: C_1  and  C_2
REMARK    2  A    between atoms: C_2  and  O_3
REMARK    3  A    between atoms: O_3  and  C_4
REMARK    4  A    between atoms: C_4  and  C_6
REMARK    5  A    between atoms: C_6  and  O_7
REMARK    6  A    between atoms: C_8  and  C_9
REMARK    7  A    between atoms: C_9  and  C_11
REMARK    8  A    between atoms: N_13  and  C_14
REMARK    9  A    between atoms: C_14  and  C_15
REMARK                            x       y       z     vdW  Elec       q    Type
REMARK                         _______ _______ _______ _____ _____    ______ ____
ROOT
ATOM      1  C   UNL     1       5.124   4.630  18.748  0.00  0.00    +0.000 A 
ATOM      2  C   UNL     1       4.226   5.541  18.342  0.00  0.00    +0.000 A 
ATOM      3  N   UNL     1       2.876   5.595  18.672  0.00  0.00    +0.000 N 
ATOM      4  C   UNL     1       2.340   4.591  19.510  0.00  0.00    +0.000 A 
ATOM      5  C   UNL     1       0.986   4.504  19.866  0.00  0.00    +0.000 A 
ATOM      6  C   UNL     1       0.504   3.480  20.694  0.00  0.00    +0.000 A 
ATOM      7  C   UNL     1       1.369   2.522  21.204  0.00  0.00    +0.000 A 
ATOM      8  C   UNL     1       2.716   2.581  20.879  0.00  0.00    +0.000 A 
ATOM      9  C   UNL     1       3.194   3.596  20.037  0.00  0.00    +0.000 A 
ATOM     10  C   UNL     1       4.635   3.591  19.682  0.00  0.00    +0.000 A 
ATOM     11  O   UNL     1       5.376   2.731  20.147  0.00  0.00    +0.000 OA
ENDROOT
BRANCH   1  12
ATOM     12  C   UNL     1       6.500   4.700  18.181  0.00  0.00    +0.000 C 
ATOM     13  O   UNL     1       7.474   4.871  18.912  0.00  0.00    +0.000 OA
BRANCH  12  15
ATOM     14  C   UNL     1       7.179   5.352  15.874  0.00  0.00    +0.000 C 
ATOM     15  C   UNL     1       6.643   4.469  16.723  0.00  0.00    +0.000 C 
BRANCH  14  16
ATOM     16  C   UNL     1       7.356   4.907  14.457  0.00  0.00    +0.000 C 
ATOM     17  O   UNL     1       7.983   5.501  13.596  0.00  0.00    +0.000 OA
BRANCH  16  18
ATOM     18  O   UNL     1       6.579   3.802  14.279  0.00  0.00    +0.000 OA
BRANCH  18  20
ATOM     19  C   UNL     1       5.868   3.110  12.106  0.00  0.00    +0.000 C 
ATOM     20  C   UNL     1       5.530   3.966  13.314  0.00  0.00    +0.000 C 
ENDBRANCH  18  20
ENDBRANCH  16  18
ENDBRANCH  14  16
BRANCH  14  21
ATOM     21  O   UNL     1       7.626   6.607  16.246  0.00  0.00    +0.000 OA
ATOM     22  H   UNL     1       7.964   6.513  17.159  0.00  0.00    +0.000 HD
ENDBRANCH  14  21
ENDBRANCH  12  15
ENDBRANCH   1  12
BRANCH   3  23
ATOM     23  C   UNL     1       1.992   6.637  18.108  0.00  0.00    +0.000 C 
BRANCH  23  24
ATOM     24  C   UNL     1       1.789   7.809  19.040  0.00  0.00    +0.000 A 
ATOM     25  C   UNL     1       1.749   7.639  20.433  0.00  0.00    +0.000 A 
ATOM     26  C   UNL     1       1.444   8.716  21.263  0.00  0.00    +0.000 A 
ATOM     27  F   UNL     1       1.378   8.525  22.587  0.00  0.00    +0.000 F 
ATOM     28  C   UNL     1       1.182   9.975  20.740  0.00  0.00    +0.000 A 
ATOM     29  C   UNL     1       1.243  10.167  19.362  0.00  0.00    +0.000 A 
ATOM     30  C   UNL     1       1.542   9.089  18.529  0.00  0.00    +0.000 A 
ATOM     31  F   UNL     1       1.564   9.295  17.204  0.00  0.00    +0.000 F 
ENDBRANCH  23  24
ENDBRANCH   3  23
TORSDOF 8
ENDMDL
MODEL 5
REMARK VINA RESULT:      -8.3      3.824      7.098
REMARK  Name = 
REMARK  9 active torsions:
REMARK  status: ('A' for Active; 'I' for Inactive)
REMARK    1  A    between atoms: C_1  and  C_2
REMARK    2  A    between atoms: C_2  and  O_3
REMARK    3  A    between atoms: O_3  and  C_4
REMARK    4  A    between atoms: C_4  and  C_6
REMARK    5  A    between atoms: C_6  and  O_7
REMARK    6  A    between atoms: C_8  and  C_9
REMARK    7  A    between atoms: C_9  and  C_11
REMARK    8  A    between atoms: N_13  and  C_14
REMARK    9  A    between atoms: C_14  and  C_15
REMARK                            x       y       z     vdW  Elec       q    Type
REMARK                         _______ _______ _______ _____ _____    ______ ____
ROOT
ATOM      1  C   UNL     1       2.405   6.808  18.609  0.00  0.00    +0.000 A 
ATOM      2  C   UNL     1       2.896   5.909  17.741  0.00  0.00    +0.000 A 
ATOM      3  N   UNL     1       3.118   4.555  17.969  0.00  0.00    +0.000 N 
ATOM      4  C   UNL     1       2.829   4.025  19.247  0.00  0.00    +0.000 A 
ATOM      5  C   UNL     1       3.065   2.692  19.617  0.00  0.00    +0.000 A 
ATOM      6  C   UNL     1       2.768   2.219  20.903  0.00  0.00    +0.000 A 
ATOM      7  C   UNL     1       2.210   3.064  21.852  0.00  0.00    +0.000 A 
ATOM      8  C   UNL     1       1.956   4.386  21.520  0.00  0.00    +0.000 A 
ATOM      9  C   UNL     1       2.269   4.863  20.238  0.00  0.00    +0.000 A 
ATOM     10  C   UNL     1       2.021   6.296  19.944  0.00  0.00    +0.000 A 
ATOM     11  O   UNL     1       1.528   7.020  20.803  0.00  0.00    +0.000 OA
ENDROOT
BRANCH   1  12
ATOM     12  C   UNL     1       2.352   8.235  18.186  0.00  0.00    +0.000 C 
ATOM     13  O   UNL     1       2.996   8.628  17.215  0.00  0.00    +0.000 OA
BRANCH  12  15
ATOM     14  C   UNL     1       1.269  10.428  18.662  0.00  0.00    +0.000 C 
ATOM     15  C   UNL     1       1.429   9.127  18.929  0.00  0.00    +0.000 C 
BRANCH  14  16
ATOM     16  C   UNL     1       0.207  11.150  19.430  0.00  0.00    +0.000 C 
ATOM     17  O   UNL     1       0.397  12.023  20.260  0.00  0.00    +0.000 OA
BRANCH  16  18
ATOM     18  O   UNL     1      -0.983  10.558  19.131  0.00  0.00    +0.000 OA
BRANCH  18  20
ATOM     19  C   UNL     1      -2.078   9.923  17.105  0.00  0.00    +0.000 C 
ATOM     20  C   UNL     1      -1.633  11.090  17.969  0.00  0.00    +0.000 C 
ENDBRANCH  18  20
ENDBRANCH  16  18
ENDBRANCH  14  16
BRANCH  14  21
ATOM     21  O   UNL     1       1.977  11.110  17.688  0.00  0.00    +0.000 OA
ATOM     22  H   UNL     1       1.817  12.060  17.855  0.00  0.00    +0.000 HD
ENDBRANCH  14  21
ENDBRANCH  12  15
ENDBRANCH   1  12
BRANCH   3  23
ATOM     23  C   UNL     1       3.711   3.691  16.927  0.00  0.00    +0.000 C 
BRANCH  23  24
ATOM     24  C   UNL     1       5.056   4.183  16.445  0.00  0.00    +0.000 A 
ATOM     25  C   UNL     1       5.321   4.372  15.079  0.00  0.00    +0.000 A 
ATOM     26  C   UNL     1       6.603   4.713  14.653  0.00  0.00    +0.000 A 
ATOM     27  F   UNL     1       6.843   4.855  13.343  0.00  0.00    +0.000 F 
ATOM     28  C   UNL     1       7.641   4.881  15.560  0.00  0.00    +0.000 A 
ATOM     29  C   UNL     1       7.389   4.723  16.920  0.00  0.00    +0.000 A 
ATOM     30  C   UNL     1       6.108   4.375  17.349  0.00  0.00    +0.000 A 
ATOM     31  F   UNL     1       5.902   4.200  18.662  0.00  0.00    +0.000 F 
ENDBRANCH  23  24
ENDBRANCH   3  23
TORSDOF 8
ENDMDL
MODEL 6
REMARK VINA RESULT:      -8.2      3.536      6.432
REMARK  Name = 
REMARK  9 active torsions:
REMARK  status: ('A' for Active; 'I' for Inactive)
REMARK    1  A    between atoms: C_1  and  C_2
REMARK    2  A    between atoms: C_2  and  O_3
REMARK    3  A    between atoms: O_3  and  C_4
REMARK    4  A    between atoms: C_4  and  C_6
REMARK    5  A    between atoms: C_6  and  O_7
REMARK    6  A    between atoms: C_8  and  C_9
REMARK    7  A    between atoms: C_9  and  C_11
REMARK    8  A    between atoms: N_13  and  C_14
REMARK    9  A    between atoms: C_14  and  C_15
REMARK                            x       y       z     vdW  Elec       q    Type
REMARK                         _______ _______ _______ _____ _____    ______ ____
ROOT
ATOM      1  C   UNL     1       1.499   8.844  18.989  0.00  0.00    +0.000 A 
ATOM      2  C   UNL     1       0.832   9.912  18.524  0.00  0.00    +0.000 A 
ATOM      3  N   UNL     1       0.015  10.774  19.248  0.00  0.00    +0.000 N 
ATOM      4  C   UNL     1      -0.181  10.527  20.626  0.00  0.00    +0.000 A 
ATOM      5  C   UNL     1      -1.026  11.288  21.448  0.00  0.00    +0.000 A 
ATOM      6  C   UNL     1      -1.193  10.994  22.809  0.00  0.00    +0.000 A 
ATOM      7  C   UNL     1      -0.504   9.938  23.390  0.00  0.00    +0.000 A 
ATOM      8  C   UNL     1       0.346   9.169  22.609  0.00  0.00    +0.000 A 
ATOM      9  C   UNL     1       0.499   9.453  21.244  0.00  0.00    +0.000 A 
ATOM     10  C   UNL     1       1.384   8.574  20.440  0.00  0.00    +0.000 A 
ATOM     11  O   UNL     1       1.980   7.648  20.981  0.00  0.00    +0.000 OA
ENDROOT
BRANCH   1  12
ATOM     12  C   UNL     1       2.232   7.993  18.010  0.00  0.00    +0.000 C 
ATOM     13  O   UNL     1       2.922   8.500  17.129  0.00  0.00    +0.000 OA
BRANCH  12  15
ATOM     14  C   UNL     1       3.114   5.671  17.821  0.00  0.00    +0.000 C 
ATOM     15  C   UNL     1       2.158   6.525  18.203  0.00  0.00    +0.000 C 
BRANCH  14  16
ATOM     16  C   UNL     1       2.933   4.236  18.203  0.00  0.00    +0.000 C 
ATOM     17  O   UNL     1       3.828   3.438  18.424  0.00  0.00    +0.000 OA
BRANCH  16  18
ATOM     18  O   UNL     1       1.601   3.960  18.119  0.00  0.00    +0.000 OA
BRANCH  18  20
ATOM     19  C   UNL     1       1.000   3.747  20.421  0.00  0.00    +0.000 C 
ATOM     20  C   UNL     1       1.129   3.020  19.094  0.00  0.00    +0.000 C 
ENDBRANCH  18  20
ENDBRANCH  16  18
ENDBRANCH  14  16
BRANCH  14  21
ATOM     21  O   UNL     1       4.270   6.051  17.160  0.00  0.00    +0.000 OA
ATOM     22  H   UNL     1       4.685   6.738  17.717  0.00  0.00    +0.000 HD
ENDBRANCH  14  21
ENDBRANCH  12  15
ENDBRANCH   1  12
BRANCH   3  23
ATOM     23  C   UNL     1      -0.696  11.888  18.588  0.00  0.00    +0.000 C 
BRANCH  23  24
ATOM     24  C   UNL     1      -1.990  11.460  17.932  0.00  0.00    +0.000 A 
ATOM     25  C   UNL     1      -1.997  10.756  16.718  0.00  0.00    +0.000 A 
ATOM     26  C   UNL     1      -3.202  10.475  16.077  0.00  0.00    +0.000 A 
ATOM     27  F   UNL     1      -3.186   9.832  14.903  0.00  0.00    +0.000 F 
ATOM     28  C   UNL     1      -4.416  10.875  16.620  0.00  0.00    +0.000 A 
ATOM     29  C   UNL     1      -4.427  11.552  17.837  0.00  0.00    +0.000 A 
ATOM     30  C   UNL     1      -3.222  11.839  18.478  0.00  0.00    +0.000 A 
ATOM     31  F   UNL     1      -3.261  12.519  19.633  0.00  0.00    +0.000 F 
ENDBRANCH  23  24
ENDBRANCH   3  23
TORSDOF 8
ENDMDL
MODEL 7
REMARK VINA RESULT:      -8.2      3.872      7.472
REMARK  Name = 
REMARK  9 active torsions:
REMARK  status: ('A' for Active; 'I' for Inactive)
REMARK    1  A    between atoms: C_1  and  C_2
REMARK    2  A    between atoms: C_2  and  O_3
REMARK    3  A    between atoms: O_3  and  C_4
REMARK    4  A    between atoms: C_4  and  C_6
REMARK    5  A    between atoms: C_6  and  O_7
REMARK    6  A    between atoms: C_8  and  C_9
REMARK    7  A    between atoms: C_9  and  C_11
REMARK    8  A    between atoms: N_13  and  C_14
REMARK    9  A    between atoms: C_14  and  C_15
REMARK                            x       y       z     vdW  Elec       q    Type
REMARK                         _______ _______ _______ _____ _____    ______ ____
ROOT
ATOM      1  C   UNL     1       2.285   6.870  18.697  0.00  0.00    +0.000 A 
ATOM      2  C   UNL     1       2.766   6.010  17.787  0.00  0.00    +0.000 A 
ATOM      3  N   UNL     1       3.016   4.652  17.962  0.00  0.00    +0.000 N 
ATOM      4  C   UNL     1       2.769   4.075  19.229  0.00  0.00    +0.000 A 
ATOM      5  C   UNL     1       3.036   2.734  19.546  0.00  0.00    +0.000 A 
ATOM      6  C   UNL     1       2.782   2.213  20.823  0.00  0.00    +0.000 A 
ATOM      7  C   UNL     1       2.236   3.016  21.815  0.00  0.00    +0.000 A 
ATOM      8  C   UNL     1       1.952   4.345  21.534  0.00  0.00    +0.000 A 
ATOM      9  C   UNL     1       2.223   4.870  20.262  0.00  0.00    +0.000 A 
ATOM     10  C   UNL     1       1.945   6.308  20.024  0.00  0.00    +0.000 A 
ATOM     11  O   UNL     1       1.463   6.993  20.920  0.00  0.00    +0.000 OA
ENDROOT
BRANCH   1  12
ATOM     12  C   UNL     1       2.198   8.310  18.324  0.00  0.00    +0.000 C 
ATOM     13  O   UNL     1       2.704   8.722  17.282  0.00  0.00    +0.000 OA
BRANCH  12  15
ATOM     14  C   UNL     1       0.376   9.939  18.807  0.00  0.00    +0.000 C 
ATOM     15  C   UNL     1       1.407   9.193  19.216  0.00  0.00    +0.000 C 
BRANCH  14  16
ATOM     16  C   UNL     1      -0.387  10.677  19.862  0.00  0.00    +0.000 C 
ATOM     17  O   UNL     1      -1.429  11.285  19.694  0.00  0.00    +0.000 OA
BRANCH  16  18
ATOM     18  O   UNL     1       0.369  10.657  20.996  0.00  0.00    +0.000 OA
BRANCH  18  20
ATOM     19  C   UNL     1      -0.572   9.901  23.058  0.00  0.00    +0.000 C 
ATOM     20  C   UNL     1      -0.318  11.108  22.172  0.00  0.00    +0.000 C 
ENDBRANCH  18  20
ENDBRANCH  16  18
ENDBRANCH  14  16
BRANCH  14  21
ATOM     21  O   UNL     1      -0.052  10.011  17.493  0.00  0.00    +0.000 OA
ATOM     22  H   UNL     1      -0.154   9.086  17.191  0.00  0.00    +0.000 HD
ENDBRANCH  14  21
ENDBRANCH  12  15
ENDBRANCH   1  12
BRANCH   3  23
ATOM     23  C   UNL     1       3.594   3.834  16.876  0.00  0.00    +0.000 C 
BRANCH  23  24
ATOM     24  C   UNL     1       4.974   4.291  16.461  0.00  0.00    +0.000 A 
ATOM     25  C   UNL     1       5.295   4.520  15.114  0.00  0.00    +0.000 A 
ATOM     26  C   UNL     1       6.603   4.826  14.746  0.00  0.00    +0.000 A 
ATOM     27  F   UNL     1       6.896   5.008  13.452  0.00  0.00    +0.000 F 
ATOM     28  C   UNL     1       7.613   4.921  15.694  0.00  0.00    +0.000 A 
ATOM     29  C   UNL     1       7.306   4.722  17.038  0.00  0.00    +0.000 A 
ATOM     30  C   UNL     1       5.998   4.409  17.408  0.00  0.00    +0.000 A 
ATOM     31  F   UNL     1       5.738   4.193  18.705  0.00  0.00    +0.000 F 
ENDBRANCH  23  24
ENDBRANCH   3  23
TORSDOF 8
ENDMDL
MODEL 8
REMARK VINA RESULT:      -8.1      3.812      7.602
REMARK  Name = 
REMARK  9 active torsions:
REMARK  status: ('A' for Active; 'I' for Inactive)
REMARK    1  A    between atoms: C_1  and  C_2
REMARK    2  A    between atoms: C_2  and  O_3
REMARK    3  A    between atoms: O_3  and  C_4
REMARK    4  A    between atoms: C_4  and  C_6
REMARK    5  A    between atoms: C_6  and  O_7
REMARK    6  A    between atoms: C_8  and  C_9
REMARK    7  A    between atoms: C_9  and  C_11
REMARK    8  A    between atoms: N_13  and  C_14
REMARK    9  A    between atoms: C_14  and  C_15
REMARK                            x       y       z     vdW  Elec       q    Type
REMARK                         _______ _______ _______ _____ _____    ______ ____
ROOT
ATOM      1  C   UNL     1       2.215   6.920  18.754  0.00  0.00    +0.000 A 
ATOM      2  C   UNL     1       2.684   6.117  17.787  0.00  0.00    +0.000 A 
ATOM      3  N   UNL     1       2.965   4.758  17.885  0.00  0.00    +0.000 N 
ATOM      4  C   UNL     1       2.769   4.112  19.127  0.00  0.00    +0.000 A 
ATOM      5  C   UNL     1       3.072   2.763  19.366  0.00  0.00    +0.000 A 
ATOM      6  C   UNL     1       2.867   2.172  20.621  0.00  0.00    +0.000 A 
ATOM      7  C   UNL     1       2.337   2.912  21.670  0.00  0.00    +0.000 A 
ATOM      8  C   UNL     1       2.020   4.247  21.466  0.00  0.00    +0.000 A 
ATOM      9  C   UNL     1       2.241   4.842  20.215  0.00  0.00    +0.000 A 
ATOM     10  C   UNL     1       1.928   6.284  20.060  0.00  0.00    +0.000 A 
ATOM     11  O   UNL     1       1.461   6.913  21.004  0.00  0.00    +0.000 OA
ENDROOT
BRANCH   1  12
ATOM     12  C   UNL     1       2.089   8.375  18.459  0.00  0.00    +0.000 C 
ATOM     13  O   UNL     1       2.279   8.805  17.323  0.00  0.00    +0.000 OA
BRANCH  12  15
ATOM     14  C   UNL     1       1.105  10.465  19.391  0.00  0.00    +0.000 C 
ATOM     15  C   UNL     1       1.642   9.253  19.567  0.00  0.00    +0.000 C 
BRANCH  14  16
ATOM     16  C   UNL     1       0.597  11.165  20.612  0.00  0.00    +0.000 C 
ATOM     17  O   UNL     1       1.124  12.120  21.158  0.00  0.00    +0.000 OA
BRANCH  16  18
ATOM     18  O   UNL     1      -0.471  10.454  21.072  0.00  0.00    +0.000 OA
BRANCH  18  20
ATOM     19  C   UNL     1       0.017   9.484  23.200  0.00  0.00    +0.000 C 
ATOM     20  C   UNL     1      -0.717  10.600  22.478  0.00  0.00    +0.000 C 
ENDBRANCH  18  20
ENDBRANCH  16  18
ENDBRANCH  14  16
BRANCH  14  21
ATOM     21  O   UNL     1       0.941  11.066  18.155  0.00  0.00    +0.000 OA
ATOM     22  H   UNL     1       1.437  10.513  17.519  0.00  0.00    +0.000 HD
ENDBRANCH  14  21
ENDBRANCH  12  15
ENDBRANCH   1  12
BRANCH   3  23
ATOM     23  C   UNL     1       3.525   4.009  16.741  0.00  0.00    +0.000 C 
BRANCH  23  24
ATOM     24  C   UNL     1       5.004   4.247  16.543  0.00  0.00    +0.000 A 
ATOM     25  C   UNL     1       5.868   4.430  17.634  0.00  0.00    +0.000 A 
ATOM     26  C   UNL     1       7.204   4.764  17.423  0.00  0.00    +0.000 A 
ATOM     27  F   UNL     1       8.004   4.968  18.477  0.00  0.00    +0.000 F 
ATOM     28  C   UNL     1       7.714   4.916  16.140  0.00  0.00    +0.000 A 
ATOM     29  C   UNL     1       6.876   4.712  15.046  0.00  0.00    +0.000 A 
ATOM     30  C   UNL     1       5.536   4.384  15.256  0.00  0.00    +0.000 A 
ATOM     31  F   UNL     1       4.745   4.224  14.185  0.00  0.00    +0.000 F 
ENDBRANCH  23  24
ENDBRANCH   3  23
TORSDOF 8
ENDMDL
MODEL 9
REMARK VINA RESULT:      -8.1      4.070      7.255
REMARK  Name = 
REMARK  9 active torsions:
REMARK  status: ('A' for Active; 'I' for Inactive)
REMARK    1  A    between atoms: C_1  and  C_2
REMARK    2  A    between atoms: C_2  and  O_3
REMARK    3  A    between atoms: O_3  and  C_4
REMARK    4  A    between atoms: C_4  and  C_6
REMARK    5  A    between atoms: C_6  and  O_7
REMARK    6  A    between atoms: C_8  and  C_9
REMARK    7  A    between atoms: C_9  and  C_11
REMARK    8  A    between atoms: N_13  and  C_14
REMARK    9  A    between atoms: C_14  and  C_15
REMARK                            x       y       z     vdW  Elec       q    Type
REMARK                         _______ _______ _______ _____ _____    ______ ____
ROOT
ATOM      1  C   UNL     1       2.260   7.034  18.551  0.00  0.00    +0.000 A 
ATOM      2  C   UNL     1       2.724   6.155  17.650  0.00  0.00    +0.000 A 
ATOM      3  N   UNL     1       2.989   4.804  17.852  0.00  0.00    +0.000 N 
ATOM      4  C   UNL     1       2.779   4.256  19.139  0.00  0.00    +0.000 A 
ATOM      5  C   UNL     1       3.064   2.926  19.481  0.00  0.00    +0.000 A 
ATOM      6  C   UNL     1       2.847   2.434  20.777  0.00  0.00    +0.000 A 
ATOM      7  C   UNL     1       2.320   3.258  21.763  0.00  0.00    +0.000 A 
ATOM      8  C   UNL     1       2.020   4.577  21.457  0.00  0.00    +0.000 A 
ATOM      9  C   UNL     1       2.254   5.072  20.165  0.00  0.00    +0.000 A 
ATOM     10  C   UNL     1       1.959   6.502  19.900  0.00  0.00    +0.000 A 
ATOM     11  O   UNL     1       1.495   7.206  20.791  0.00  0.00    +0.000 OA
ENDROOT
BRANCH   1  12
ATOM     12  C   UNL     1       2.153   8.464  18.146  0.00  0.00    +0.000 C 
ATOM     13  O   UNL     1       3.152   9.105  17.829  0.00  0.00    +0.000 OA
BRANCH  12  15
ATOM     14  C   UNL     1       0.416  10.171  18.670  0.00  0.00    +0.000 C 
ATOM     15  C   UNL     1       0.789   9.041  18.060  0.00  0.00    +0.000 C 
BRANCH  14  16
ATOM     16  C   UNL     1      -0.963  10.675  18.377  0.00  0.00    +0.000 C 
ATOM     17  O   UNL     1      -1.606  11.439  19.076  0.00  0.00    +0.000 OA
BRANCH  16  18
ATOM     18  O   UNL     1      -1.408  10.016  17.271  0.00  0.00    +0.000 OA
BRANCH  18  20
ATOM     19  C   UNL     1      -2.817   9.855  15.348  0.00  0.00    +0.000 C 
ATOM     20  C   UNL     1      -2.467  10.685  16.570  0.00  0.00    +0.000 C 
ENDBRANCH  18  20
ENDBRANCH  16  18
ENDBRANCH  14  16
BRANCH  14  21
ATOM     21  O   UNL     1       1.244  10.916  19.491  0.00  0.00    +0.000 OA
ATOM     22  H   UNL     1       0.678  11.247  20.216  0.00  0.00    +0.000 HD
ENDBRANCH  14  21
ENDBRANCH  12  15
ENDBRANCH   1  12
BRANCH   3  23
ATOM     23  C   UNL     1       3.545   3.964  16.772  0.00  0.00    +0.000 C 
BRANCH  23  24
ATOM     24  C   UNL     1       5.017   4.208  16.530  0.00  0.00    +0.000 A 
ATOM     25  C   UNL     1       5.915   4.386  17.594  0.00  0.00    +0.000 A 
ATOM     26  C   UNL     1       7.242   4.726  17.344  0.00  0.00    +0.000 A 
ATOM     27  F   UNL     1       8.075   4.924  18.374  0.00  0.00    +0.000 F 
ATOM     28  C   UNL     1       7.711   4.888  16.047  0.00  0.00    +0.000 A 
ATOM     29  C   UNL     1       6.839   4.690  14.978  0.00  0.00    +0.000 A 
ATOM     30  C   UNL     1       5.508   4.356  15.227  0.00  0.00    +0.000 A 
ATOM     31  F   UNL     1       4.684   4.201  14.181  0.00  0.00    +0.000 F 
ENDBRANCH  23  24
ENDBRANCH   3  23
TORSDOF 8
ENDMDL
