MODEL 1
REMARK VINA RESULT:      -7.1      0.000      0.000
REMARK  Name = 
REMARK  7 active torsions:
REMARK  status: ('A' for Active; 'I' for Inactive)
REMARK    1  A    between atoms: C_1  and  O_2
REMARK    2  A    between atoms: O_2  and  C_3
REMARK    3  A    between atoms: C_9  and  C_10
REMARK    4  A    between atoms: C_10  and  C_11
REMARK    5  A    between atoms: C_10  and  N_12
REMARK    6  A    between atoms: N_15  and  S_16
REMARK    7  A    between atoms: S_16  and  C_19
REMARK                            x       y       z     vdW  Elec       q    Type
REMARK                         _______ _______ _______ _____ _____    ______ ____
ROOT
ATOM      1  N   UNL     1       2.370   7.284  19.542  0.00  0.00    +0.000 N 
ATOM      2  C   UNL     1       2.661   6.118  18.892  0.00  0.00    +0.000 C 
ATOM      3  O   UNL     1       2.223   5.838  17.790  0.00  0.00    +0.000 OA
ATOM      4  N   UNL     1       3.526   5.294  19.588  0.00  0.00    +0.000 N 
ATOM      5  H   UNL     1       2.820   7.520  20.414  0.00  0.00    +0.000 HD
ATOM      6  H   UNL     1       3.956   5.567  20.460  0.00  0.00    +0.000 HD
ENDROOT
BRANCH   4   7
ATOM      7  S   UNL     1       4.008   3.792  19.050  0.00  0.00    +0.000 S 
ATOM      8  O   UNL     1       4.791   3.225  20.129  0.00  0.00    +0.000 OA
ATOM      9  O   UNL     1       2.853   3.094  18.532  0.00  0.00    +0.000 OA
BRANCH   7  10
ATOM     10  C   UNL     1       5.142   4.128  17.725  0.00  0.00    +0.000 A 
ATOM     11  C   UNL     1       6.438   4.564  18.023  0.00  0.00    +0.000 A 
ATOM     12  C   UNL     1       7.336   4.815  16.984  0.00  0.00    +0.000 A 
ATOM     13  C   UNL     1       6.943   4.619  15.659  0.00  0.00    +0.000 A 
ATOM     14  C   UNL     1       5.651   4.180  15.365  0.00  0.00    +0.000 A 
ATOM     15  C   UNL     1       4.744   3.935  16.398  0.00  0.00    +0.000 A 
ENDBRANCH   7  10
ENDBRANCH   4   7
BRANCH   1  16
ATOM     16  C   UNL     1       1.582   8.320  18.898  0.00  0.00    +0.000 C 
ATOM     17  C   UNL     1       2.451   9.169  17.966  0.00  0.00    +0.000 C 
BRANCH  16  24
ATOM     18  C   UNL     1      -0.087  10.224  19.487  0.00  0.00    +0.000 A 
ATOM     19  C   UNL     1      -0.818  10.915  20.469  0.00  0.00    +0.000 A 
ATOM     20  C   UNL     1      -0.638  10.639  21.824  0.00  0.00    +0.000 A 
ATOM     21  C   UNL     1       0.264   9.659  22.208  0.00  0.00    +0.000 A 
ATOM     22 CL   UNL     1       0.488   9.314  23.878  0.00  0.00    +0.000 Cl
ATOM     23  C   UNL     1       0.976   8.944  21.246  0.00  0.00    +0.000 A 
ATOM     24  C   UNL     1       0.809   9.207  19.867  0.00  0.00    +0.000 A 
BRANCH  18  26
ATOM     25  C   UNL     1      -1.499  10.150  17.594  0.00  0.00    +0.000 C 
ATOM     26  O   UNL     1      -0.223  10.487  18.144  0.00  0.00    +0.000 OA
ENDBRANCH  18  26
ENDBRANCH  16  24
ENDBRANCH   1  16
TORSDOF 5
ENDMDL
MODEL 2
REMARK VINA RESULT:      -7.0      6.222      7.284
REMARK  Name = 
REMARK  7 active torsions:
REMARK  status: ('A' for Active; 'I' for Inactive)
REMARK    1  A    between atoms: C_1  and  O_2
REMARK    2  A    between atoms: O_2  and  C_3
REMARK    3  A    between atoms: C_9  and  C_10
REMARK    4  A    between atoms: C_10  and  C_11
REMARK    5  A    between atoms: C_10  and  N_12
REMARK    6  A    between atoms: N_15  and  S_16
REMARK    7  A    between atoms: S_16  and  C_19
REMARK                            x       y       z     vdW  Elec       q    Type
REMARK                         _______ _______ _______ _____ _____    ______ ____
ROOT
ATOM      1  N   UNL     1       8.903   9.325  19.090  0.00  0.00    +0.000 N 
ATOM      2  C   UNL     1       8.296   8.457  18.226  0.00  0.00    +0.000 C 
ATOM      3  O   UNL     1       7.888   8.785  17.125  0.00  0.00    +0.000 OA
ATOM      4  N   UNL     1       8.216   7.162  18.702  0.00  0.00    +0.000 N 
ATOM      5  H   UNL     1       9.307   8.999  19.956  0.00  0.00    +0.000 HD
ATOM      6  H   UNL     1       8.634   6.877  19.575  0.00  0.00    +0.000 HD
ENDROOT
BRANCH   4   7
ATOM      7  S   UNL     1       7.483   5.915  17.874  0.00  0.00    +0.000 S 
ATOM      8  O   UNL     1       7.660   6.224  16.470  0.00  0.00    +0.000 OA
ATOM      9  O   UNL     1       7.954   4.661  18.417  0.00  0.00    +0.000 OA
BRANCH   7  10
ATOM     10  C   UNL     1       5.751   6.099  18.219  0.00  0.00    +0.000 A 
ATOM     11  C   UNL     1       4.972   6.928  17.404  0.00  0.00    +0.000 A 
ATOM     12  C   UNL     1       3.608   7.063  17.665  0.00  0.00    +0.000 A 
ATOM     13  C   UNL     1       3.025   6.364  18.724  0.00  0.00    +0.000 A 
ATOM     14  C   UNL     1       3.805   5.534  19.532  0.00  0.00    +0.000 A 
ATOM     15  C   UNL     1       5.172   5.400  19.284  0.00  0.00    +0.000 A 
ENDBRANCH   7  10
ENDBRANCH   4   7
BRANCH   1  16
ATOM     16  C   UNL     1       9.186  10.694  18.697  0.00  0.00    +0.000 C 
ATOM     17  C   UNL     1      10.580  10.807  18.072  0.00  0.00    +0.000 C 
BRANCH  16  24
ATOM     18  C   UNL     1       8.944  13.106  19.636  0.00  0.00    +0.000 A 
ATOM     19  C   UNL     1       8.690  13.942  20.736  0.00  0.00    +0.000 A 
ATOM     20  C   UNL     1       8.552  13.417  22.021  0.00  0.00    +0.000 A 
ATOM     21  C   UNL     1       8.653  12.047  22.214  0.00  0.00    +0.000 A 
ATOM     22 CL   UNL     1       8.483  11.395  23.795  0.00  0.00    +0.000 Cl
ATOM     23  C   UNL     1       8.875  11.201  21.129  0.00  0.00    +0.000 A 
ATOM     24  C   UNL     1       9.018  11.711  19.818  0.00  0.00    +0.000 A 
BRANCH  18  26
ATOM     25  C   UNL     1      10.104  14.609  18.229  0.00  0.00    +0.000 C 
ATOM     26  O   UNL     1       9.107  13.593  18.360  0.00  0.00    +0.000 OA
ENDBRANCH  18  26
ENDBRANCH  16  24
ENDBRANCH   1  16
TORSDOF 5
ENDMDL
MODEL 3
REMARK VINA RESULT:      -7.0      6.071      7.060
REMARK  Name = 
REMARK  7 active torsions:
REMARK  status: ('A' for Active; 'I' for Inactive)
REMARK    1  A    between atoms: C_1  and  O_2
REMARK    2  A    between atoms: O_2  and  C_3
REMARK    3  A    between atoms: C_9  and  C_10
REMARK    4  A    between atoms: C_10  and  C_11
REMARK    5  A    between atoms: C_10  and  N_12
REMARK    6  A    between atoms: N_15  and  S_16
REMARK    7  A    between atoms: S_16  and  C_19
REMARK                            x       y       z     vdW  Elec       q    Type
REMARK                         _______ _______ _______ _____ _____    ______ ____
ROOT
ATOM      1  N   UNL     1       8.906   9.326  19.140  0.00  0.00    +0.000 N 
ATOM      2  C   UNL     1       8.319   8.471  18.250  0.00  0.00    +0.000 C 
ATOM      3  O   UNL     1       7.950   8.811  17.140  0.00  0.00    +0.000 OA
ATOM      4  N   UNL     1       8.209   7.173  18.714  0.00  0.00    +0.000 N 
ATOM      5  H   UNL     1       9.277   8.990  20.017  0.00  0.00    +0.000 HD
ATOM      6  H   UNL     1       8.595   6.877  19.598  0.00  0.00    +0.000 HD
ENDROOT
BRANCH   4   7
ATOM      7  S   UNL     1       7.491   5.941  17.854  0.00  0.00    +0.000 S 
ATOM      8  O   UNL     1       7.680   6.279  16.458  0.00  0.00    +0.000 OA
ATOM      9  O   UNL     1       7.962   4.677  18.376  0.00  0.00    +0.000 OA
BRANCH   7  10
ATOM     10  C   UNL     1       5.755   6.109  18.184  0.00  0.00    +0.000 A 
ATOM     11  C   UNL     1       5.187   5.409  19.255  0.00  0.00    +0.000 A 
ATOM     12  C   UNL     1       3.826   5.551  19.525  0.00  0.00    +0.000 A 
ATOM     13  C   UNL     1       3.041   6.397  18.740  0.00  0.00    +0.000 A 
ATOM     14  C   UNL     1       3.611   7.098  17.676  0.00  0.00    +0.000 A 
ATOM     15  C   UNL     1       4.970   6.955  17.392  0.00  0.00    +0.000 A 
ENDBRANCH   7  10
ENDBRANCH   4   7
BRANCH   1  16
ATOM     16  C   UNL     1       9.216  10.694  18.767  0.00  0.00    +0.000 C 
ATOM     17  C   UNL     1      10.649  10.806  18.238  0.00  0.00    +0.000 C 
BRANCH  16  24
ATOM     18  C   UNL     1       8.780  13.093  19.670  0.00  0.00    +0.000 A 
ATOM     19  C   UNL     1       8.466  13.923  20.760  0.00  0.00    +0.000 A 
ATOM     20  C   UNL     1       8.383  13.409  22.054  0.00  0.00    +0.000 A 
ATOM     21  C   UNL     1       8.599  12.056  22.267  0.00  0.00    +0.000 A 
ATOM     22 CL   UNL     1       8.497  11.418  23.860  0.00  0.00    +0.000 Cl
ATOM     23  C   UNL     1       8.883  11.214  21.194  0.00  0.00    +0.000 A 
ATOM     24  C   UNL     1       8.972  11.713  19.874  0.00  0.00    +0.000 A 
BRANCH  18  26
ATOM     25  C   UNL     1       7.668  14.035  17.810  0.00  0.00    +0.000 C 
ATOM     26  O   UNL     1       8.892  13.571  18.386  0.00  0.00    +0.000 OA
ENDBRANCH  18  26
ENDBRANCH  16  24
ENDBRANCH   1  16
TORSDOF 5
ENDMDL
MODEL 4
REMARK VINA RESULT:      -7.0      3.278      7.812
REMARK  Name = 
REMARK  7 active torsions:
REMARK  status: ('A' for Active; 'I' for Inactive)
REMARK    1  A    between atoms: C_1  and  O_2
REMARK    2  A    between atoms: O_2  and  C_3
REMARK    3  A    between atoms: C_9  and  C_10
REMARK    4  A    between atoms: C_10  and  C_11
REMARK    5  A    between atoms: C_10  and  N_12
REMARK    6  A    between atoms: N_15  and  S_16
REMARK    7  A    between atoms: S_16  and  C_19
REMARK                            x       y       z     vdW  Elec       q    Type
REMARK                         _______ _______ _______ _____ _____    ______ ____
ROOT
ATOM      1  N   UNL     1       2.728   6.387  20.375  0.00  0.00    +0.000 N 
ATOM      2  C   UNL     1       1.560   6.974  20.774  0.00  0.00    +0.000 C 
ATOM      3  O   UNL     1       0.463   6.480  20.583  0.00  0.00    +0.000 OA
ATOM      4  N   UNL     1       1.739   8.170  21.443  0.00  0.00    +0.000 N 
ATOM      5  H   UNL     1       3.622   6.783  20.627  0.00  0.00    +0.000 HD
ATOM      6  H   UNL     1       2.652   8.532  21.676  0.00  0.00    +0.000 HD
ENDROOT
BRANCH   4   7
ATOM      7  S   UNL     1       0.485   9.118  21.996  0.00  0.00    +0.000 S 
ATOM      8  O   UNL     1      -0.686   8.265  21.974  0.00  0.00    +0.000 OA
ATOM      9  O   UNL     1       0.900   9.767  23.219  0.00  0.00    +0.000 OA
BRANCH   7  10
ATOM     10  C   UNL     1       0.246  10.338  20.728  0.00  0.00    +0.000 A 
ATOM     11  C   UNL     1      -0.660  10.085  19.692  0.00  0.00    +0.000 A 
ATOM     12  C   UNL     1      -0.860  11.049  18.702  0.00  0.00    +0.000 A 
ATOM     13  C   UNL     1      -0.168  12.260  18.755  0.00  0.00    +0.000 A 
ATOM     14  C   UNL     1       0.732  12.511  19.793  0.00  0.00    +0.000 A 
ATOM     15  C   UNL     1       0.944  11.550  20.782  0.00  0.00    +0.000 A 
ENDBRANCH   7  10
ENDBRANCH   4   7
BRANCH   1  16
ATOM     16  C   UNL     1       2.731   5.065  19.774  0.00  0.00    +0.000 C 
ATOM     17  C   UNL     1       2.634   3.976  20.846  0.00  0.00    +0.000 C 
BRANCH  16  24
ATOM     18  C   UNL     1       3.845   4.098  17.633  0.00  0.00    +0.000 A 
ATOM     19  C   UNL     1       4.983   4.003  16.814  0.00  0.00    +0.000 A 
ATOM     20  C   UNL     1       6.199   4.561  17.208  0.00  0.00    +0.000 A 
ATOM     21  C   UNL     1       6.283   5.232  18.418  0.00  0.00    +0.000 A 
ATOM     22 CL   UNL     1       7.780   5.922  18.907  0.00  0.00    +0.000 Cl
ATOM     23  C   UNL     1       5.157   5.361  19.228  0.00  0.00    +0.000 A 
ATOM     24  C   UNL     1       3.914   4.805  18.849  0.00  0.00    +0.000 A 
BRANCH  18  26
ATOM     25  C   UNL     1       2.492   2.161  17.626  0.00  0.00    +0.000 C 
ATOM     26  O   UNL     1       2.636   3.541  17.285  0.00  0.00    +0.000 OA
ENDBRANCH  18  26
ENDBRANCH  16  24
ENDBRANCH   1  16
TORSDOF 5
ENDMDL
MODEL 5
REMARK VINA RESULT:      -6.9      3.189      8.381
REMARK  Name = 
REMARK  7 active torsions:
REMARK  status: ('A' for Active; 'I' for Inactive)
REMARK    1  A    between atoms: C_1  and  O_2
REMARK    2  A    between atoms: O_2  and  C_3
REMARK    3  A    between atoms: C_9  and  C_10
REMARK    4  A    between atoms: C_10  and  C_11
REMARK    5  A    between atoms: C_10  and  N_12
REMARK    6  A    between atoms: N_15  and  S_16
REMARK    7  A    between atoms: S_16  and  C_19
REMARK                            x       y       z     vdW  Elec       q    Type
REMARK                         _______ _______ _______ _____ _____    ______ ____
ROOT
ATOM      1  N   UNL     1       2.323   7.232  18.903  0.00  0.00    +0.000 N 
ATOM      2  C   UNL     1       1.852   8.452  18.507  0.00  0.00    +0.000 C 
ATOM      3  O   UNL     1       1.998   8.893  17.380  0.00  0.00    +0.000 OA
ATOM      4  N   UNL     1       1.165   9.131  19.496  0.00  0.00    +0.000 N 
ATOM      5  H   UNL     1       2.108   6.863  19.818  0.00  0.00    +0.000 HD
ATOM      6  H   UNL     1       0.970   8.726  20.400  0.00  0.00    +0.000 HD
ENDROOT
BRANCH   4   7
ATOM      7  S   UNL     1       0.527  10.658  19.298  0.00  0.00    +0.000 S 
ATOM      8  O   UNL     1       1.666  11.553  19.265  0.00  0.00    +0.000 OA
ATOM      9  O   UNL     1      -0.417  10.627  18.204  0.00  0.00    +0.000 OA
BRANCH   7  10
ATOM     10  C   UNL     1      -0.334  10.989  20.815  0.00  0.00    +0.000 A 
ATOM     11  C   UNL     1      -1.181  12.100  20.897  0.00  0.00    +0.000 A 
ATOM     12  C   UNL     1      -1.870  12.354  22.084  0.00  0.00    +0.000 A 
ATOM     13  C   UNL     1      -1.722  11.497  23.176  0.00  0.00    +0.000 A 
ATOM     14  C   UNL     1      -0.880  10.387  23.089  0.00  0.00    +0.000 A 
ATOM     15  C   UNL     1      -0.181  10.130  21.909  0.00  0.00    +0.000 A 
ENDBRANCH   7  10
ENDBRANCH   4   7
BRANCH   1  16
ATOM     16  C   UNL     1       2.955   6.333  17.954  0.00  0.00    +0.000 C 
ATOM     17  C   UNL     1       2.162   5.028  17.825  0.00  0.00    +0.000 C 
BRANCH  16  24
ATOM     18  C   UNL     1       4.887   4.947  19.005  0.00  0.00    +0.000 A 
ATOM     19  C   UNL     1       6.269   4.725  19.135  0.00  0.00    +0.000 A 
ATOM     20  C   UNL     1       7.193   5.600  18.563  0.00  0.00    +0.000 A 
ATOM     21  C   UNL     1       6.742   6.697  17.845  0.00  0.00    +0.000 A 
ATOM     22 CL   UNL     1       7.877   7.778  17.138  0.00  0.00    +0.000 Cl
ATOM     23  C   UNL     1       5.375   6.916  17.683  0.00  0.00    +0.000 A 
ATOM     24  C   UNL     1       4.421   6.042  18.252  0.00  0.00    +0.000 A 
BRANCH  18  26
ATOM     25  C   UNL     1       4.394   2.778  19.802  0.00  0.00    +0.000 C 
ATOM     26  O   UNL     1       3.949   4.117  19.574  0.00  0.00    +0.000 OA
ENDBRANCH  18  26
ENDBRANCH  16  24
ENDBRANCH   1  16
TORSDOF 5
ENDMDL
MODEL 6
REMARK VINA RESULT:      -6.9      3.007      7.895
REMARK  Name = 
REMARK  7 active torsions:
REMARK  status: ('A' for Active; 'I' for Inactive)
REMARK    1  A    between atoms: C_1  and  O_2
REMARK    2  A    between atoms: O_2  and  C_3
REMARK    3  A    between atoms: C_9  and  C_10
REMARK    4  A    between atoms: C_10  and  C_11
REMARK    5  A    between atoms: C_10  and  N_12
REMARK    6  A    between atoms: N_15  and  S_16
REMARK    7  A    between atoms: S_16  and  C_19
REMARK                            x       y       z     vdW  Elec       q    Type
REMARK                         _______ _______ _______ _____ _____    ______ ____
ROOT
ATOM      1  N   UNL     1       2.507   6.636  19.928  0.00  0.00    +0.000 N 
ATOM      2  C   UNL     1       2.068   7.492  18.957  0.00  0.00    +0.000 C 
ATOM      3  O   UNL     1       1.889   7.156  17.799  0.00  0.00    +0.000 OA
ATOM      4  N   UNL     1       1.813   8.771  19.416  0.00  0.00    +0.000 N 
ATOM      5  H   UNL     1       2.560   6.928  20.893  0.00  0.00    +0.000 HD
ATOM      6  H   UNL     1       1.877   9.022  20.391  0.00  0.00    +0.000 HD
ENDROOT
BRANCH   4   7
ATOM      7  S   UNL     1       1.314  10.023  18.437  0.00  0.00    +0.000 S 
ATOM      8  O   UNL     1       2.459  10.353  17.614  0.00  0.00    +0.000 OA
ATOM      9  O   UNL     1       0.052   9.661  17.831  0.00  0.00    +0.000 OA
BRANCH   7  10
ATOM     10  C   UNL     1       1.071  11.392  19.540  0.00  0.00    +0.000 A 
ATOM     11  C   UNL     1       1.708  12.610  19.275  0.00  0.00    +0.000 A 
ATOM     12  C   UNL     1       1.507  13.692  20.133  0.00  0.00    +0.000 A 
ATOM     13  C   UNL     1       0.667  13.561  21.240  0.00  0.00    +0.000 A 
ATOM     14  C   UNL     1       0.030  12.346  21.499  0.00  0.00    +0.000 A 
ATOM     15  C   UNL     1       0.231  11.256  20.651  0.00  0.00    +0.000 A 
ENDBRANCH   7  10
ENDBRANCH   4   7
BRANCH   1  16
ATOM     16  C   UNL     1       2.698   5.224  19.647  0.00  0.00    +0.000 C 
ATOM     17  C   UNL     1       2.674   4.401  20.939  0.00  0.00    +0.000 C 
BRANCH  16  24
ATOM     18  C   UNL     1       3.971   4.197  17.626  0.00  0.00    +0.000 A 
ATOM     19  C   UNL     1       5.176   4.055  16.917  0.00  0.00    +0.000 A 
ATOM     20  C   UNL     1       6.369   4.578  17.416  0.00  0.00    +0.000 A 
ATOM     21  C   UNL     1       6.364   5.261  18.622  0.00  0.00    +0.000 A 
ATOM     22 CL   UNL     1       7.832   5.908  19.241  0.00  0.00    +0.000 Cl
ATOM     23  C   UNL     1       5.173   5.436  19.325  0.00  0.00    +0.000 A 
ATOM     24  C   UNL     1       3.952   4.915  18.838  0.00  0.00    +0.000 A 
BRANCH  18  26
ATOM     25  C   UNL     1       2.514   2.336  17.600  0.00  0.00    +0.000 C 
ATOM     26  O   UNL     1       2.782   3.675  17.174  0.00  0.00    +0.000 OA
ENDBRANCH  18  26
ENDBRANCH  16  24
ENDBRANCH   1  16
TORSDOF 5
ENDMDL
MODEL 7
REMARK VINA RESULT:      -6.9      3.341      8.093
REMARK  Name = 
REMARK  7 active torsions:
REMARK  status: ('A' for Active; 'I' for Inactive)
REMARK    1  A    between atoms: C_1  and  O_2
REMARK    2  A    between atoms: O_2  and  C_3
REMARK    3  A    between atoms: C_9  and  C_10
REMARK    4  A    between atoms: C_10  and  C_11
REMARK    5  A    between atoms: C_10  and  N_12
REMARK    6  A    between atoms: N_15  and  S_16
REMARK    7  A    between atoms: S_16  and  C_19
REMARK                            x       y       z     vdW  Elec       q    Type
REMARK                         _______ _______ _______ _____ _____    ______ ____
ROOT
ATOM      1  N   UNL     1       2.198   7.195  18.895  0.00  0.00    +0.000 N 
ATOM      2  C   UNL     1       1.931   8.488  18.545  0.00  0.00    +0.000 C 
ATOM      3  O   UNL     1       2.268   8.977  17.480  0.00  0.00    +0.000 OA
ATOM      4  N   UNL     1       1.214   9.187  19.499  0.00  0.00    +0.000 N 
ATOM      5  H   UNL     1       1.828   6.800  19.747  0.00  0.00    +0.000 HD
ATOM      6  H   UNL     1       0.862   8.754  20.340  0.00  0.00    +0.000 HD
ENDROOT
BRANCH   4   7
ATOM      7  S   UNL     1       0.797  10.793  19.350  0.00  0.00    +0.000 S 
ATOM      8  O   UNL     1       0.662  11.287  20.705  0.00  0.00    +0.000 OA
ATOM      9  O   UNL     1       1.710  11.424  18.424  0.00  0.00    +0.000 OA
BRANCH   7  10
ATOM     10  C   UNL     1      -0.836  10.774  18.653  0.00  0.00    +0.000 A 
ATOM     11  C   UNL     1      -1.814  11.633  19.168  0.00  0.00    +0.000 A 
ATOM     12  C   UNL     1      -3.094  11.630  18.613  0.00  0.00    +0.000 A 
ATOM     13  C   UNL     1      -3.390  10.784  17.543  0.00  0.00    +0.000 A 
ATOM     14  C   UNL     1      -2.412   9.932  17.028  0.00  0.00    +0.000 A 
ATOM     15  C   UNL     1      -1.131   9.922  17.583  0.00  0.00    +0.000 A 
ENDBRANCH   7  10
ENDBRANCH   4   7
BRANCH   1  16
ATOM     16  C   UNL     1       2.827   6.283  17.957  0.00  0.00    +0.000 C 
ATOM     17  C   UNL     1       2.028   4.982  17.837  0.00  0.00    +0.000 C 
BRANCH  16  24
ATOM     18  C   UNL     1       4.743   4.941  19.092  0.00  0.00    +0.000 A 
ATOM     19  C   UNL     1       6.122   4.702  19.226  0.00  0.00    +0.000 A 
ATOM     20  C   UNL     1       7.057   5.514  18.583  0.00  0.00    +0.000 A 
ATOM     21  C   UNL     1       6.620   6.564  17.790  0.00  0.00    +0.000 A 
ATOM     22 CL   UNL     1       7.768   7.567  16.996  0.00  0.00    +0.000 Cl
ATOM     23  C   UNL     1       5.256   6.797  17.623  0.00  0.00    +0.000 A 
ATOM     24  C   UNL     1       4.290   5.986  18.264  0.00  0.00    +0.000 A 
BRANCH  18  26
ATOM     25  C   UNL     1       4.110   2.782  19.814  0.00  0.00    +0.000 C 
ATOM     26  O   UNL     1       3.796   4.173  19.728  0.00  0.00    +0.000 OA
ENDBRANCH  18  26
ENDBRANCH  16  24
ENDBRANCH   1  16
TORSDOF 5
ENDMDL
MODEL 8
REMARK VINA RESULT:      -6.8      3.371      8.031
REMARK  Name = 
REMARK  7 active torsions:
REMARK  status: ('A' for Active; 'I' for Inactive)
REMARK    1  A    between atoms: C_1  and  O_2
REMARK    2  A    between atoms: O_2  and  C_3
REMARK    3  A    between atoms: C_9  and  C_10
REMARK    4  A    between atoms: C_10  and  C_11
REMARK    5  A    between atoms: C_10  and  N_12
REMARK    6  A    between atoms: N_15  and  S_16
REMARK    7  A    between atoms: S_16  and  C_19
REMARK                            x       y       z     vdW  Elec       q    Type
REMARK                         _______ _______ _______ _____ _____    ______ ____
ROOT
ATOM      1  N   UNL     1       2.346   7.566  17.549  0.00  0.00    +0.000 N 
ATOM      2  C   UNL     1       1.838   8.510  18.396  0.00  0.00    +0.000 C 
ATOM      3  O   UNL     1       2.369   8.821  19.448  0.00  0.00    +0.000 OA
ATOM      4  N   UNL     1       0.678   9.105  17.935  0.00  0.00    +0.000 N 
ATOM      5  H   UNL     1       1.927   7.397  16.646  0.00  0.00    +0.000 HD
ATOM      6  H   UNL     1       0.290   8.908  17.024  0.00  0.00    +0.000 HD
ENDROOT
BRANCH   4   7
ATOM      7  S   UNL     1      -0.177  10.252  18.789  0.00  0.00    +0.000 S 
ATOM      8  O   UNL     1      -0.521   9.622  20.048  0.00  0.00    +0.000 OA
ATOM      9  O   UNL     1       0.564  11.493  18.765  0.00  0.00    +0.000 OA
BRANCH   7  10
ATOM     10  C   UNL     1      -1.695  10.449  17.890  0.00  0.00    +0.000 A 
ATOM     11  C   UNL     1      -2.668  11.333  18.369  0.00  0.00    +0.000 A 
ATOM     12  C   UNL     1      -3.856  11.500  17.656  0.00  0.00    +0.000 A 
ATOM     13  C   UNL     1      -4.063  10.799  16.467  0.00  0.00    +0.000 A 
ATOM     14  C   UNL     1      -3.088   9.922  15.989  0.00  0.00    +0.000 A 
ATOM     15  C   UNL     1      -1.900   9.741  16.700  0.00  0.00    +0.000 A 
ENDBRANCH   7  10
ENDBRANCH   4   7
BRANCH   1  16
ATOM     16  C   UNL     1       3.627   6.936  17.816  0.00  0.00    +0.000 C 
ATOM     17  C   UNL     1       4.526   6.975  16.576  0.00  0.00    +0.000 C 
BRANCH  16  24
ATOM     18  C   UNL     1       4.560   4.824  19.010  0.00  0.00    +0.000 A 
ATOM     19  C   UNL     1       4.318   3.551  19.554  0.00  0.00    +0.000 A 
ATOM     20  C   UNL     1       3.072   2.938  19.421  0.00  0.00    +0.000 A 
ATOM     21  C   UNL     1       2.053   3.600  18.754  0.00  0.00    +0.000 A 
ATOM     22 CL   UNL     1       0.515   2.849  18.587  0.00  0.00    +0.000 Cl
ATOM     23  C   UNL     1       2.268   4.875  18.233  0.00  0.00    +0.000 A 
ATOM     24  C   UNL     1       3.522   5.516  18.357  0.00  0.00    +0.000 A 
BRANCH  18  26
ATOM     25  C   UNL     1       6.825   4.842  18.337  0.00  0.00    +0.000 C 
ATOM     26  O   UNL     1       5.783   5.447  19.104  0.00  0.00    +0.000 OA
ENDBRANCH  18  26
ENDBRANCH  16  24
ENDBRANCH   1  16
TORSDOF 5
ENDMDL
MODEL 9
REMARK VINA RESULT:      -6.8      3.200      8.329
REMARK  Name = 
REMARK  7 active torsions:
REMARK  status: ('A' for Active; 'I' for Inactive)
REMARK    1  A    between atoms: C_1  and  O_2
REMARK    2  A    between atoms: O_2  and  C_3
REMARK    3  A    between atoms: C_9  and  C_10
REMARK    4  A    between atoms: C_10  and  C_11
REMARK    5  A    between atoms: C_10  and  N_12
REMARK    6  A    between atoms: N_15  and  S_16
REMARK    7  A    between atoms: S_16  and  C_19
REMARK                            x       y       z     vdW  Elec       q    Type
REMARK                         _______ _______ _______ _____ _____    ______ ____
ROOT
ATOM      1  N   UNL     1       3.425   5.840  19.165  0.00  0.00    +0.000 N 
ATOM      2  C   UNL     1       2.617   6.768  18.571  0.00  0.00    +0.000 C 
ATOM      3  O   UNL     1       2.148   6.631  17.454  0.00  0.00    +0.000 OA
ATOM      4  N   UNL     1       2.353   7.867  19.366  0.00  0.00    +0.000 N 
ATOM      5  H   UNL     1       3.723   5.947  20.123  0.00  0.00    +0.000 HD
ATOM      6  H   UNL     1       2.671   7.936  20.322  0.00  0.00    +0.000 HD
ENDROOT
BRANCH   4   7
ATOM      7  S   UNL     1       1.438   9.169  18.873  0.00  0.00    +0.000 S 
ATOM      8  O   UNL     1       2.390  10.200  18.513  0.00  0.00    +0.000 OA
ATOM      9  O   UNL     1       0.456   8.707  17.917  0.00  0.00    +0.000 OA
BRANCH   7  10
ATOM     10  C   UNL     1       0.616   9.729  20.344  0.00  0.00    +0.000 A 
ATOM     11  C   UNL     1       0.526   8.876  21.449  0.00  0.00    +0.000 A 
ATOM     12  C   UNL     1      -0.106   9.319  22.611  0.00  0.00    +0.000 A 
ATOM     13  C   UNL     1      -0.633  10.611  22.671  0.00  0.00    +0.000 A 
ATOM     14  C   UNL     1      -0.537  11.461  21.569  0.00  0.00    +0.000 A 
ATOM     15  C   UNL     1       0.086  11.023  20.399  0.00  0.00    +0.000 A 
ENDBRANCH   7  10
ENDBRANCH   4   7
BRANCH   1  16
ATOM     16  C   UNL     1       3.697   4.567  18.521  0.00  0.00    +0.000 C 
ATOM     17  C   UNL     1       3.792   3.440  19.555  0.00  0.00    +0.000 C 
BRANCH  16  24
ATOM     18  C   UNL     1       6.249   4.766  18.068  0.00  0.00    +0.000 A 
ATOM     19  C   UNL     1       7.316   4.656  17.160  0.00  0.00    +0.000 A 
ATOM     20  C   UNL     1       7.085   4.403  15.808  0.00  0.00    +0.000 A 
ATOM     21  C   UNL     1       5.784   4.243  15.355  0.00  0.00    +0.000 A 
ATOM     22 CL   UNL     1       5.494   3.930  13.689  0.00  0.00    +0.000 Cl
ATOM     23  C   UNL     1       4.716   4.319  16.247  0.00  0.00    +0.000 A 
ATOM     24  C   UNL     1       4.927   4.574  17.622  0.00  0.00    +0.000 A 
BRANCH  18  26
ATOM     25  C   UNL     1       7.644   5.746  19.704  0.00  0.00    +0.000 C 
ATOM     26  O   UNL     1       6.440   5.036  19.403  0.00  0.00    +0.000 OA
ENDBRANCH  18  26
ENDBRANCH  16  24
ENDBRANCH   1  16
TORSDOF 5
ENDMDL
