MODEL 1
REMARK VINA RESULT:      -8.5      0.000      0.000
REMARK  Name = 
REMARK  10 active torsions:
REMARK  status: ('A' for Active; 'I' for Inactive)
REMARK    1  A    between atoms: C_1  and  O_2
REMARK    2  A    between atoms: O_2  and  C_3
REMARK    3  A    between atoms: C_3  and  C_5
REMARK    4  A    between atoms: C_5  and  C_6
REMARK    5  A    between atoms: C_6  and  C_7
REMARK    6  A    between atoms: C_7  and  O_9
REMARK    7  A    between atoms: O_9  and  C_10
REMARK    8  A    between atoms: C_10  and  C_11
REMARK    9  A    between atoms: C_17  and  C_18
REMARK   10  A    between atoms: N_21  and  C_22
REMARK                            x       y       z     vdW  Elec       q    Type
REMARK                         _______ _______ _______ _____ _____    ______ ____
ROOT
ATOM      1  C   UNL     1       7.057   6.025  16.466  0.00  0.00    +0.000 C 
ATOM      2  C   UNL     1       7.806   7.127  17.241  0.00  0.00    +0.000 C 
ATOM      3  C   UNL     1       7.222   4.755  17.337  0.00  0.00    +0.000 C 
ATOM      4  O   UNL     1       8.260   4.093  17.373  0.00  0.00    +0.000 OA
ATOM      5  C   UNL     1       6.140   4.359  18.288  0.00  0.00    +0.000 C 
ATOM      6  C   UNL     1       4.987   5.034  18.378  0.00  0.00    +0.000 C 
ATOM      7  C   UNL     1       4.001   4.709  19.404  0.00  0.00    +0.000 C 
ATOM      8  C   UNL     1       2.899   5.488  19.584  0.00  0.00    +0.000 C 
ATOM      9  N   UNL     1       2.678   6.625  18.743  0.00  0.00    +0.000 N 
ATOM     10  C   UNL     1       3.584   6.840  17.679  0.00  0.00    +0.000 C 
ATOM     11  C   UNL     1       4.687   6.117  17.463  0.00  0.00    +0.000 C 
ATOM     12  C   UNL     1       5.572   6.400  16.300  0.00  0.00    +0.000 C 
ATOM     13  O   UNL     1       5.082   6.887  15.285  0.00  0.00    +0.000 OA
ENDROOT
BRANCH   9  14
ATOM     14  C   UNL     1       1.534   7.560  18.935  0.00  0.00    +0.000 C 
ATOM     15  C   UNL     1       1.574   8.271  20.291  0.00  0.00    +0.000 C 
ATOM     16  C   UNL     1       0.935   9.634  20.068  0.00  0.00    +0.000 C 
ATOM     17  C   UNL     1       0.957   9.910  18.571  0.00  0.00    +0.000 C 
ATOM     18  C   UNL     1       1.506   8.669  17.881  0.00  0.00    +0.000 C 
ENDBRANCH   9  14
BRANCH   8  19
ATOM     19  C   UNL     1       1.977   5.222  20.716  0.00  0.00    +0.000 C 
ATOM     20  C   UNL     1       0.850   4.227  20.595  0.00  0.00    +0.000 C 
ATOM     21  C   UNL     1       2.034   3.898  21.446  0.00  0.00    +0.000 C 
ENDBRANCH   8  19
BRANCH   1  22
ATOM     22  O   UNL     1       7.715   5.776  15.198  0.00  0.00    +0.000 OA
BRANCH  22  23
ATOM     23  C   UNL     1       7.201   4.802  14.395  0.00  0.00    +0.000 C 
ATOM     24  O   UNL     1       6.476   3.883  14.752  0.00  0.00    +0.000 OA
BRANCH  23  25
ATOM     25  C   UNL     1       7.619   4.982  12.958  0.00  0.00    +0.000 C 
BRANCH  25  26
ATOM     26  C   UNL     1       6.513   4.464  12.034  0.00  0.00    +0.000 C 
BRANCH  26  27
ATOM     27  C   UNL     1       6.710   3.003  11.692  0.00  0.00    +0.000 C 
ATOM     28  O   UNL     1       7.787   2.479  11.443  0.00  0.00    +0.000 OA
BRANCH  27  30
ATOM     29  C   UNL     1       4.388   3.211  11.530  0.00  0.00    +0.000 C 
ATOM     30  O   UNL     1       5.514   2.353  11.725  0.00  0.00    +0.000 OA
ENDBRANCH  27  30
ENDBRANCH  26  27
ENDBRANCH  25  26
ENDBRANCH  23  25
ENDBRANCH  22  23
ENDBRANCH   1  22
TORSDOF 8
ENDMDL
MODEL 2
REMARK VINA RESULT:      -8.1      1.552      2.730
REMARK  Name = 
REMARK  10 active torsions:
REMARK  status: ('A' for Active; 'I' for Inactive)
REMARK    1  A    between atoms: C_1  and  O_2
REMARK    2  A    between atoms: O_2  and  C_3
REMARK    3  A    between atoms: C_3  and  C_5
REMARK    4  A    between atoms: C_5  and  C_6
REMARK    5  A    between atoms: C_6  and  C_7
REMARK    6  A    between atoms: C_7  and  O_9
REMARK    7  A    between atoms: O_9  and  C_10
REMARK    8  A    between atoms: C_10  and  C_11
REMARK    9  A    between atoms: C_17  and  C_18
REMARK   10  A    between atoms: N_21  and  C_22
REMARK                            x       y       z     vdW  Elec       q    Type
REMARK                         _______ _______ _______ _____ _____    ______ ____
ROOT
ATOM      1  C   UNL     1       5.374   5.352  17.777  0.00  0.00    +0.000 C 
ATOM      2  C   UNL     1       6.574   6.180  18.277  0.00  0.00    +0.000 C 
ATOM      3  C   UNL     1       4.822   4.658  19.047  0.00  0.00    +0.000 C 
ATOM      4  O   UNL     1       5.352   3.672  19.560  0.00  0.00    +0.000 OA
ATOM      5  C   UNL     1       3.672   5.262  19.784  0.00  0.00    +0.000 C 
ATOM      6  C   UNL     1       3.049   6.366  19.353  0.00  0.00    +0.000 C 
ATOM      7  C   UNL     1       2.016   7.012  20.158  0.00  0.00    +0.000 C 
ATOM      8  C   UNL     1       1.489   8.211  19.784  0.00  0.00    +0.000 C 
ATOM      9  N   UNL     1       1.922   8.841  18.574  0.00  0.00    +0.000 N 
ATOM     10  C   UNL     1       2.830   8.131  17.754  0.00  0.00    +0.000 C 
ATOM     11  C   UNL     1       3.388   6.961  18.076  0.00  0.00    +0.000 C 
ATOM     12  C   UNL     1       4.316   6.271  17.137  0.00  0.00    +0.000 C 
ATOM     13  O   UNL     1       4.182   6.451  15.930  0.00  0.00    +0.000 OA
ENDROOT
BRANCH   9  14
ATOM     14  C   UNL     1       1.441  10.184  18.148  0.00  0.00    +0.000 C 
ATOM     15  C   UNL     1      -0.085  10.305  18.181  0.00  0.00    +0.000 C 
ATOM     16  C   UNL     1      -0.384  11.760  18.507  0.00  0.00    +0.000 C 
ATOM     17  C   UNL     1       0.876  12.362  19.112  0.00  0.00    +0.000 C 
ATOM     18  C   UNL     1       1.969  11.303  19.050  0.00  0.00    +0.000 C 
ENDBRANCH   9  14
BRANCH   8  19
ATOM     19  C   UNL     1       0.539   8.917  20.680  0.00  0.00    +0.000 C 
ATOM     20  C   UNL     1       0.009   8.268  21.934  0.00  0.00    +0.000 C 
ATOM     21  C   UNL     1       0.991   9.390  22.044  0.00  0.00    +0.000 C 
ENDBRANCH   8  19
BRANCH   1  22
ATOM     22  O   UNL     1       5.830   4.314  16.873  0.00  0.00    +0.000 OA
BRANCH  22  23
ATOM     23  C   UNL     1       7.076   4.440  16.336  0.00  0.00    +0.000 C 
ATOM     24  O   UNL     1       8.134   4.231  16.914  0.00  0.00    +0.000 OA
BRANCH  23  25
ATOM     25  C   UNL     1       7.023   4.867  14.890  0.00  0.00    +0.000 C 
BRANCH  25  26
ATOM     26  C   UNL     1       6.037   3.976  14.130  0.00  0.00    +0.000 C 
BRANCH  26  27
ATOM     27  C   UNL     1       6.458   3.782  12.689  0.00  0.00    +0.000 C 
ATOM     28  O   UNL     1       7.334   4.419  12.120  0.00  0.00    +0.000 OA
BRANCH  27  30
ATOM     29  C   UNL     1       4.481   3.204  11.585  0.00  0.00    +0.000 C 
ATOM     30  O   UNL     1       5.732   2.776  12.125  0.00  0.00    +0.000 OA
ENDBRANCH  27  30
ENDBRANCH  26  27
ENDBRANCH  25  26
ENDBRANCH  23  25
ENDBRANCH  22  23
ENDBRANCH   1  22
TORSDOF 8
ENDMDL
MODEL 3
REMARK VINA RESULT:      -7.5      5.508     10.406
REMARK  Name = 
REMARK  10 active torsions:
REMARK  status: ('A' for Active; 'I' for Inactive)
REMARK    1  A    between atoms: C_1  and  O_2
REMARK    2  A    between atoms: O_2  and  C_3
REMARK    3  A    between atoms: C_3  and  C_5
REMARK    4  A    between atoms: C_5  and  C_6
REMARK    5  A    between atoms: C_6  and  C_7
REMARK    6  A    between atoms: C_7  and  O_9
REMARK    7  A    between atoms: O_9  and  C_10
REMARK    8  A    between atoms: C_10  and  C_11
REMARK    9  A    between atoms: C_17  and  C_18
REMARK   10  A    between atoms: N_21  and  C_22
REMARK                            x       y       z     vdW  Elec       q    Type
REMARK                         _______ _______ _______ _____ _____    ______ ____
ROOT
ATOM      1  C   UNL     1       0.458  10.798  20.360  0.00  0.00    +0.000 C 
ATOM      2  C   UNL     1       1.545  11.313  21.324  0.00  0.00    +0.000 C 
ATOM      3  C   UNL     1       0.946  11.230  18.955  0.00  0.00    +0.000 C 
ATOM      4  O   UNL     1       0.846  12.381  18.531  0.00  0.00    +0.000 OA
ATOM      5  C   UNL     1       1.694  10.261  18.098  0.00  0.00    +0.000 C 
ATOM      6  C   UNL     1       1.913   8.996  18.475  0.00  0.00    +0.000 C 
ATOM      7  C   UNL     1       2.759   8.108  17.682  0.00  0.00    +0.000 C 
ATOM      8  C   UNL     1       3.095   6.871  18.143  0.00  0.00    +0.000 C 
ATOM      9  N   UNL     1       2.596   6.412  19.403  0.00  0.00    +0.000 N 
ATOM     10  C   UNL     1       1.680   7.245  20.087  0.00  0.00    +0.000 C 
ATOM     11  C   UNL     1       1.325   8.470  19.691  0.00  0.00    +0.000 C 
ATOM     12  C   UNL     1       0.331   9.266  20.462  0.00  0.00    +0.000 C 
ATOM     13  O   UNL     1      -0.530   8.677  21.109  0.00  0.00    +0.000 OA
ENDROOT
BRANCH   9  14
ATOM     14  C   UNL     1       2.987   5.104  19.997  0.00  0.00    +0.000 C 
ATOM     15  C   UNL     1       2.317   4.844  21.349  0.00  0.00    +0.000 C 
ATOM     16  C   UNL     1       2.138   3.336  21.447  0.00  0.00    +0.000 C 
ATOM     17  C   UNL     1       2.245   2.772  20.037  0.00  0.00    +0.000 C 
ATOM     18  C   UNL     1       2.599   3.922  19.105  0.00  0.00    +0.000 C 
ENDBRANCH   9  14
BRANCH   8  19
ATOM     19  C   UNL     1       4.062   6.035  17.388  0.00  0.00    +0.000 C 
ATOM     20  C   UNL     1       4.928   6.620  16.301  0.00  0.00    +0.000 C 
ATOM     21  C   UNL     1       5.549   6.215  17.599  0.00  0.00    +0.000 C 
ENDBRANCH   8  19
BRANCH   1  22
ATOM     22  O   UNL     1      -0.796  11.480  20.617  0.00  0.00    +0.000 OA
BRANCH  22  23
ATOM     23  C   UNL     1      -0.848  12.337  21.675  0.00  0.00    +0.000 C 
ATOM     24  O   UNL     1      -0.382  13.468  21.710  0.00  0.00    +0.000 OA
BRANCH  23  25
ATOM     25  C   UNL     1      -1.584  11.737  22.847  0.00  0.00    +0.000 C 
BRANCH  25  26
ATOM     26  C   UNL     1      -2.457  12.809  23.507  0.00  0.00    +0.000 C 
BRANCH  26  27
ATOM     27  C   UNL     1      -3.902  12.369  23.605  0.00  0.00    +0.000 C 
ATOM     28  O   UNL     1      -4.463  12.026  24.637  0.00  0.00    +0.000 OA
BRANCH  27  30
ATOM     29  C   UNL     1      -5.836  12.915  22.413  0.00  0.00    +0.000 C 
ATOM     30  O   UNL     1      -4.491  12.434  22.379  0.00  0.00    +0.000 OA
ENDBRANCH  27  30
ENDBRANCH  26  27
ENDBRANCH  25  26
ENDBRANCH  23  25
ENDBRANCH  22  23
ENDBRANCH   1  22
TORSDOF 8
ENDMDL
MODEL 4
REMARK VINA RESULT:      -7.5      5.532     10.424
REMARK  Name = 
REMARK  10 active torsions:
REMARK  status: ('A' for Active; 'I' for Inactive)
REMARK    1  A    between atoms: C_1  and  O_2
REMARK    2  A    between atoms: O_2  and  C_3
REMARK    3  A    between atoms: C_3  and  C_5
REMARK    4  A    between atoms: C_5  and  C_6
REMARK    5  A    between atoms: C_6  and  C_7
REMARK    6  A    between atoms: C_7  and  O_9
REMARK    7  A    between atoms: O_9  and  C_10
REMARK    8  A    between atoms: C_10  and  C_11
REMARK    9  A    between atoms: C_17  and  C_18
REMARK   10  A    between atoms: N_21  and  C_22
REMARK                            x       y       z     vdW  Elec       q    Type
REMARK                         _______ _______ _______ _____ _____    ______ ____
ROOT
ATOM      1  C   UNL     1       0.396  10.368  20.786  0.00  0.00    +0.000 C 
ATOM      2  C   UNL     1       1.500  10.860  21.741  0.00  0.00    +0.000 C 
ATOM      3  C   UNL     1       0.817  10.901  19.394  0.00  0.00    +0.000 C 
ATOM      4  O   UNL     1       0.664  12.073  19.047  0.00  0.00    +0.000 OA
ATOM      5  C   UNL     1       1.565  10.014  18.452  0.00  0.00    +0.000 C 
ATOM      6  C   UNL     1       1.839   8.736  18.742  0.00  0.00    +0.000 C 
ATOM      7  C   UNL     1       2.684   7.929  17.866  0.00  0.00    +0.000 C 
ATOM      8  C   UNL     1       3.077   6.679  18.236  0.00  0.00    +0.000 C 
ATOM      9  N   UNL     1       2.640   6.127  19.482  0.00  0.00    +0.000 N 
ATOM     10  C   UNL     1       1.723   6.883  20.248  0.00  0.00    +0.000 C 
ATOM     11  C   UNL     1       1.313   8.117  19.942  0.00  0.00    +0.000 C 
ATOM     12  C   UNL     1       0.323   8.829  20.796  0.00  0.00    +0.000 C 
ATOM     13  O   UNL     1      -0.494   8.171  21.434  0.00  0.00    +0.000 OA
ENDROOT
BRANCH   9  14
ATOM     14  C   UNL     1       3.095   4.798  19.979  0.00  0.00    +0.000 C 
ATOM     15  C   UNL     1       2.494   4.438  21.340  0.00  0.00    +0.000 C 
ATOM     16  C   UNL     1       2.364   2.922  21.354  0.00  0.00    +0.000 C 
ATOM     17  C   UNL     1       2.425   2.445  19.909  0.00  0.00    +0.000 C 
ATOM     18  C   UNL     1       2.704   3.660  19.034  0.00  0.00    +0.000 C 
ENDBRANCH   9  14
BRANCH   8  19
ATOM     19  C   UNL     1       4.042   5.925  17.397  0.00  0.00    +0.000 C 
ATOM     20  C   UNL     1       4.869   6.611  16.339  0.00  0.00    +0.000 C 
ATOM     21  C   UNL     1       5.530   6.123  17.588  0.00  0.00    +0.000 C 
ENDBRANCH   8  19
BRANCH   1  22
ATOM     22  O   UNL     1      -0.869  10.988  21.128  0.00  0.00    +0.000 OA
BRANCH  22  23
ATOM     23  C   UNL     1      -1.043  11.412  22.412  0.00  0.00    +0.000 C 
ATOM     24  O   UNL     1      -0.885  10.738  23.420  0.00  0.00    +0.000 OA
BRANCH  23  25
ATOM     25  C   UNL     1      -1.455  12.862  22.472  0.00  0.00    +0.000 C 
BRANCH  25  26
ATOM     26  C   UNL     1      -2.667  13.011  23.396  0.00  0.00    +0.000 C 
BRANCH  26  27
ATOM     27  C   UNL     1      -3.962  12.719  22.668  0.00  0.00    +0.000 C 
ATOM     28  O   UNL     1      -4.118  12.786  21.457  0.00  0.00    +0.000 OA
BRANCH  27  30
ATOM     29  C   UNL     1      -5.950  13.322  23.738  0.00  0.00    +0.000 C 
ATOM     30  O   UNL     1      -4.922  12.346  23.561  0.00  0.00    +0.000 OA
ENDBRANCH  27  30
ENDBRANCH  26  27
ENDBRANCH  25  26
ENDBRANCH  23  25
ENDBRANCH  22  23
ENDBRANCH   1  22
TORSDOF 8
ENDMDL
MODEL 5
REMARK VINA RESULT:      -7.4      4.808      9.307
REMARK  Name = 
REMARK  10 active torsions:
REMARK  status: ('A' for Active; 'I' for Inactive)
REMARK    1  A    between atoms: C_1  and  O_2
REMARK    2  A    between atoms: O_2  and  C_3
REMARK    3  A    between atoms: C_3  and  C_5
REMARK    4  A    between atoms: C_5  and  C_6
REMARK    5  A    between atoms: C_6  and  C_7
REMARK    6  A    between atoms: C_7  and  O_9
REMARK    7  A    between atoms: O_9  and  C_10
REMARK    8  A    between atoms: C_10  and  C_11
REMARK    9  A    between atoms: C_17  and  C_18
REMARK   10  A    between atoms: N_21  and  C_22
REMARK                            x       y       z     vdW  Elec       q    Type
REMARK                         _______ _______ _______ _____ _____    ______ ____
ROOT
ATOM      1  C   UNL     1       0.517  10.654  19.308  0.00  0.00    +0.000 C 
ATOM      2  C   UNL     1      -0.881  10.327  18.747  0.00  0.00    +0.000 C 
ATOM      3  C   UNL     1       0.430  10.286  20.810  0.00  0.00    +0.000 C 
ATOM      4  O   UNL     1      -0.126  10.997  21.647  0.00  0.00    +0.000 OA
ATOM      5  C   UNL     1       0.919   8.954  21.279  0.00  0.00    +0.000 C 
ATOM      6  C   UNL     1       1.493   8.072  20.451  0.00  0.00    +0.000 C 
ATOM      7  C   UNL     1       1.841   6.729  20.904  0.00  0.00    +0.000 C 
ATOM      8  C   UNL     1       2.290   5.791  20.023  0.00  0.00    +0.000 C 
ATOM      9  N   UNL     1       2.455   6.124  18.641  0.00  0.00    +0.000 N 
ATOM     10  C   UNL     1       2.229   7.466  18.258  0.00  0.00    +0.000 C 
ATOM     11  C   UNL     1       1.777   8.423  19.074  0.00  0.00    +0.000 C 
ATOM     12  C   UNL     1       1.593   9.818  18.589  0.00  0.00    +0.000 C 
ATOM     13  O   UNL     1       2.304  10.229  17.676  0.00  0.00    +0.000 OA
ENDROOT
BRANCH   9  14
ATOM     14  C   UNL     1       2.869   5.126  17.616  0.00  0.00    +0.000 C 
ATOM     15  C   UNL     1       4.204   4.455  17.948  0.00  0.00    +0.000 C 
ATOM     16  C   UNL     1       4.124   3.050  17.371  0.00  0.00    +0.000 C 
ATOM     17  C   UNL     1       2.653   2.735  17.139  0.00  0.00    +0.000 C 
ATOM     18  C   UNL     1       1.855   3.988  17.470  0.00  0.00    +0.000 C 
ENDBRANCH   9  14
BRANCH   8  19
ATOM     19  C   UNL     1       2.512   4.395  20.474  0.00  0.00    +0.000 C 
ATOM     20  C   UNL     1       2.225   3.971  21.893  0.00  0.00    +0.000 C 
ATOM     21  C   UNL     1       1.331   3.502  20.790  0.00  0.00    +0.000 C 
ENDBRANCH   8  19
BRANCH   1  22
ATOM     22  O   UNL     1       0.766  12.079  19.220  0.00  0.00    +0.000 OA
BRANCH  22  23
ATOM     23  C   UNL     1      -0.272  12.885  18.858  0.00  0.00    +0.000 C 
ATOM     24  O   UNL     1      -0.910  12.814  17.817  0.00  0.00    +0.000 OA
BRANCH  23  25
ATOM     25  C   UNL     1      -0.582  13.910  19.920  0.00  0.00    +0.000 C 
BRANCH  25  26
ATOM     26  C   UNL     1       0.715  14.587  20.372  0.00  0.00    +0.000 C 
BRANCH  26  27
ATOM     27  C   UNL     1       0.931  14.441  21.863  0.00  0.00    +0.000 C 
ATOM     28  O   UNL     1       0.040  14.363  22.698  0.00  0.00    +0.000 OA
BRANCH  27  30
ATOM     29  C   UNL     1       3.078  14.168  20.982  0.00  0.00    +0.000 C 
ATOM     30  O   UNL     1       2.264  14.384  22.136  0.00  0.00    +0.000 OA
ENDBRANCH  27  30
ENDBRANCH  26  27
ENDBRANCH  25  26
ENDBRANCH  23  25
ENDBRANCH  22  23
ENDBRANCH   1  22
TORSDOF 8
ENDMDL
MODEL 6
REMARK VINA RESULT:      -7.3      4.947      9.775
REMARK  Name = 
REMARK  10 active torsions:
REMARK  status: ('A' for Active; 'I' for Inactive)
REMARK    1  A    between atoms: C_1  and  O_2
REMARK    2  A    between atoms: O_2  and  C_3
REMARK    3  A    between atoms: C_3  and  C_5
REMARK    4  A    between atoms: C_5  and  C_6
REMARK    5  A    between atoms: C_6  and  C_7
REMARK    6  A    between atoms: C_7  and  O_9
REMARK    7  A    between atoms: O_9  and  C_10
REMARK    8  A    between atoms: C_10  and  C_11
REMARK    9  A    between atoms: C_17  and  C_18
REMARK   10  A    between atoms: N_21  and  C_22
REMARK                            x       y       z     vdW  Elec       q    Type
REMARK                         _______ _______ _______ _____ _____    ______ ____
ROOT
ATOM      1  C   UNL     1       0.250  10.666  19.650  0.00  0.00    +0.000 C 
ATOM      2  C   UNL     1      -1.111  10.326  19.013  0.00  0.00    +0.000 C 
ATOM      3  C   UNL     1       0.127  10.182  21.116  0.00  0.00    +0.000 C 
ATOM      4  O   UNL     1      -0.489  10.804  21.982  0.00  0.00    +0.000 OA
ATOM      5  C   UNL     1       0.656   8.839  21.503  0.00  0.00    +0.000 C 
ATOM      6  C   UNL     1       1.297   8.047  20.634  0.00  0.00    +0.000 C 
ATOM      7  C   UNL     1       1.687   6.688  20.998  0.00  0.00    +0.000 C 
ATOM      8  C   UNL     1       2.207   5.839  20.069  0.00  0.00    +0.000 C 
ATOM      9  N   UNL     1       2.406   6.283  18.722  0.00  0.00    +0.000 N 
ATOM     10  C   UNL     1       2.136   7.640  18.432  0.00  0.00    +0.000 C 
ATOM     11  C   UNL     1       1.614   8.512  19.299  0.00  0.00    +0.000 C 
ATOM     12  C   UNL     1       1.386   9.932  18.913  0.00  0.00    +0.000 C 
ATOM     13  O   UNL     1       2.111  10.440  18.061  0.00  0.00    +0.000 OA
ENDROOT
BRANCH   9  14
ATOM     14  C   UNL     1       2.899   5.383  17.642  0.00  0.00    +0.000 C 
ATOM     15  C   UNL     1       4.280   4.797  17.945  0.00  0.00    +0.000 C 
ATOM     16  C   UNL     1       4.310   3.427  17.283  0.00  0.00    +0.000 C 
ATOM     17  C   UNL     1       2.868   3.016  17.019  0.00  0.00    +0.000 C 
ATOM     18  C   UNL     1       1.975   4.183  17.419  0.00  0.00    +0.000 C 
ENDBRANCH   9  14
BRANCH   8  19
ATOM     19  C   UNL     1       2.474   4.423  20.422  0.00  0.00    +0.000 C 
ATOM     20  C   UNL     1       2.193   3.891  21.805  0.00  0.00    +0.000 C 
ATOM     21  C   UNL     1       1.322   3.471  20.665  0.00  0.00    +0.000 C 
ENDBRANCH   8  19
BRANCH   1  22
ATOM     22  O   UNL     1       0.440  12.103  19.678  0.00  0.00    +0.000 OA
BRANCH  22  23
ATOM     23  C   UNL     1      -0.496  12.880  19.064  0.00  0.00    +0.000 C 
ATOM     24  O   UNL     1      -0.540  13.146  17.870  0.00  0.00    +0.000 OA
BRANCH  23  25
ATOM     25  C   UNL     1      -1.527  13.393  20.038  0.00  0.00    +0.000 C 
BRANCH  25  26
ATOM     26  C   UNL     1      -0.997  14.654  20.728  0.00  0.00    +0.000 C 
BRANCH  26  27
ATOM     27  C   UNL     1      -0.512  14.360  22.131  0.00  0.00    +0.000 C 
ATOM     28  O   UNL     1       0.642  14.086  22.433  0.00  0.00    +0.000 OA
BRANCH  27  30
ATOM     29  C   UNL     1      -1.188  15.102  24.242  0.00  0.00    +0.000 C 
ATOM     30  O   UNL     1      -1.546  14.469  23.012  0.00  0.00    +0.000 OA
ENDBRANCH  27  30
ENDBRANCH  26  27
ENDBRANCH  25  26
ENDBRANCH  23  25
ENDBRANCH  22  23
ENDBRANCH   1  22
TORSDOF 8
ENDMDL
MODEL 7
REMARK VINA RESULT:      -7.3      5.612     10.607
REMARK  Name = 
REMARK  10 active torsions:
REMARK  status: ('A' for Active; 'I' for Inactive)
REMARK    1  A    between atoms: C_1  and  O_2
REMARK    2  A    between atoms: O_2  and  C_3
REMARK    3  A    between atoms: C_3  and  C_5
REMARK    4  A    between atoms: C_5  and  C_6
REMARK    5  A    between atoms: C_6  and  C_7
REMARK    6  A    between atoms: C_7  and  O_9
REMARK    7  A    between atoms: O_9  and  C_10
REMARK    8  A    between atoms: C_10  and  C_11
REMARK    9  A    between atoms: C_17  and  C_18
REMARK   10  A    between atoms: N_21  and  C_22
REMARK                            x       y       z     vdW  Elec       q    Type
REMARK                         _______ _______ _______ _____ _____    ______ ____
ROOT
ATOM      1  C   UNL     1       0.469  10.535  20.650  0.00  0.00    +0.000 C 
ATOM      2  C   UNL     1       1.590  11.051  21.573  0.00  0.00    +0.000 C 
ATOM      3  C   UNL     1       0.879  11.012  19.235  0.00  0.00    +0.000 C 
ATOM      4  O   UNL     1       0.733  12.171  18.845  0.00  0.00    +0.000 OA
ATOM      5  C   UNL     1       1.606  10.082  18.318  0.00  0.00    +0.000 C 
ATOM      6  C   UNL     1       1.871   8.813  18.652  0.00  0.00    +0.000 C 
ATOM      7  C   UNL     1       2.697   7.966  17.797  0.00  0.00    +0.000 C 
ATOM      8  C   UNL     1       3.083   6.726  18.209  0.00  0.00    +0.000 C 
ATOM      9  N   UNL     1       2.656   6.225  19.480  0.00  0.00    +0.000 N 
ATOM     10  C   UNL     1       1.755   7.019  20.229  0.00  0.00    +0.000 C 
ATOM     11  C   UNL     1       1.354   8.244  19.881  0.00  0.00    +0.000 C 
ATOM     12  C   UNL     1       0.382   8.998  20.719  0.00  0.00    +0.000 C 
ATOM     13  O   UNL     1      -0.433   8.373  21.391  0.00  0.00    +0.000 OA
ENDROOT
BRANCH   9  14
ATOM     14  C   UNL     1       3.104   4.912  20.021  0.00  0.00    +0.000 C 
ATOM     15  C   UNL     1       2.408   4.544  21.334  0.00  0.00    +0.000 C 
ATOM     16  C   UNL     1       2.315   3.026  21.350  0.00  0.00    +0.000 C 
ATOM     17  C   UNL     1       2.500   2.542  19.919  0.00  0.00    +0.000 C 
ATOM     18  C   UNL     1       2.815   3.758  19.058  0.00  0.00    +0.000 C 
ENDBRANCH   9  14
BRANCH   8  19
ATOM     19  C   UNL     1       4.030   5.931  17.388  0.00  0.00    +0.000 C 
ATOM     20  C   UNL     1       4.892   6.579  16.333  0.00  0.00    +0.000 C 
ATOM     21  C   UNL     1       5.522   6.079  17.593  0.00  0.00    +0.000 C 
ENDBRANCH   8  19
BRANCH   1  22
ATOM     22  O   UNL     1      -0.785  11.180  20.984  0.00  0.00    +0.000 OA
BRANCH  22  23
ATOM     23  C   UNL     1      -0.914  11.714  22.232  0.00  0.00    +0.000 C 
ATOM     24  O   UNL     1      -0.973  11.087  23.280  0.00  0.00    +0.000 OA
BRANCH  23  25
ATOM     25  C   UNL     1      -0.964  13.221  22.195  0.00  0.00    +0.000 C 
BRANCH  25  26
ATOM     26  C   UNL     1      -2.233  13.708  22.899  0.00  0.00    +0.000 C 
BRANCH  26  27
ATOM     27  C   UNL     1      -1.909  14.494  24.152  0.00  0.00    +0.000 C 
ATOM     28  O   UNL     1      -0.787  14.838  24.495  0.00  0.00    +0.000 OA
BRANCH  27  30
ATOM     29  C   UNL     1      -4.241  14.621  24.045  0.00  0.00    +0.000 C 
ATOM     30  O   UNL     1      -3.056  14.783  24.828  0.00  0.00    +0.000 OA
ENDBRANCH  27  30
ENDBRANCH  26  27
ENDBRANCH  25  26
ENDBRANCH  23  25
ENDBRANCH  22  23
ENDBRANCH   1  22
TORSDOF 8
ENDMDL
MODEL 8
REMARK VINA RESULT:      -7.2      4.487      8.849
REMARK  Name = 
REMARK  10 active torsions:
REMARK  status: ('A' for Active; 'I' for Inactive)
REMARK    1  A    between atoms: C_1  and  O_2
REMARK    2  A    between atoms: O_2  and  C_3
REMARK    3  A    between atoms: C_3  and  C_5
REMARK    4  A    between atoms: C_5  and  C_6
REMARK    5  A    between atoms: C_6  and  C_7
REMARK    6  A    between atoms: C_7  and  O_9
REMARK    7  A    between atoms: O_9  and  C_10
REMARK    8  A    between atoms: C_10  and  C_11
REMARK    9  A    between atoms: C_17  and  C_18
REMARK   10  A    between atoms: N_21  and  C_22
REMARK                            x       y       z     vdW  Elec       q    Type
REMARK                         _______ _______ _______ _____ _____    ______ ____
ROOT
ATOM      1  C   UNL     1       0.332  10.680  18.733  0.00  0.00    +0.000 C 
ATOM      2  C   UNL     1      -0.828  10.185  17.848  0.00  0.00    +0.000 C 
ATOM      3  C   UNL     1      -0.053  10.236  20.166  0.00  0.00    +0.000 C 
ATOM      4  O   UNL     1      -0.892  10.823  20.851  0.00  0.00    +0.000 OA
ATOM      5  C   UNL     1       0.502   8.967  20.726  0.00  0.00    +0.000 C 
ATOM      6  C   UNL     1       1.380   8.214  20.053  0.00  0.00    +0.000 C 
ATOM      7  C   UNL     1       1.806   6.914  20.563  0.00  0.00    +0.000 C 
ATOM      8  C   UNL     1       2.585   6.090  19.808  0.00  0.00    +0.000 C 
ATOM      9  N   UNL     1       3.023   6.505  18.510  0.00  0.00    +0.000 N 
ATOM     10  C   UNL     1       2.698   7.818  18.097  0.00  0.00    +0.000 C 
ATOM     11  C   UNL     1       1.928   8.663  18.788  0.00  0.00    +0.000 C 
ATOM     12  C   UNL     1       1.660  10.039  18.288  0.00  0.00    +0.000 C 
ATOM     13  O   UNL     1       2.499  10.587  17.578  0.00  0.00    +0.000 OA
ENDROOT
BRANCH   9  14
ATOM     14  C   UNL     1       3.811   5.623  17.605  0.00  0.00    +0.000 C 
ATOM     15  C   UNL     1       4.503   6.397  16.479  0.00  0.00    +0.000 C 
ATOM     16  C   UNL     1       5.783   5.634  16.170  0.00  0.00    +0.000 C 
ATOM     17  C   UNL     1       6.081   4.739  17.365  0.00  0.00    +0.000 C 
ATOM     18  C   UNL     1       4.924   4.878  18.346  0.00  0.00    +0.000 C 
ENDBRANCH   9  14
BRANCH   8  19
ATOM     19  C   UNL     1       2.898   4.720  20.285  0.00  0.00    +0.000 C 
ATOM     20  C   UNL     1       2.127   4.085  21.415  0.00  0.00    +0.000 C 
ATOM     21  C   UNL     1       1.933   3.585  20.019  0.00  0.00    +0.000 C 
ENDBRANCH   8  19
BRANCH   1  22
ATOM     22  O   UNL     1       0.381  12.129  18.722  0.00  0.00    +0.000 OA
BRANCH  22  23
ATOM     23  C   UNL     1       1.482  12.733  19.252  0.00  0.00    +0.000 C 
ATOM     24  O   UNL     1       1.896  12.599  20.395  0.00  0.00    +0.000 OA
BRANCH  23  25
ATOM     25  C   UNL     1       2.179  13.611  18.243  0.00  0.00    +0.000 C 
BRANCH  25  26
ATOM     26  C   UNL     1       2.298  15.033  18.799  0.00  0.00    +0.000 C 
BRANCH  26  27
ATOM     27  C   UNL     1       3.343  15.837  18.055  0.00  0.00    +0.000 C 
ATOM     28  O   UNL     1       4.314  15.366  17.478  0.00  0.00    +0.000 OA
BRANCH  27  30
ATOM     29  C   UNL     1       1.641  17.432  17.911  0.00  0.00    +0.000 C 
ATOM     30  O   UNL     1       3.030  17.162  18.103  0.00  0.00    +0.000 OA
ENDBRANCH  27  30
ENDBRANCH  26  27
ENDBRANCH  25  26
ENDBRANCH  23  25
ENDBRANCH  22  23
ENDBRANCH   1  22
TORSDOF 8
ENDMDL
MODEL 9
REMARK VINA RESULT:      -7.2      4.836      9.395
REMARK  Name = 
REMARK  10 active torsions:
REMARK  status: ('A' for Active; 'I' for Inactive)
REMARK    1  A    between atoms: C_1  and  O_2
REMARK    2  A    between atoms: O_2  and  C_3
REMARK    3  A    between atoms: C_3  and  C_5
REMARK    4  A    between atoms: C_5  and  C_6
REMARK    5  A    between atoms: C_6  and  C_7
REMARK    6  A    between atoms: C_7  and  O_9
REMARK    7  A    between atoms: O_9  and  C_10
REMARK    8  A    between atoms: C_10  and  C_11
REMARK    9  A    between atoms: C_17  and  C_18
REMARK   10  A    between atoms: N_21  and  C_22
REMARK                            x       y       z     vdW  Elec       q    Type
REMARK                         _______ _______ _______ _____ _____    ______ ____
ROOT
ATOM      1  C   UNL     1       0.387  10.704  19.467  0.00  0.00    +0.000 C 
ATOM      2  C   UNL     1      -0.992  10.372  18.863  0.00  0.00    +0.000 C 
ATOM      3  C   UNL     1       0.276  10.272  20.951  0.00  0.00    +0.000 C 
ATOM      4  O   UNL     1      -0.312  10.937  21.804  0.00  0.00    +0.000 OA
ATOM      5  C   UNL     1       0.783   8.932  21.375  0.00  0.00    +0.000 C 
ATOM      6  C   UNL     1       1.392   8.097  20.524  0.00  0.00    +0.000 C 
ATOM      7  C   UNL     1       1.759   6.743  20.929  0.00  0.00    +0.000 C 
ATOM      8  C   UNL     1       2.246   5.852  20.021  0.00  0.00    +0.000 C 
ATOM      9  N   UNL     1       2.433   6.245  18.657  0.00  0.00    +0.000 N 
ATOM     10  C   UNL     1       2.187   7.598  18.325  0.00  0.00    +0.000 C 
ATOM     11  C   UNL     1       1.698   8.510  19.169  0.00  0.00    +0.000 C 
ATOM     12  C   UNL     1       1.495   9.921  18.738  0.00  0.00    +0.000 C 
ATOM     13  O   UNL     1       2.216  10.383  17.859  0.00  0.00    +0.000 OA
ENDROOT
BRANCH   9  14
ATOM     14  C   UNL     1       2.889   5.299  17.601  0.00  0.00    +0.000 C 
ATOM     15  C   UNL     1       4.273   4.712  17.891  0.00  0.00    +0.000 C 
ATOM     16  C   UNL     1       4.273   3.317  17.283  0.00  0.00    +0.000 C 
ATOM     17  C   UNL     1       2.821   2.910  17.074  0.00  0.00    +0.000 C 
ATOM     18  C   UNL     1       1.949   4.100  17.450  0.00  0.00    +0.000 C 
ENDBRANCH   9  14
BRANCH   8  19
ATOM     19  C   UNL     1       2.488   4.443  20.418  0.00  0.00    +0.000 C 
ATOM     20  C   UNL     1       2.252   3.973  21.832  0.00  0.00    +0.000 C 
ATOM     21  C   UNL     1       1.322   3.536  20.746  0.00  0.00    +0.000 C 
ENDBRANCH   8  19
BRANCH   1  22
ATOM     22  O   UNL     1       0.607  12.136  19.443  0.00  0.00    +0.000 OA
BRANCH  22  23
ATOM     23  C   UNL     1      -0.350  12.918  18.869  0.00  0.00    +0.000 C 
ATOM     24  O   UNL     1      -0.710  12.876  17.701  0.00  0.00    +0.000 OA
BRANCH  23  25
ATOM     25  C   UNL     1      -0.962  13.874  19.863  0.00  0.00    +0.000 C 
BRANCH  25  26
ATOM     26  C   UNL     1       0.039  14.986  20.186  0.00  0.00    +0.000 C 
BRANCH  26  27
ATOM     27  C   UNL     1       0.283  15.883  18.991  0.00  0.00    +0.000 C 
ATOM     28  O   UNL     1      -0.588  16.470  18.364  0.00  0.00    +0.000 OA
BRANCH  27  30
ATOM     29  C   UNL     1       2.248  17.112  19.291  0.00  0.00    +0.000 C 
ATOM     30  O   UNL     1       1.618  15.957  18.732  0.00  0.00    +0.000 OA
ENDBRANCH  27  30
ENDBRANCH  26  27
ENDBRANCH  25  26
ENDBRANCH  23  25
ENDBRANCH  22  23
ENDBRANCH   1  22
TORSDOF 8
ENDMDL
