MODEL 1
REMARK VINA RESULT:      -5.6      0.000      0.000
REMARK  Name = 
REMARK  15 active torsions:
REMARK  status: ('A' for Active; 'I' for Inactive)
REMARK    1  A    between atoms: C_1  and  C_2
REMARK    2  A    between atoms: C_2  and  C_3
REMARK    3  A    between atoms: C_3  and  C_4
REMARK    4  A    between atoms: C_4  and  C_5
REMARK    5  A    between atoms: C_5  and  C_6
REMARK    6  A    between atoms: C_6  and  O_8
REMARK    7  A    between atoms: O_8  and  C_9
REMARK    8  A    between atoms: C_9  and  C_10
REMARK    9  A    between atoms: C_10  and  O_11
REMARK   10  A    between atoms: O_11  and  C_12
REMARK   11  A    between atoms: C_12  and  C_14
REMARK   12  A    between atoms: C_14  and  C_15
REMARK   13  A    between atoms: C_15  and  C_16
REMARK   14  A    between atoms: C_16  and  C_17
REMARK   15  A    between atoms: C_17  and  C_18
REMARK                            x       y       z     vdW  Elec       q    Type
REMARK                         _______ _______ _______ _____ _____    ______ ____
ROOT
ATOM      1  C   UNL     1       4.906   3.605  19.257  0.00  0.00    +0.000 C 
ENDROOT
BRANCH   1   2
ATOM      2  O   UNL     1       4.493   3.391  17.893  0.00  0.00    +0.000 OA
BRANCH   2   3
ATOM      3  C   UNL     1       3.173   3.605  17.644  0.00  0.00    +0.000 C 
ATOM      4  O   UNL     1       2.668   4.697  17.420  0.00  0.00    +0.000 OA
BRANCH   3   5
ATOM      5  C   UNL     1       2.410   2.304  17.644  0.00  0.00    +0.000 C 
BRANCH   5   6
ATOM      6  C   UNL     1       1.883   1.963  19.036  0.00  0.00    +0.000 C 
BRANCH   6   7
ATOM      7  C   UNL     1       0.850   2.977  19.534  0.00  0.00    +0.000 C 
BRANCH   7   9
ATOM      8  C   UNL     1       1.631   5.033  20.755  0.00  0.00    +0.000 C 
ATOM      9  C   UNL     1       1.252   3.566  20.886  0.00  0.00    +0.000 C 
ENDBRANCH   7   9
ENDBRANCH   6   7
ENDBRANCH   5   6
ENDBRANCH   3   5
ENDBRANCH   2   3
ENDBRANCH   1   2
BRANCH   1  10
ATOM     10  C   UNL     1       5.264   5.072  19.502  0.00  0.00    +0.000 C 
BRANCH  10  11
ATOM     11  O   UNL     1       6.673   5.225  19.768  0.00  0.00    +0.000 OA
BRANCH  11  12
ATOM     12  C   UNL     1       7.469   5.284  18.668  0.00  0.00    +0.000 C 
ATOM     13  O   UNL     1       8.094   4.342  18.199  0.00  0.00    +0.000 OA
BRANCH  12  14
ATOM     14  C   UNL     1       7.452   6.669  18.067  0.00  0.00    +0.000 C 
BRANCH  14  15
ATOM     15  C   UNL     1       7.140   6.629  16.573  0.00  0.00    +0.000 C 
BRANCH  15  16
ATOM     16  C   UNL     1       5.659   6.358  16.293  0.00  0.00    +0.000 C 
BRANCH  16  17
ATOM     17  C   UNL     1       5.480   5.405  15.112  0.00  0.00    +0.000 C 
ATOM     18  C   UNL     1       6.671   4.470  14.974  0.00  0.00    +0.000 C 
ENDBRANCH  16  17
ENDBRANCH  15  16
ENDBRANCH  14  15
ENDBRANCH  12  14
ENDBRANCH  11  12
ENDBRANCH  10  11
ENDBRANCH   1  10
TORSDOF 13
ENDMDL
MODEL 2
REMARK VINA RESULT:      -5.5      1.694      2.736
REMARK  Name = 
REMARK  15 active torsions:
REMARK  status: ('A' for Active; 'I' for Inactive)
REMARK    1  A    between atoms: C_1  and  C_2
REMARK    2  A    between atoms: C_2  and  C_3
REMARK    3  A    between atoms: C_3  and  C_4
REMARK    4  A    between atoms: C_4  and  C_5
REMARK    5  A    between atoms: C_5  and  C_6
REMARK    6  A    between atoms: C_6  and  O_8
REMARK    7  A    between atoms: O_8  and  C_9
REMARK    8  A    between atoms: C_9  and  C_10
REMARK    9  A    between atoms: C_10  and  O_11
REMARK   10  A    between atoms: O_11  and  C_12
REMARK   11  A    between atoms: C_12  and  C_14
REMARK   12  A    between atoms: C_14  and  C_15
REMARK   13  A    between atoms: C_15  and  C_16
REMARK   14  A    between atoms: C_16  and  C_17
REMARK   15  A    between atoms: C_17  and  C_18
REMARK                            x       y       z     vdW  Elec       q    Type
REMARK                         _______ _______ _______ _____ _____    ______ ____
ROOT
ATOM      1  C   UNL     1       3.744   5.046  17.549  0.00  0.00    +0.000 C 
ENDROOT
BRANCH   1   2
ATOM      2  O   UNL     1       3.990   3.733  18.090  0.00  0.00    +0.000 OA
BRANCH   2   3
ATOM      3  C   UNL     1       2.966   2.848  17.959  0.00  0.00    +0.000 C 
ATOM      4  O   UNL     1       2.152   2.845  17.045  0.00  0.00    +0.000 OA
BRANCH   3   5
ATOM      5  C   UNL     1       2.984   1.838  19.079  0.00  0.00    +0.000 C 
BRANCH   5   6
ATOM      6  C   UNL     1       2.727   2.496  20.432  0.00  0.00    +0.000 C 
BRANCH   6   7
ATOM      7  C   UNL     1       1.239   2.757  20.681  0.00  0.00    +0.000 C 
BRANCH   7   9
ATOM      8  C   UNL     1       1.995   5.153  20.808  0.00  0.00    +0.000 C 
ATOM      9  C   UNL     1       0.872   4.214  20.397  0.00  0.00    +0.000 C 
ENDBRANCH   7   9
ENDBRANCH   6   7
ENDBRANCH   5   6
ENDBRANCH   3   5
ENDBRANCH   2   3
ENDBRANCH   1   2
BRANCH   1  10
ATOM     10  C   UNL     1       4.726   5.374  16.424  0.00  0.00    +0.000 C 
BRANCH  10  11
ATOM     11  O   UNL     1       5.738   4.355  16.304  0.00  0.00    +0.000 OA
BRANCH  11  12
ATOM     12  C   UNL     1       7.021   4.803  16.340  0.00  0.00    +0.000 C 
ATOM     13  O   UNL     1       7.619   5.304  15.397  0.00  0.00    +0.000 OA
BRANCH  12  14
ATOM     14  C   UNL     1       7.608   4.637  17.721  0.00  0.00    +0.000 C 
BRANCH  14  15
ATOM     15  C   UNL     1       7.189   5.775  18.649  0.00  0.00    +0.000 C 
BRANCH  15  16
ATOM     16  C   UNL     1       8.195   6.929  18.648  0.00  0.00    +0.000 C 
BRANCH  16  17
ATOM     17  C   UNL     1       7.773   8.036  17.682  0.00  0.00    +0.000 C 
ATOM     18  C   UNL     1       8.370   9.375  18.086  0.00  0.00    +0.000 C 
ENDBRANCH  16  17
ENDBRANCH  15  16
ENDBRANCH  14  15
ENDBRANCH  12  14
ENDBRANCH  11  12
ENDBRANCH  10  11
ENDBRANCH   1  10
TORSDOF 13
ENDMDL
MODEL 3
REMARK VINA RESULT:      -5.5      2.226      6.537
REMARK  Name = 
REMARK  15 active torsions:
REMARK  status: ('A' for Active; 'I' for Inactive)
REMARK    1  A    between atoms: C_1  and  C_2
REMARK    2  A    between atoms: C_2  and  C_3
REMARK    3  A    between atoms: C_3  and  C_4
REMARK    4  A    between atoms: C_4  and  C_5
REMARK    5  A    between atoms: C_5  and  C_6
REMARK    6  A    between atoms: C_6  and  O_8
REMARK    7  A    between atoms: O_8  and  C_9
REMARK    8  A    between atoms: C_9  and  C_10
REMARK    9  A    between atoms: C_10  and  O_11
REMARK   10  A    between atoms: O_11  and  C_12
REMARK   11  A    between atoms: C_12  and  C_14
REMARK   12  A    between atoms: C_14  and  C_15
REMARK   13  A    between atoms: C_15  and  C_16
REMARK   14  A    between atoms: C_16  and  C_17
REMARK   15  A    between atoms: C_17  and  C_18
REMARK                            x       y       z     vdW  Elec       q    Type
REMARK                         _______ _______ _______ _____ _____    ______ ____
ROOT
ATOM      1  C   UNL     1       6.173   6.030  17.505  0.00  0.00    +0.000 C 
ENDROOT
BRANCH   1   2
ATOM      2  O   UNL     1       6.451   6.213  16.103  0.00  0.00    +0.000 OA
BRANCH   2   3
ATOM      3  C   UNL     1       7.137   5.201  15.508  0.00  0.00    +0.000 C 
ATOM      4  O   UNL     1       7.870   4.411  16.090  0.00  0.00    +0.000 OA
BRANCH   3   5
ATOM      5  C   UNL     1       6.847   5.153  14.029  0.00  0.00    +0.000 C 
BRANCH   5   6
ATOM      6  C   UNL     1       6.143   3.856  13.637  0.00  0.00    +0.000 C 
BRANCH   6   7
ATOM      7  C   UNL     1       6.524   3.387  12.231  0.00  0.00    +0.000 C 
BRANCH   7   9
ATOM      8  C   UNL     1       6.422   1.155  11.076  0.00  0.00    +0.000 C 
ATOM      9  C   UNL     1       5.617   2.252  11.756  0.00  0.00    +0.000 C 
ENDBRANCH   7   9
ENDBRANCH   6   7
ENDBRANCH   5   6
ENDBRANCH   3   5
ENDBRANCH   2   3
ENDBRANCH   1   2
BRANCH   1  10
ATOM     10  C   UNL     1       5.183   4.886  17.728  0.00  0.00    +0.000 C 
BRANCH  10  11
ATOM     11  O   UNL     1       5.559   4.088  18.868  0.00  0.00    +0.000 OA
BRANCH  11  12
ATOM     12  C   UNL     1       4.612   3.216  19.305  0.00  0.00    +0.000 C 
ATOM     13  O   UNL     1       4.822   2.254  20.031  0.00  0.00    +0.000 OA
BRANCH  12  14
ATOM     14  C   UNL     1       3.245   3.615  18.804  0.00  0.00    +0.000 C 
BRANCH  14  15
ATOM     15  C   UNL     1       2.460   2.408  18.294  0.00  0.00    +0.000 C 
BRANCH  15  16
ATOM     16  C   UNL     1       1.189   2.152  19.109  0.00  0.00    +0.000 C 
BRANCH  16  17
ATOM     17  C   UNL     1       0.998   3.214  20.191  0.00  0.00    +0.000 C 
ATOM     18  C   UNL     1       1.398   2.683  21.559  0.00  0.00    +0.000 C 
ENDBRANCH  16  17
ENDBRANCH  15  16
ENDBRANCH  14  15
ENDBRANCH  12  14
ENDBRANCH  11  12
ENDBRANCH  10  11
ENDBRANCH   1  10
TORSDOF 13
ENDMDL
MODEL 4
REMARK VINA RESULT:      -5.5      1.917      6.644
REMARK  Name = 
REMARK  15 active torsions:
REMARK  status: ('A' for Active; 'I' for Inactive)
REMARK    1  A    between atoms: C_1  and  C_2
REMARK    2  A    between atoms: C_2  and  C_3
REMARK    3  A    between atoms: C_3  and  C_4
REMARK    4  A    between atoms: C_4  and  C_5
REMARK    5  A    between atoms: C_5  and  C_6
REMARK    6  A    between atoms: C_6  and  O_8
REMARK    7  A    between atoms: O_8  and  C_9
REMARK    8  A    between atoms: C_9  and  C_10
REMARK    9  A    between atoms: C_10  and  O_11
REMARK   10  A    between atoms: O_11  and  C_12
REMARK   11  A    between atoms: C_12  and  C_14
REMARK   12  A    between atoms: C_14  and  C_15
REMARK   13  A    between atoms: C_15  and  C_16
REMARK   14  A    between atoms: C_16  and  C_17
REMARK   15  A    between atoms: C_17  and  C_18
REMARK                            x       y       z     vdW  Elec       q    Type
REMARK                         _______ _______ _______ _____ _____    ______ ____
ROOT
ATOM      1  C   UNL     1       7.023   4.716  16.261  0.00  0.00    +0.000 C 
ENDROOT
BRANCH   1   2
ATOM      2  O   UNL     1       7.560   4.405  17.562  0.00  0.00    +0.000 OA
BRANCH   2   3
ATOM      3  C   UNL     1       7.575   5.437  18.448  0.00  0.00    +0.000 C 
ATOM      4  O   UNL     1       7.673   5.319  19.663  0.00  0.00    +0.000 OA
BRANCH   3   5
ATOM      5  C   UNL     1       7.488   6.761  17.731  0.00  0.00    +0.000 C 
BRANCH   5   6
ATOM      6  C   UNL     1       8.312   7.836  18.437  0.00  0.00    +0.000 C 
BRANCH   6   7
ATOM      7  C   UNL     1       8.087   9.227  17.842  0.00  0.00    +0.000 C 
BRANCH   7   9
ATOM      8  C   UNL     1       8.784  11.644  17.896  0.00  0.00    +0.000 C 
ATOM      9  C   UNL     1       9.088  10.240  18.396  0.00  0.00    +0.000 C 
ENDBRANCH   7   9
ENDBRANCH   6   7
ENDBRANCH   5   6
ENDBRANCH   3   5
ENDBRANCH   2   3
ENDBRANCH   1   2
BRANCH   1  10
ATOM     10  C   UNL     1       5.894   3.755  15.886  0.00  0.00    +0.000 C 
BRANCH  10  11
ATOM     11  O   UNL     1       4.603   4.366  16.085  0.00  0.00    +0.000 OA
BRANCH  11  12
ATOM     12  C   UNL     1       4.109   4.281  17.348  0.00  0.00    +0.000 C 
ATOM     13  O   UNL     1       3.835   5.236  18.063  0.00  0.00    +0.000 OA
BRANCH  12  14
ATOM     14  C   UNL     1       3.902   2.840  17.747  0.00  0.00    +0.000 C 
BRANCH  14  15
ATOM     15  C   UNL     1       2.438   2.426  17.616  0.00  0.00    +0.000 C 
BRANCH  15  16
ATOM     16  C   UNL     1       1.847   1.945  18.944  0.00  0.00    +0.000 C 
BRANCH  16  17
ATOM     17  C   UNL     1       0.745   2.883  19.435  0.00  0.00    +0.000 C 
ATOM     18  C   UNL     1       1.254   3.799  20.537  0.00  0.00    +0.000 C 
ENDBRANCH  16  17
ENDBRANCH  15  16
ENDBRANCH  14  15
ENDBRANCH  12  14
ENDBRANCH  11  12
ENDBRANCH  10  11
ENDBRANCH   1  10
TORSDOF 13
ENDMDL
MODEL 5
REMARK VINA RESULT:      -5.3      2.022      5.675
REMARK  Name = 
REMARK  15 active torsions:
REMARK  status: ('A' for Active; 'I' for Inactive)
REMARK    1  A    between atoms: C_1  and  C_2
REMARK    2  A    between atoms: C_2  and  C_3
REMARK    3  A    between atoms: C_3  and  C_4
REMARK    4  A    between atoms: C_4  and  C_5
REMARK    5  A    between atoms: C_5  and  C_6
REMARK    6  A    between atoms: C_6  and  O_8
REMARK    7  A    between atoms: O_8  and  C_9
REMARK    8  A    between atoms: C_9  and  C_10
REMARK    9  A    between atoms: C_10  and  O_11
REMARK   10  A    between atoms: O_11  and  C_12
REMARK   11  A    between atoms: C_12  and  C_14
REMARK   12  A    between atoms: C_14  and  C_15
REMARK   13  A    between atoms: C_15  and  C_16
REMARK   14  A    between atoms: C_16  and  C_17
REMARK   15  A    between atoms: C_17  and  C_18
REMARK                            x       y       z     vdW  Elec       q    Type
REMARK                         _______ _______ _______ _____ _____    ______ ____
ROOT
ATOM      1  C   UNL     1       4.891   2.783  19.381  0.00  0.00    +0.000 C 
ENDROOT
BRANCH   1   2
ATOM      2  O   UNL     1       4.889   4.207  19.161  0.00  0.00    +0.000 OA
BRANCH   2   3
ATOM      3  C   UNL     1       6.116   4.777  19.023  0.00  0.00    +0.000 C 
ATOM      4  O   UNL     1       6.750   5.307  19.926  0.00  0.00    +0.000 OA
BRANCH   3   5
ATOM      5  C   UNL     1       6.615   4.640  17.607  0.00  0.00    +0.000 C 
BRANCH   5   6
ATOM      6  C   UNL     1       6.476   5.950  16.834  0.00  0.00    +0.000 C 
BRANCH   6   7
ATOM      7  C   UNL     1       5.580   5.808  15.601  0.00  0.00    +0.000 C 
BRANCH   7   9
ATOM      8  C   UNL     1       6.022   3.940  13.976  0.00  0.00    +0.000 C 
ATOM      9  C   UNL     1       5.322   4.340  15.265  0.00  0.00    +0.000 C 
ENDBRANCH   7   9
ENDBRANCH   6   7
ENDBRANCH   5   6
ENDBRANCH   3   5
ENDBRANCH   2   3
ENDBRANCH   1   2
BRANCH   1  10
ATOM     10  C   UNL     1       4.000   2.404  20.564  0.00  0.00    +0.000 C 
BRANCH  10  11
ATOM     11  O   UNL     1       2.639   2.187  20.140  0.00  0.00    +0.000 OA
BRANCH  11  12
ATOM     12  C   UNL     1       1.693   2.832  20.873  0.00  0.00    +0.000 C 
ATOM     13  O   UNL     1       1.419   2.589  22.041  0.00  0.00    +0.000 OA
BRANCH  12  14
ATOM     14  C   UNL     1       1.042   3.927  20.063  0.00  0.00    +0.000 C 
BRANCH  14  15
ATOM     15  C   UNL     1       1.164   3.665  18.564  0.00  0.00    +0.000 C 
BRANCH  15  16
ATOM     16  C   UNL     1       1.887   4.798  17.830  0.00  0.00    +0.000 C 
BRANCH  16  17
ATOM     17  C   UNL     1       2.293   5.914  18.792  0.00  0.00    +0.000 C 
ATOM     18  C   UNL     1       3.048   7.018  18.066  0.00  0.00    +0.000 C 
ENDBRANCH  16  17
ENDBRANCH  15  16
ENDBRANCH  14  15
ENDBRANCH  12  14
ENDBRANCH  11  12
ENDBRANCH  10  11
ENDBRANCH   1  10
TORSDOF 13
ENDMDL
MODEL 6
REMARK VINA RESULT:      -5.3      3.846      6.456
REMARK  Name = 
REMARK  15 active torsions:
REMARK  status: ('A' for Active; 'I' for Inactive)
REMARK    1  A    between atoms: C_1  and  C_2
REMARK    2  A    between atoms: C_2  and  C_3
REMARK    3  A    between atoms: C_3  and  C_4
REMARK    4  A    between atoms: C_4  and  C_5
REMARK    5  A    between atoms: C_5  and  C_6
REMARK    6  A    between atoms: C_6  and  O_8
REMARK    7  A    between atoms: O_8  and  C_9
REMARK    8  A    between atoms: C_9  and  C_10
REMARK    9  A    between atoms: C_10  and  O_11
REMARK   10  A    between atoms: O_11  and  C_12
REMARK   11  A    between atoms: C_12  and  C_14
REMARK   12  A    between atoms: C_14  and  C_15
REMARK   13  A    between atoms: C_15  and  C_16
REMARK   14  A    between atoms: C_16  and  C_17
REMARK   15  A    between atoms: C_17  and  C_18
REMARK                            x       y       z     vdW  Elec       q    Type
REMARK                         _______ _______ _______ _____ _____    ______ ____
ROOT
ATOM      1  C   UNL     1       6.309   3.809  14.567  0.00  0.00    +0.000 C 
ENDROOT
BRANCH   1   2
ATOM      2  O   UNL     1       5.419   3.863  13.435  0.00  0.00    +0.000 OA
BRANCH   2   3
ATOM      3  C   UNL     1       5.950   3.438  12.257  0.00  0.00    +0.000 C 
ATOM      4  O   UNL     1       7.101   3.640  11.891  0.00  0.00    +0.000 OA
BRANCH   3   5
ATOM      5  C   UNL     1       4.938   2.648  11.466  0.00  0.00    +0.000 C 
BRANCH   5   6
ATOM      6  C   UNL     1       3.645   3.436  11.264  0.00  0.00    +0.000 C 
BRANCH   6   7
ATOM      7  C   UNL     1       3.042   3.221   9.874  0.00  0.00    +0.000 C 
BRANCH   7   9
ATOM      8  C   UNL     1       1.916   5.206   8.816  0.00  0.00    +0.000 C 
ATOM      9  C   UNL     1       3.225   4.453   8.989  0.00  0.00    +0.000 C 
ENDBRANCH   7   9
ENDBRANCH   6   7
ENDBRANCH   5   6
ENDBRANCH   3   5
ENDBRANCH   2   3
ENDBRANCH   1   2
BRANCH   1  10
ATOM     10  C   UNL     1       6.366   5.155  15.291  0.00  0.00    +0.000 C 
BRANCH  10  11
ATOM     11  O   UNL     1       7.544   5.252  16.116  0.00  0.00    +0.000 OA
BRANCH  11  12
ATOM     12  C   UNL     1       7.479   4.592  17.303  0.00  0.00    +0.000 C 
ATOM     13  O   UNL     1       8.442   4.172  17.929  0.00  0.00    +0.000 OA
BRANCH  12  14
ATOM     14  C   UNL     1       6.049   4.477  17.773  0.00  0.00    +0.000 C 
BRANCH  14  15
ATOM     15  C   UNL     1       5.867   5.070  19.168  0.00  0.00    +0.000 C 
BRANCH  15  16
ATOM     16  C   UNL     1       4.435   5.551  19.416  0.00  0.00    +0.000 C 
BRANCH  16  17
ATOM     17  C   UNL     1       3.428   4.413  19.251  0.00  0.00    +0.000 C 
ATOM     18  C   UNL     1       2.206   4.869  18.468  0.00  0.00    +0.000 C 
ENDBRANCH  16  17
ENDBRANCH  15  16
ENDBRANCH  14  15
ENDBRANCH  12  14
ENDBRANCH  11  12
ENDBRANCH  10  11
ENDBRANCH   1  10
TORSDOF 13
ENDMDL
MODEL 7
REMARK VINA RESULT:      -5.3      2.166      6.314
REMARK  Name = 
REMARK  15 active torsions:
REMARK  status: ('A' for Active; 'I' for Inactive)
REMARK    1  A    between atoms: C_1  and  C_2
REMARK    2  A    between atoms: C_2  and  C_3
REMARK    3  A    between atoms: C_3  and  C_4
REMARK    4  A    between atoms: C_4  and  C_5
REMARK    5  A    between atoms: C_5  and  C_6
REMARK    6  A    between atoms: C_6  and  O_8
REMARK    7  A    between atoms: O_8  and  C_9
REMARK    8  A    between atoms: C_9  and  C_10
REMARK    9  A    between atoms: C_10  and  O_11
REMARK   10  A    between atoms: O_11  and  C_12
REMARK   11  A    between atoms: C_12  and  C_14
REMARK   12  A    between atoms: C_14  and  C_15
REMARK   13  A    between atoms: C_15  and  C_16
REMARK   14  A    between atoms: C_16  and  C_17
REMARK   15  A    between atoms: C_17  and  C_18
REMARK                            x       y       z     vdW  Elec       q    Type
REMARK                         _______ _______ _______ _____ _____    ______ ____
ROOT
ATOM      1  C   UNL     1       5.913   5.886  17.790  0.00  0.00    +0.000 C 
ENDROOT
BRANCH   1   2
ATOM      2  O   UNL     1       5.745   4.884  16.767  0.00  0.00    +0.000 OA
BRANCH   2   3
ATOM      3  C   UNL     1       5.893   5.326  15.490  0.00  0.00    +0.000 C 
ATOM      4  O   UNL     1       5.621   6.454  15.100  0.00  0.00    +0.000 OA
BRANCH   3   5
ATOM      5  C   UNL     1       6.475   4.246  14.613  0.00  0.00    +0.000 C 
BRANCH   5   6
ATOM      6  C   UNL     1       7.067   4.824  13.330  0.00  0.00    +0.000 C 
BRANCH   6   7
ATOM      7  C   UNL     1       6.981   3.846  12.155  0.00  0.00    +0.000 C 
BRANCH   7   9
ATOM      8  C   UNL     1       5.669   1.836  11.405  0.00  0.00    +0.000 C 
ATOM      9  C   UNL     1       5.597   3.205  12.063  0.00  0.00    +0.000 C 
ENDBRANCH   7   9
ENDBRANCH   6   7
ENDBRANCH   5   6
ENDBRANCH   3   5
ENDBRANCH   2   3
ENDBRANCH   1   2
BRANCH   1  10
ATOM     10  C   UNL     1       5.542   5.338  19.168  0.00  0.00    +0.000 C 
BRANCH  10  11
ATOM     11  O   UNL     1       5.760   3.915  19.238  0.00  0.00    +0.000 OA
BRANCH  11  12
ATOM     12  C   UNL     1       4.668   3.175  19.568  0.00  0.00    +0.000 C 
ATOM     13  O   UNL     1       4.699   2.064  20.080  0.00  0.00    +0.000 OA
BRANCH  12  14
ATOM     14  C   UNL     1       3.397   3.927  19.255  0.00  0.00    +0.000 C 
BRANCH  14  15
ATOM     15  C   UNL     1       2.446   3.091  18.402  0.00  0.00    +0.000 C 
BRANCH  15  16
ATOM     16  C   UNL     1       1.232   2.597  19.195  0.00  0.00    +0.000 C 
BRANCH  16  17
ATOM     17  C   UNL     1       1.012   3.433  20.456  0.00  0.00    +0.000 C 
ATOM     18  C   UNL     1       1.345   2.638  21.708  0.00  0.00    +0.000 C 
ENDBRANCH  16  17
ENDBRANCH  15  16
ENDBRANCH  14  15
ENDBRANCH  12  14
ENDBRANCH  11  12
ENDBRANCH  10  11
ENDBRANCH   1  10
TORSDOF 13
ENDMDL
MODEL 8
REMARK VINA RESULT:      -5.3      2.044      6.269
REMARK  Name = 
REMARK  15 active torsions:
REMARK  status: ('A' for Active; 'I' for Inactive)
REMARK    1  A    between atoms: C_1  and  C_2
REMARK    2  A    between atoms: C_2  and  C_3
REMARK    3  A    between atoms: C_3  and  C_4
REMARK    4  A    between atoms: C_4  and  C_5
REMARK    5  A    between atoms: C_5  and  C_6
REMARK    6  A    between atoms: C_6  and  O_8
REMARK    7  A    between atoms: O_8  and  C_9
REMARK    8  A    between atoms: C_9  and  C_10
REMARK    9  A    between atoms: C_10  and  O_11
REMARK   10  A    between atoms: O_11  and  C_12
REMARK   11  A    between atoms: C_12  and  C_14
REMARK   12  A    between atoms: C_14  and  C_15
REMARK   13  A    between atoms: C_15  and  C_16
REMARK   14  A    between atoms: C_16  and  C_17
REMARK   15  A    between atoms: C_17  and  C_18
REMARK                            x       y       z     vdW  Elec       q    Type
REMARK                         _______ _______ _______ _____ _____    ______ ____
ROOT
ATOM      1  C   UNL     1       5.918   6.747  17.587  0.00  0.00    +0.000 C 
ENDROOT
BRANCH   1   2
ATOM      2  O   UNL     1       6.525   6.487  16.306  0.00  0.00    +0.000 OA
BRANCH   2   3
ATOM      3  C   UNL     1       7.106   5.266  16.174  0.00  0.00    +0.000 C 
ATOM      4  O   UNL     1       7.510   4.575  17.101  0.00  0.00    +0.000 OA
BRANCH   3   5
ATOM      5  C   UNL     1       7.159   4.851  14.725  0.00  0.00    +0.000 C 
BRANCH   5   6
ATOM      6  C   UNL     1       6.143   3.752  14.419  0.00  0.00    +0.000 C 
BRANCH   6   7
ATOM      7  C   UNL     1       5.224   4.117  13.251  0.00  0.00    +0.000 C 
BRANCH   7   9
ATOM      8  C   UNL     1       4.197   3.042  11.222  0.00  0.00    +0.000 C 
ATOM      9  C   UNL     1       5.464   3.206  12.046  0.00  0.00    +0.000 C 
ENDBRANCH   7   9
ENDBRANCH   6   7
ENDBRANCH   5   6
ENDBRANCH   3   5
ENDBRANCH   2   3
ENDBRANCH   1   2
BRANCH   1  10
ATOM     10  C   UNL     1       4.423   6.425  17.567  0.00  0.00    +0.000 C 
BRANCH  10  11
ATOM     11  O   UNL     1       3.966   5.999  18.866  0.00  0.00    +0.000 OA
BRANCH  11  12
ATOM     12  C   UNL     1       2.668   5.597  18.922  0.00  0.00    +0.000 C 
ATOM     13  O   UNL     1       1.920   5.496  17.959  0.00  0.00    +0.000 OA
BRANCH  12  14
ATOM     14  C   UNL     1       2.275   5.250  20.338  0.00  0.00    +0.000 C 
BRANCH  14  15
ATOM     15  C   UNL     1       1.018   4.384  20.375  0.00  0.00    +0.000 C 
BRANCH  15  16
ATOM     16  C   UNL     1       1.339   2.887  20.363  0.00  0.00    +0.000 C 
BRANCH  16  17
ATOM     17  C   UNL     1       1.062   2.269  18.993  0.00  0.00    +0.000 C 
ATOM     18  C   UNL     1       2.356   1.976  18.250  0.00  0.00    +0.000 C 
ENDBRANCH  16  17
ENDBRANCH  15  16
ENDBRANCH  14  15
ENDBRANCH  12  14
ENDBRANCH  11  12
ENDBRANCH  10  11
ENDBRANCH   1  10
TORSDOF 13
ENDMDL
MODEL 9
REMARK VINA RESULT:      -5.2      2.206      3.233
REMARK  Name = 
REMARK  15 active torsions:
REMARK  status: ('A' for Active; 'I' for Inactive)
REMARK    1  A    between atoms: C_1  and  C_2
REMARK    2  A    between atoms: C_2  and  C_3
REMARK    3  A    between atoms: C_3  and  C_4
REMARK    4  A    between atoms: C_4  and  C_5
REMARK    5  A    between atoms: C_5  and  C_6
REMARK    6  A    between atoms: C_6  and  O_8
REMARK    7  A    between atoms: O_8  and  C_9
REMARK    8  A    between atoms: C_9  and  C_10
REMARK    9  A    between atoms: C_10  and  O_11
REMARK   10  A    between atoms: O_11  and  C_12
REMARK   11  A    between atoms: C_12  and  C_14
REMARK   12  A    between atoms: C_14  and  C_15
REMARK   13  A    between atoms: C_15  and  C_16
REMARK   14  A    between atoms: C_16  and  C_17
REMARK   15  A    between atoms: C_17  and  C_18
REMARK                            x       y       z     vdW  Elec       q    Type
REMARK                         _______ _______ _______ _____ _____    ______ ____
ROOT
ATOM      1  C   UNL     1       4.980   5.536  19.165  0.00  0.00    +0.000 C 
ENDROOT
BRANCH   1   2
ATOM      2  O   UNL     1       3.890   4.936  19.893  0.00  0.00    +0.000 OA
BRANCH   2   3
ATOM      3  C   UNL     1       2.659   5.450  19.627  0.00  0.00    +0.000 C 
ATOM      4  O   UNL     1       1.856   5.823  20.472  0.00  0.00    +0.000 OA
BRANCH   3   5
ATOM      5  C   UNL     1       2.423   5.534  18.140  0.00  0.00    +0.000 C 
BRANCH   5   6
ATOM      6  C   UNL     1       1.407   4.493  17.674  0.00  0.00    +0.000 C 
BRANCH   6   7
ATOM      7  C   UNL     1       1.627   3.128  18.330  0.00  0.00    +0.000 C 
BRANCH   7   9
ATOM      8  C   UNL     1       3.529   1.506  18.609  0.00  0.00    +0.000 C 
ATOM      9  C   UNL     1       2.728   2.339  17.621  0.00  0.00    +0.000 C 
ENDBRANCH   7   9
ENDBRANCH   6   7
ENDBRANCH   5   6
ENDBRANCH   3   5
ENDBRANCH   2   3
ENDBRANCH   1   2
BRANCH   1  10
ATOM     10  C   UNL     1       5.870   4.471  18.523  0.00  0.00    +0.000 C 
BRANCH  10  11
ATOM     11  O   UNL     1       6.710   5.043  17.501  0.00  0.00    +0.000 OA
BRANCH  11  12
ATOM     12  C   UNL     1       6.051   5.564  16.432  0.00  0.00    +0.000 C 
ATOM     13  O   UNL     1       6.103   6.732  16.072  0.00  0.00    +0.000 OA
BRANCH  12  14
ATOM     14  C   UNL     1       5.267   4.493  15.712  0.00  0.00    +0.000 C 
BRANCH  14  15
ATOM     15  C   UNL     1       6.100   3.826  14.620  0.00  0.00    +0.000 C 
BRANCH  15  16
ATOM     16  C   UNL     1       5.489   4.008  13.228  0.00  0.00    +0.000 C 
BRANCH  16  17
ATOM     17  C   UNL     1       6.367   3.378  12.147  0.00  0.00    +0.000 C 
ATOM     18  C   UNL     1       5.721   2.125  11.576  0.00  0.00    +0.000 C 
ENDBRANCH  16  17
ENDBRANCH  15  16
ENDBRANCH  14  15
ENDBRANCH  12  14
ENDBRANCH  11  12
ENDBRANCH  10  11
ENDBRANCH   1  10
TORSDOF 13
ENDMDL
