MODEL 1
REMARK VINA RESULT:      -7.9      0.000      0.000
REMARK  Name = 
REMARK  4 active torsions:
REMARK  status: ('A' for Active; 'I' for Inactive)
REMARK    1  A    between atoms: C_4  and  C_5
REMARK    2  A    between atoms: C_8  and  O_9
REMARK    3  A    between atoms: C_10  and  O_11
REMARK    4  A    between atoms: C_18  and  O_19
REMARK                            x       y       z     vdW  Elec       q    Type
REMARK                         _______ _______ _______ _____ _____    ______ ____
ROOT
ATOM      1  O   UNL     1       0.746   4.153  17.326  0.00  0.00    +0.000 OA
ATOM      2  C   UNL     1       1.858   3.897  17.762  0.00  0.00    +0.000 C 
ATOM      3  O   UNL     1       2.958   4.209  17.028  0.00  0.00    +0.000 OA
ATOM      4  C   UNL     1       4.168   3.459  17.217  0.00  0.00    +0.000 C 
ATOM      5  C   UNL     1       4.600   3.495  18.677  0.00  0.00    +0.000 C 
ATOM      6  C   UNL     1       3.441   3.136  19.564  0.00  0.00    +0.000 A 
ATOM      7  C   UNL     1       3.686   2.677  20.868  0.00  0.00    +0.000 A 
ATOM      8  C   UNL     1       2.631   2.397  21.729  0.00  0.00    +0.000 A 
ATOM      9  C   UNL     1       1.318   2.574  21.299  0.00  0.00    +0.000 A 
ATOM     10  C   UNL     1       1.063   3.035  20.005  0.00  0.00    +0.000 A 
ATOM     11  C   UNL     1       2.118   3.328  19.124  0.00  0.00    +0.000 A 
ENDROOT
BRANCH   4  12
ATOM     12  C   UNL     1       5.239   4.048  16.315  0.00  0.00    +0.000 A 
ATOM     13  C   UNL     1       5.495   3.512  15.036  0.00  0.00    +0.000 A 
ATOM     14  C   UNL     1       6.488   4.050  14.211  0.00  0.00    +0.000 A 
ATOM     15  C   UNL     1       7.227   5.134  14.665  0.00  0.00    +0.000 A 
ATOM     16  C   UNL     1       6.974   5.680  15.920  0.00  0.00    +0.000 A 
ATOM     17  C   UNL     1       5.987   5.156  16.744  0.00  0.00    +0.000 A 
BRANCH  15  18
ATOM     18  O   UNL     1       8.220   5.698  13.911  0.00  0.00    +0.000 OA
ATOM     19  H   UNL     1       7.801   6.214  13.202  0.00  0.00    +0.000 HD
ENDBRANCH  15  18
BRANCH  16  20
ATOM     20  O   UNL     1       7.711   6.743  16.359  0.00  0.00    +0.000 OA
ATOM     21  H   UNL     1       8.560   6.349  16.642  0.00  0.00    +0.000 HD
ENDBRANCH  16  20
ENDBRANCH   4  12
BRANCH  10  22
ATOM     22  O   UNL     1      -0.239   3.202  19.625  0.00  0.00    +0.000 OA
ATOM     23  H   UNL     1      -0.794   2.495  19.989  0.00  0.00    +0.000 HD
ENDBRANCH  10  22
TORSDOF 4
ENDMDL
MODEL 2
REMARK VINA RESULT:      -7.7      1.674      7.251
REMARK  Name = 
REMARK  4 active torsions:
REMARK  status: ('A' for Active; 'I' for Inactive)
REMARK    1  A    between atoms: C_4  and  C_5
REMARK    2  A    between atoms: C_8  and  O_9
REMARK    3  A    between atoms: C_10  and  O_11
REMARK    4  A    between atoms: C_18  and  O_19
REMARK                            x       y       z     vdW  Elec       q    Type
REMARK                         _______ _______ _______ _____ _____    ______ ____
ROOT
ATOM      1  O   UNL     1       7.537   6.329  16.080  0.00  0.00    +0.000 OA
ATOM      2  C   UNL     1       6.692   5.518  15.735  0.00  0.00    +0.000 C 
ATOM      3  O   UNL     1       5.643   5.247  16.555  0.00  0.00    +0.000 OA
ATOM      4  C   UNL     1       4.987   3.973  16.463  0.00  0.00    +0.000 C 
ATOM      5  C   UNL     1       4.498   3.721  15.044  0.00  0.00    +0.000 C 
ATOM      6  C   UNL     1       5.611   3.976  14.065  0.00  0.00    +0.000 A 
ATOM      7  C   UNL     1       5.549   3.404  12.785  0.00  0.00    +0.000 A 
ATOM      8  C   UNL     1       6.535   3.674  11.842  0.00  0.00    +0.000 A 
ATOM      9  C   UNL     1       7.592   4.520  12.165  0.00  0.00    +0.000 A 
ATOM     10  C   UNL     1       7.661   5.100  13.435  0.00  0.00    +0.000 A 
ATOM     11  C   UNL     1       6.671   4.842  14.398  0.00  0.00    +0.000 A 
ENDROOT
BRANCH   4  12
ATOM     12  C   UNL     1       3.831   3.961  17.449  0.00  0.00    +0.000 A 
ATOM     13  C   UNL     1       3.452   5.127  18.147  0.00  0.00    +0.000 A 
ATOM     14  C   UNL     1       2.394   5.111  19.062  0.00  0.00    +0.000 A 
ATOM     15  C   UNL     1       1.706   3.925  19.277  0.00  0.00    +0.000 A 
ATOM     16  C   UNL     1       2.062   2.772  18.584  0.00  0.00    +0.000 A 
ATOM     17  C   UNL     1       3.108   2.778  17.671  0.00  0.00    +0.000 A 
BRANCH  15  18
ATOM     18  O   UNL     1       0.670   3.842  20.166  0.00  0.00    +0.000 OA
ATOM     19  H   UNL     1       0.216   2.995  20.019  0.00  0.00    +0.000 HD
ENDBRANCH  15  18
BRANCH  16  20
ATOM     20  O   UNL     1       1.382   1.608  18.807  0.00  0.00    +0.000 OA
ATOM     21  H   UNL     1       0.478   1.897  19.044  0.00  0.00    +0.000 HD
ENDBRANCH  16  20
ENDBRANCH   4  12
BRANCH  10  22
ATOM     22  O   UNL     1       8.711   5.930  13.709  0.00  0.00    +0.000 OA
ATOM     23  H   UNL     1       9.509   5.636  13.245  0.00  0.00    +0.000 HD
ENDBRANCH  10  22
TORSDOF 4
ENDMDL
MODEL 3
REMARK VINA RESULT:      -7.7      0.642      1.522
REMARK  Name = 
REMARK  4 active torsions:
REMARK  status: ('A' for Active; 'I' for Inactive)
REMARK    1  A    between atoms: C_4  and  C_5
REMARK    2  A    between atoms: C_8  and  O_9
REMARK    3  A    between atoms: C_10  and  O_11
REMARK    4  A    between atoms: C_18  and  O_19
REMARK                            x       y       z     vdW  Elec       q    Type
REMARK                         _______ _______ _______ _____ _____    ______ ____
ROOT
ATOM      1  O   UNL     1       0.774   4.084  17.299  0.00  0.00    +0.000 OA
ATOM      2  C   UNL     1       1.883   3.854  17.755  0.00  0.00    +0.000 C 
ATOM      3  O   UNL     1       2.988   4.164  17.027  0.00  0.00    +0.000 OA
ATOM      4  C   UNL     1       4.206   3.436  17.249  0.00  0.00    +0.000 C 
ATOM      5  C   UNL     1       4.620   3.514  18.712  0.00  0.00    +0.000 C 
ATOM      6  C   UNL     1       3.455   3.161  19.594  0.00  0.00    +0.000 A 
ATOM      7  C   UNL     1       3.690   2.737  20.912  0.00  0.00    +0.000 A 
ATOM      8  C   UNL     1       2.628   2.463  21.767  0.00  0.00    +0.000 A 
ATOM      9  C   UNL     1       1.319   2.610  21.316  0.00  0.00    +0.000 A 
ATOM     10  C   UNL     1       1.073   3.036  20.008  0.00  0.00    +0.000 A 
ATOM     11  C   UNL     1       2.134   3.323  19.133  0.00  0.00    +0.000 A 
ENDROOT
BRANCH   4  12
ATOM     12  C   UNL     1       5.280   4.019  16.346  0.00  0.00    +0.000 A 
ATOM     13  C   UNL     1       6.112   5.070  16.781  0.00  0.00    +0.000 A 
ATOM     14  C   UNL     1       7.094   5.612  15.945  0.00  0.00    +0.000 A 
ATOM     15  C   UNL     1       7.248   5.096  14.666  0.00  0.00    +0.000 A 
ATOM     16  C   UNL     1       6.442   4.049  14.229  0.00  0.00    +0.000 A 
ATOM     17  C   UNL     1       5.468   3.502  15.054  0.00  0.00    +0.000 A 
BRANCH  15  18
ATOM     18  O   UNL     1       8.181   5.590  13.796  0.00  0.00    +0.000 OA
ATOM     19  H   UNL     1       8.227   6.553  13.921  0.00  0.00    +0.000 HD
ENDBRANCH  15  18
BRANCH  16  20
ATOM     20  O   UNL     1       6.598   3.552  12.966  0.00  0.00    +0.000 OA
ATOM     21  H   UNL     1       6.805   2.606  13.102  0.00  0.00    +0.000 HD
ENDBRANCH  16  20
ENDBRANCH   4  12
BRANCH  10  22
ATOM     22  O   UNL     1      -0.226   3.175  19.609  0.00  0.00    +0.000 OA
ATOM     23  H   UNL     1      -0.812   3.264  20.376  0.00  0.00    +0.000 HD
ENDBRANCH  10  22
TORSDOF 4
ENDMDL
MODEL 4
REMARK VINA RESULT:      -7.7      1.669      7.048
REMARK  Name = 
REMARK  4 active torsions:
REMARK  status: ('A' for Active; 'I' for Inactive)
REMARK    1  A    between atoms: C_4  and  C_5
REMARK    2  A    between atoms: C_8  and  O_9
REMARK    3  A    between atoms: C_10  and  O_11
REMARK    4  A    between atoms: C_18  and  O_19
REMARK                            x       y       z     vdW  Elec       q    Type
REMARK                         _______ _______ _______ _____ _____    ______ ____
ROOT
ATOM      1  O   UNL     1       7.506   6.347  16.111  0.00  0.00    +0.000 OA
ATOM      2  C   UNL     1       6.652   5.538  15.785  0.00  0.00    +0.000 C 
ATOM      3  O   UNL     1       5.607   5.288  16.617  0.00  0.00    +0.000 OA
ATOM      4  C   UNL     1       4.941   4.017  16.550  0.00  0.00    +0.000 C 
ATOM      5  C   UNL     1       4.440   3.747  15.138  0.00  0.00    +0.000 C 
ATOM      6  C   UNL     1       5.547   3.978  14.147  0.00  0.00    +0.000 A 
ATOM      7  C   UNL     1       5.471   3.386  12.876  0.00  0.00    +0.000 A 
ATOM      8  C   UNL     1       6.452   3.634  11.921  0.00  0.00    +0.000 A 
ATOM      9  C   UNL     1       7.518   4.478  12.224  0.00  0.00    +0.000 A 
ATOM     10  C   UNL     1       7.600   5.076  13.484  0.00  0.00    +0.000 A 
ATOM     11  C   UNL     1       6.616   4.841  14.459  0.00  0.00    +0.000 A 
ENDROOT
BRANCH   4  12
ATOM     12  C   UNL     1       3.792   4.030  17.544  0.00  0.00    +0.000 A 
ATOM     13  C   UNL     1       2.638   3.245  17.340  0.00  0.00    +0.000 A 
ATOM     14  C   UNL     1       1.578   3.266  18.252  0.00  0.00    +0.000 A 
ATOM     15  C   UNL     1       1.673   4.071  19.378  0.00  0.00    +0.000 A 
ATOM     16  C   UNL     1       2.812   4.839  19.597  0.00  0.00    +0.000 A 
ATOM     17  C   UNL     1       3.872   4.822  18.700  0.00  0.00    +0.000 A 
BRANCH  15  18
ATOM     18  O   UNL     1       0.665   4.144  20.301  0.00  0.00    +0.000 OA
ATOM     19  H   UNL     1       1.068   4.293  21.172  0.00  0.00    +0.000 HD
ENDBRANCH  15  18
BRANCH  16  20
ATOM     20  O   UNL     1       2.893   5.633  20.706  0.00  0.00    +0.000 OA
ATOM     21  H   UNL     1       2.039   6.109  20.726  0.00  0.00    +0.000 HD
ENDBRANCH  16  20
ENDBRANCH   4  12
BRANCH  10  22
ATOM     22  O   UNL     1       8.658   5.902  13.737  0.00  0.00    +0.000 OA
ATOM     23  H   UNL     1       9.384   5.728  13.118  0.00  0.00    +0.000 HD
ENDBRANCH  10  22
TORSDOF 4
ENDMDL
MODEL 5
REMARK VINA RESULT:      -7.6      4.655      6.070
REMARK  Name = 
REMARK  4 active torsions:
REMARK  status: ('A' for Active; 'I' for Inactive)
REMARK    1  A    between atoms: C_4  and  C_5
REMARK    2  A    between atoms: C_8  and  O_9
REMARK    3  A    between atoms: C_10  and  O_11
REMARK    4  A    between atoms: C_18  and  O_19
REMARK                            x       y       z     vdW  Elec       q    Type
REMARK                         _______ _______ _______ _____ _____    ______ ____
ROOT
ATOM      1  O   UNL     1       2.301   9.000  17.292  0.00  0.00    +0.000 OA
ATOM      2  C   UNL     1       2.082   8.446  18.358  0.00  0.00    +0.000 C 
ATOM      3  O   UNL     1       2.618   7.221  18.603  0.00  0.00    +0.000 OA
ATOM      4  C   UNL     1       1.966   6.339  19.529  0.00  0.00    +0.000 C 
ATOM      5  C   UNL     1       1.795   7.012  20.884  0.00  0.00    +0.000 C 
ATOM      6  C   UNL     1       1.182   8.373  20.706  0.00  0.00    +0.000 A 
ATOM      7  C   UNL     1       0.533   8.985  21.791  0.00  0.00    +0.000 A 
ATOM      8  C   UNL     1       0.011  10.269  21.670  0.00  0.00    +0.000 A 
ATOM      9  C   UNL     1       0.133  10.957  20.465  0.00  0.00    +0.000 A 
ATOM     10  C   UNL     1       0.780  10.359  19.381  0.00  0.00    +0.000 A 
ATOM     11  C   UNL     1       1.318   9.065  19.487  0.00  0.00    +0.000 A 
ENDROOT
BRANCH   4  12
ATOM     12  C   UNL     1       2.799   5.074  19.649  0.00  0.00    +0.000 A 
ATOM     13  C   UNL     1       2.313   3.937  20.327  0.00  0.00    +0.000 A 
ATOM     14  C   UNL     1       3.086   2.778  20.444  0.00  0.00    +0.000 A 
ATOM     15  C   UNL     1       4.351   2.751  19.876  0.00  0.00    +0.000 A 
ATOM     16  C   UNL     1       4.838   3.862  19.193  0.00  0.00    +0.000 A 
ATOM     17  C   UNL     1       4.076   5.017  19.067  0.00  0.00    +0.000 A 
BRANCH  15  18
ATOM     18  O   UNL     1       5.161   1.652  19.966  0.00  0.00    +0.000 OA
ATOM     19  H   UNL     1       4.727   0.921  19.495  0.00  0.00    +0.000 HD
ENDBRANCH  15  18
BRANCH  16  20
ATOM     20  O   UNL     1       6.087   3.828  18.643  0.00  0.00    +0.000 OA
ATOM     21  H   UNL     1       5.933   3.590  17.706  0.00  0.00    +0.000 HD
ENDBRANCH  16  20
ENDBRANCH   4  12
BRANCH  10  22
ATOM     22  O   UNL     1       0.884  11.071  18.220  0.00  0.00    +0.000 OA
ATOM     23  H   UNL     1       1.808  11.126  17.933  0.00  0.00    +0.000 HD
ENDBRANCH  10  22
TORSDOF 4
ENDMDL
MODEL 6
REMARK VINA RESULT:      -7.6      1.581      7.123
REMARK  Name = 
REMARK  4 active torsions:
REMARK  status: ('A' for Active; 'I' for Inactive)
REMARK    1  A    between atoms: C_4  and  C_5
REMARK    2  A    between atoms: C_8  and  O_9
REMARK    3  A    between atoms: C_10  and  O_11
REMARK    4  A    between atoms: C_18  and  O_19
REMARK                            x       y       z     vdW  Elec       q    Type
REMARK                         _______ _______ _______ _____ _____    ______ ____
ROOT
ATOM      1  O   UNL     1       7.748   6.342  16.156  0.00  0.00    +0.000 OA
ATOM      2  C   UNL     1       6.863   5.545  15.888  0.00  0.00    +0.000 C 
ATOM      3  O   UNL     1       5.884   5.293  16.797  0.00  0.00    +0.000 OA
ATOM      4  C   UNL     1       5.201   4.030  16.765  0.00  0.00    +0.000 C 
ATOM      5  C   UNL     1       4.587   3.786  15.394  0.00  0.00    +0.000 C 
ATOM      6  C   UNL     1       5.615   4.021  14.322  0.00  0.00    +0.000 A 
ATOM      7  C   UNL     1       5.432   3.448  13.053  0.00  0.00    +0.000 A 
ATOM      8  C   UNL     1       6.337   3.700  12.027  0.00  0.00    +0.000 A 
ATOM      9  C   UNL     1       7.432   4.529  12.256  0.00  0.00    +0.000 A 
ATOM     10  C   UNL     1       7.621   5.108  13.513  0.00  0.00    +0.000 A 
ATOM     11  C   UNL     1       6.714   4.868  14.560  0.00  0.00    +0.000 A 
ENDROOT
BRANCH   4  12
ATOM     12  C   UNL     1       4.135   4.039  17.848  0.00  0.00    +0.000 A 
ATOM     13  C   UNL     1       2.987   4.852  17.739  0.00  0.00    +0.000 A 
ATOM     14  C   UNL     1       2.012   4.866  18.741  0.00  0.00    +0.000 A 
ATOM     15  C   UNL     1       2.182   4.059  19.858  0.00  0.00    +0.000 A 
ATOM     16  C   UNL     1       3.304   3.243  19.971  0.00  0.00    +0.000 A 
ATOM     17  C   UNL     1       4.275   3.219  18.979  0.00  0.00    +0.000 A 
BRANCH  15  18
ATOM     18  O   UNL     1       1.270   4.037  20.878  0.00  0.00    +0.000 OA
ATOM     19  H   UNL     1       1.001   3.114  21.018  0.00  0.00    +0.000 HD
ENDBRANCH  15  18
BRANCH  16  20
ATOM     20  O   UNL     1       3.464   2.458  21.076  0.00  0.00    +0.000 OA
ATOM     21  H   UNL     1       3.096   2.993  21.809  0.00  0.00    +0.000 HD
ENDBRANCH  16  20
ENDBRANCH   4  12
BRANCH  10  22
ATOM     22  O   UNL     1       8.704   5.920  13.693  0.00  0.00    +0.000 OA
ATOM     23  H   UNL     1       8.423   6.828  13.886  0.00  0.00    +0.000 HD
ENDBRANCH  10  22
TORSDOF 4
ENDMDL
MODEL 7
REMARK VINA RESULT:      -7.5      3.904      6.995
REMARK  Name = 
REMARK  4 active torsions:
REMARK  status: ('A' for Active; 'I' for Inactive)
REMARK    1  A    between atoms: C_4  and  C_5
REMARK    2  A    between atoms: C_8  and  O_9
REMARK    3  A    between atoms: C_10  and  O_11
REMARK    4  A    between atoms: C_18  and  O_19
REMARK                            x       y       z     vdW  Elec       q    Type
REMARK                         _______ _______ _______ _____ _____    ______ ____
ROOT
ATOM      1  O   UNL     1       6.409   5.074  19.799  0.00  0.00    +0.000 OA
ATOM      2  C   UNL     1       5.683   5.523  18.925  0.00  0.00    +0.000 C 
ATOM      3  O   UNL     1       4.646   6.334  19.261  0.00  0.00    +0.000 OA
ATOM      4  C   UNL     1       3.501   6.409  18.396  0.00  0.00    +0.000 C 
ATOM      5  C   UNL     1       3.918   6.806  16.986  0.00  0.00    +0.000 C 
ATOM      6  C   UNL     1       5.054   5.937  16.524  0.00  0.00    +0.000 A 
ATOM      7  C   UNL     1       5.308   5.807  15.149  0.00  0.00    +0.000 A 
ATOM      8  C   UNL     1       6.390   5.058  14.698  0.00  0.00    +0.000 A 
ATOM      9  C   UNL     1       7.232   4.432  15.614  0.00  0.00    +0.000 A 
ATOM     10  C   UNL     1       6.990   4.559  16.985  0.00  0.00    +0.000 A 
ATOM     11  C   UNL     1       5.905   5.316  17.458  0.00  0.00    +0.000 A 
ENDROOT
BRANCH   4  12
ATOM     12  C   UNL     1       2.528   7.418  18.982  0.00  0.00    +0.000 A 
ATOM     13  C   UNL     1       2.056   7.296  20.306  0.00  0.00    +0.000 A 
ATOM     14  C   UNL     1       1.152   8.220  20.840  0.00  0.00    +0.000 A 
ATOM     15  C   UNL     1       0.721   9.276  20.050  0.00  0.00    +0.000 A 
ATOM     16  C   UNL     1       1.190   9.414  18.746  0.00  0.00    +0.000 A 
ATOM     17  C   UNL     1       2.091   8.504  18.208  0.00  0.00    +0.000 A 
BRANCH  15  18
ATOM     18  O   UNL     1      -0.170  10.206  20.510  0.00  0.00    +0.000 OA
ATOM     19  H   UNL     1      -0.784   9.758  21.116  0.00  0.00    +0.000 HD
ENDBRANCH  15  18
BRANCH  16  20
ATOM     20  O   UNL     1       0.755  10.454  17.975  0.00  0.00    +0.000 OA
ATOM     21  H   UNL     1       0.089  10.053  17.381  0.00  0.00    +0.000 HD
ENDBRANCH  16  20
ENDBRANCH   4  12
BRANCH  10  22
ATOM     22  O   UNL     1       7.844   3.935  17.849  0.00  0.00    +0.000 OA
ATOM     23  H   UNL     1       7.371   3.635  18.641  0.00  0.00    +0.000 HD
ENDBRANCH  10  22
TORSDOF 4
ENDMDL
MODEL 8
REMARK VINA RESULT:      -7.4      1.950      2.809
REMARK  Name = 
REMARK  4 active torsions:
REMARK  status: ('A' for Active; 'I' for Inactive)
REMARK    1  A    between atoms: C_4  and  C_5
REMARK    2  A    between atoms: C_8  and  O_9
REMARK    3  A    between atoms: C_10  and  O_11
REMARK    4  A    between atoms: C_18  and  O_19
REMARK                            x       y       z     vdW  Elec       q    Type
REMARK                         _______ _______ _______ _____ _____    ______ ____
ROOT
ATOM      1  O   UNL     1       5.241   1.877  20.516  0.00  0.00    +0.000 OA
ATOM      2  C   UNL     1       4.677   2.710  19.823  0.00  0.00    +0.000 C 
ATOM      3  O   UNL     1       5.284   3.173  18.698  0.00  0.00    +0.000 OA
ATOM      4  C   UNL     1       4.948   4.478  18.202  0.00  0.00    +0.000 C 
ATOM      5  C   UNL     1       3.450   4.592  17.960  0.00  0.00    +0.000 C 
ATOM      6  C   UNL     1       2.697   4.120  19.172  0.00  0.00    +0.000 A 
ATOM      7  C   UNL     1       1.368   4.531  19.364  0.00  0.00    +0.000 A 
ATOM      8  C   UNL     1       0.630   4.059  20.444  0.00  0.00    +0.000 A 
ATOM      9  C   UNL     1       1.211   3.170  21.345  0.00  0.00    +0.000 A 
ATOM     10  C   UNL     1       2.531   2.750  21.162  0.00  0.00    +0.000 A 
ATOM     11  C   UNL     1       3.289   3.213  20.073  0.00  0.00    +0.000 A 
ENDROOT
BRANCH   4  12
ATOM     12  C   UNL     1       5.729   4.715  16.921  0.00  0.00    +0.000 A 
ATOM     13  C   UNL     1       6.582   5.829  16.777  0.00  0.00    +0.000 A 
ATOM     14  C   UNL     1       7.292   6.051  15.593  0.00  0.00    +0.000 A 
ATOM     15  C   UNL     1       7.153   5.151  14.546  0.00  0.00    +0.000 A 
ATOM     16  C   UNL     1       6.324   4.040  14.680  0.00  0.00    +0.000 A 
ATOM     17  C   UNL     1       5.619   3.809  15.853  0.00  0.00    +0.000 A 
BRANCH  15  18
ATOM     18  O   UNL     1       7.811   5.318  13.358  0.00  0.00    +0.000 OA
ATOM     19  H   UNL     1       8.311   6.150  13.407  0.00  0.00    +0.000 HD
ENDBRANCH  15  18
BRANCH  16  20
ATOM     20  O   UNL     1       6.190   3.164  13.641  0.00  0.00    +0.000 OA
ATOM     21  H   UNL     1       7.010   3.278  13.120  0.00  0.00    +0.000 HD
ENDBRANCH  16  20
ENDBRANCH   4  12
BRANCH  10  22
ATOM     22  O   UNL     1       3.059   1.872  22.065  0.00  0.00    +0.000 OA
ATOM     23  H   UNL     1       2.624   1.964  22.927  0.00  0.00    +0.000 HD
ENDBRANCH  10  22
TORSDOF 4
ENDMDL
MODEL 9
REMARK VINA RESULT:      -7.4      4.278      5.713
REMARK  Name = 
REMARK  4 active torsions:
REMARK  status: ('A' for Active; 'I' for Inactive)
REMARK    1  A    between atoms: C_4  and  C_5
REMARK    2  A    between atoms: C_8  and  O_9
REMARK    3  A    between atoms: C_10  and  O_11
REMARK    4  A    between atoms: C_18  and  O_19
REMARK                            x       y       z     vdW  Elec       q    Type
REMARK                         _______ _______ _______ _____ _____    ______ ____
ROOT
ATOM      1  O   UNL     1       2.515   8.752  17.050  0.00  0.00    +0.000 OA
ATOM      2  C   UNL     1       2.265   8.070  18.033  0.00  0.00    +0.000 C 
ATOM      3  O   UNL     1       2.584   6.749  18.035  0.00  0.00    +0.000 OA
ATOM      4  C   UNL     1       1.841   5.847  18.869  0.00  0.00    +0.000 C 
ATOM      5  C   UNL     1       1.880   6.301  20.321  0.00  0.00    +0.000 C 
ATOM      6  C   UNL     1       1.515   7.756  20.414  0.00  0.00    +0.000 A 
ATOM      7  C   UNL     1       1.057   8.277  21.635  0.00  0.00    +0.000 A 
ATOM      8  C   UNL     1       0.771   9.632  21.763  0.00  0.00    +0.000 A 
ATOM      9  C   UNL     1       0.940  10.483  20.673  0.00  0.00    +0.000 A 
ATOM     10  C   UNL     1       1.399   9.976  19.455  0.00  0.00    +0.000 A 
ATOM     11  C   UNL     1       1.698   8.611  19.310  0.00  0.00    +0.000 A 
ENDROOT
BRANCH   4  12
ATOM     12  C   UNL     1       2.436   4.458  18.715  0.00  0.00    +0.000 A 
ATOM     13  C   UNL     1       1.876   3.515  17.828  0.00  0.00    +0.000 A 
ATOM     14  C   UNL     1       2.419   2.233  17.694  0.00  0.00    +0.000 A 
ATOM     15  C   UNL     1       3.534   1.892  18.448  0.00  0.00    +0.000 A 
ATOM     16  C   UNL     1       4.104   2.818  19.317  0.00  0.00    +0.000 A 
ATOM     17  C   UNL     1       3.574   4.095  19.452  0.00  0.00    +0.000 A 
BRANCH  15  18
ATOM     18  O   UNL     1       4.105   0.651  18.372  0.00  0.00    +0.000 OA
ATOM     19  H   UNL     1       4.672   0.631  17.583  0.00  0.00    +0.000 HD
ENDBRANCH  15  18
BRANCH  16  20
ATOM     20  O   UNL     1       5.197   2.471  20.058  0.00  0.00    +0.000 OA
ATOM     21  H   UNL     1       4.880   2.494  20.983  0.00  0.00    +0.000 HD
ENDBRANCH  16  20
ENDBRANCH   4  12
BRANCH  10  22
ATOM     22  O   UNL     1       1.559  10.846  18.414  0.00  0.00    +0.000 OA
ATOM     23  H   UNL     1       0.784  11.423  18.329  0.00  0.00    +0.000 HD
ENDBRANCH  10  22
TORSDOF 4
ENDMDL
