MODEL 1
REMARK VINA RESULT:      -7.8      0.000      0.000
REMARK  Name = 
REMARK  16 active torsions:
REMARK  status: ('A' for Active; 'I' for Inactive)
REMARK    1  A    between atoms: C_1  and  C_2
REMARK    2  A    between atoms: C_2  and  C_3
REMARK    3  A    between atoms: C_3  and  C_4
REMARK    4  A    between atoms: C_4  and  C_5
REMARK    5  A    between atoms: C_5  and  C_6
REMARK    6  A    between atoms: C_6  and  C_7
REMARK    7  A    between atoms: C_7  and  C_8
REMARK    8  A    between atoms: C_8  and  C_9
REMARK    9  A    between atoms: C_9  and  C_10
REMARK   10  A    between atoms: C_10  and  C_11
REMARK   11  A    between atoms: C_11  and  C_12
REMARK   12  A    between atoms: C_12  and  N_13
REMARK   13  A    between atoms: C_16  and  C_17
REMARK   14  A    between atoms: C_17  and  N_18
REMARK   15  A    between atoms: C_17  and  C_28
REMARK   16  A    between atoms: C_19  and  C_21
REMARK                            x       y       z     vdW  Elec       q    Type
REMARK                         _______ _______ _______ _____ _____    ______ ____
ROOT
ATOM      1  C   UNL     1       3.030   6.156  19.863  0.00  0.00    +0.000 C 
ENDROOT
BRANCH   1   2
ATOM      2  C   UNL     1       2.227   4.863  19.700  0.00  0.00    +0.000 A 
ATOM      3  C   UNL     1       1.787   4.140  20.826  0.00  0.00    +0.000 A 
ATOM      4  C   UNL     1       0.975   3.006  20.681  0.00  0.00    +0.000 A 
ATOM      5  C   UNL     1       0.584   2.579  19.413  0.00  0.00    +0.000 A 
ATOM      6  C   UNL     1       1.024   3.264  18.289  0.00  0.00    +0.000 A 
ATOM      7  C   UNL     1       1.840   4.387  18.429  0.00  0.00    +0.000 A 
ENDBRANCH   1   2
BRANCH   1  11
ATOM      8  N   UNL     1       6.073   5.620  18.154  0.00  0.00    +0.000 N 
ATOM      9  N   UNL     1       5.652   6.646  17.399  0.00  0.00    +0.000 NA
ATOM     10  N   UNL     1       4.475   6.974  17.924  0.00  0.00    +0.000 NA
ATOM     11  C   UNL     1       4.221   6.074  18.939  0.00  0.00    +0.000 A 
ATOM     12  N   UNL     1       5.222   5.193  19.103  0.00  0.00    +0.000 NA
BRANCH   8  13
ATOM     13  C   UNL     1       7.342   4.966  17.932  0.00  0.00    +0.000 C 
BRANCH  13  14
ATOM     14  C   UNL     1       7.509   4.623  16.459  0.00  0.00    +0.000 C 
BRANCH  14  15
ATOM     15  C   UNL     1       6.251   4.010  15.854  0.00  0.00    +0.000 C 
BRANCH  15  16
ATOM     16  C   UNL     1       6.027   4.597  14.461  0.00  0.00    +0.000 C 
BRANCH  16  17
ATOM     17  C   UNL     1       7.292   4.533  13.616  0.00  0.00    +0.000 C 
BRANCH  17  18
ATOM     18  C   UNL     1       6.937   4.529  12.132  0.00  0.00    +0.000 C 
BRANCH  18  19
ATOM     19  C   UNL     1       6.373   3.176  11.716  0.00  0.00    +0.000 C 
BRANCH  19  20
ATOM     20  C   UNL     1       4.955   2.992  12.244  0.00  0.00    +0.000 C 
BRANCH  20  21
ATOM     21  C   UNL     1       3.969   2.803  11.093  0.00  0.00    +0.000 C 
BRANCH  21  22
ATOM     22  C   UNL     1       3.621   4.143  10.450  0.00  0.00    +0.000 C 
BRANCH  22  24
ATOM     23  C   UNL     1       2.098   5.235   8.780  0.00  0.00    +0.000 C 
ATOM     24  C   UNL     1       2.793   3.946   9.184  0.00  0.00    +0.000 C 
ENDBRANCH  22  24
ENDBRANCH  21  22
ENDBRANCH  20  21
ENDBRANCH  19  20
ENDBRANCH  18  19
ENDBRANCH  17  18
ENDBRANCH  16  17
ENDBRANCH  15  16
ENDBRANCH  14  15
ENDBRANCH  13  14
ENDBRANCH   8  13
ENDBRANCH   1  11
BRANCH   1  25
ATOM     25  N   UNL     1       2.226   7.328  19.529  0.00  0.00    +0.000 N 
ATOM     26  C   UNL     1       1.609   8.098  20.491  0.00  0.00    +0.000 C 
ATOM     27  O   UNL     1       1.682   7.884  21.689  0.00  0.00    +0.000 OA
ATOM     28  H   UNL     1       2.336   7.701  18.600  0.00  0.00    +0.000 HD
BRANCH  26  29
ATOM     29  C   UNL     1       0.812   9.256  19.989  0.00  0.00    +0.000 A 
ATOM     30  C   UNL     1       0.763   9.566  18.626  0.00  0.00    +0.000 A 
ATOM     31  C   UNL     1      -0.023  10.631  18.178  0.00  0.00    +0.000 A 
ATOM     32  C   UNL     1      -0.759  11.382  19.092  0.00  0.00    +0.000 A 
ATOM     33 CL   UNL     1      -1.733  12.686  18.532  0.00  0.00    +0.000 Cl
ATOM     34  C   UNL     1      -0.720  11.080  20.453  0.00  0.00    +0.000 A 
ATOM     35  C   UNL     1       0.061  10.009  20.901  0.00  0.00    +0.000 A 
ENDBRANCH  26  29
ENDBRANCH   1  25
TORSDOF 15
ENDMDL
MODEL 2
REMARK VINA RESULT:      -7.4      4.195      7.188
REMARK  Name = 
REMARK  16 active torsions:
REMARK  status: ('A' for Active; 'I' for Inactive)
REMARK    1  A    between atoms: C_1  and  C_2
REMARK    2  A    between atoms: C_2  and  C_3
REMARK    3  A    between atoms: C_3  and  C_4
REMARK    4  A    between atoms: C_4  and  C_5
REMARK    5  A    between atoms: C_5  and  C_6
REMARK    6  A    between atoms: C_6  and  C_7
REMARK    7  A    between atoms: C_7  and  C_8
REMARK    8  A    between atoms: C_8  and  C_9
REMARK    9  A    between atoms: C_9  and  C_10
REMARK   10  A    between atoms: C_10  and  C_11
REMARK   11  A    between atoms: C_11  and  C_12
REMARK   12  A    between atoms: C_12  and  N_13
REMARK   13  A    between atoms: C_16  and  C_17
REMARK   14  A    between atoms: C_17  and  N_18
REMARK   15  A    between atoms: C_17  and  C_28
REMARK   16  A    between atoms: C_19  and  C_21
REMARK                            x       y       z     vdW  Elec       q    Type
REMARK                         _______ _______ _______ _____ _____    ______ ____
ROOT
ATOM      1  C   UNL     1       3.242   5.648  20.076  0.00  0.00    +0.000 C 
ENDROOT
BRANCH   1   2
ATOM      2  C   UNL     1       2.385   4.472  19.603  0.00  0.00    +0.000 A 
ATOM      3  C   UNL     1       1.825   3.568  20.528  0.00  0.00    +0.000 A 
ATOM      4  C   UNL     1       0.967   2.544  20.105  0.00  0.00    +0.000 A 
ATOM      5  C   UNL     1       0.647   2.408  18.755  0.00  0.00    +0.000 A 
ATOM      6  C   UNL     1       1.204   3.274  17.824  0.00  0.00    +0.000 A 
ATOM      7  C   UNL     1       2.067   4.288  18.241  0.00  0.00    +0.000 A 
ENDBRANCH   1   2
BRANCH   1  11
ATOM      8  N   UNL     1       6.270   5.801  18.268  0.00  0.00    +0.000 N 
ATOM      9  N   UNL     1       6.429   4.551  18.727  0.00  0.00    +0.000 NA
ATOM     10  N   UNL     1       5.340   4.332  19.458  0.00  0.00    +0.000 NA
ATOM     11  C   UNL     1       4.606   5.502  19.449  0.00  0.00    +0.000 A 
ATOM     12  N   UNL     1       5.181   6.460  18.702  0.00  0.00    +0.000 NA
BRANCH   8  13
ATOM     13  C   UNL     1       7.236   6.436  17.401  0.00  0.00    +0.000 C 
BRANCH  13  14
ATOM     14  C   UNL     1       8.179   7.312  18.212  0.00  0.00    +0.000 C 
BRANCH  14  15
ATOM     15  C   UNL     1       8.162   8.767  17.758  0.00  0.00    +0.000 C 
BRANCH  15  16
ATOM     16  C   UNL     1       8.730   9.646  18.871  0.00  0.00    +0.000 C 
BRANCH  16  17
ATOM     17  C   UNL     1       9.364  10.914  18.316  0.00  0.00    +0.000 C 
BRANCH  17  18
ATOM     18  C   UNL     1      10.736  11.139  18.946  0.00  0.00    +0.000 C 
BRANCH  18  19
ATOM     19  C   UNL     1      10.694  12.301  19.930  0.00  0.00    +0.000 C 
BRANCH  19  20
ATOM     20  C   UNL     1       9.494  13.202  19.657  0.00  0.00    +0.000 C 
BRANCH  20  21
ATOM     21  C   UNL     1       8.523  13.181  20.834  0.00  0.00    +0.000 C 
BRANCH  21  22
ATOM     22  C   UNL     1       9.268  12.977  22.150  0.00  0.00    +0.000 C 
BRANCH  22  24
ATOM     23  C   UNL     1       8.107  11.611  23.908  0.00  0.00    +0.000 C 
ATOM     24  C   UNL     1       8.308  13.004  23.336  0.00  0.00    +0.000 C 
ENDBRANCH  22  24
ENDBRANCH  21  22
ENDBRANCH  20  21
ENDBRANCH  19  20
ENDBRANCH  18  19
ENDBRANCH  17  18
ENDBRANCH  16  17
ENDBRANCH  15  16
ENDBRANCH  14  15
ENDBRANCH  13  14
ENDBRANCH   8  13
ENDBRANCH   1  11
BRANCH   1  25
ATOM     25  N   UNL     1       2.654   6.927  19.685  0.00  0.00    +0.000 N 
ATOM     26  C   UNL     1       1.692   7.559  20.443  0.00  0.00    +0.000 C 
ATOM     27  O   UNL     1       1.256   7.125  21.496  0.00  0.00    +0.000 OA
ATOM     28  H   UNL     1       3.144   7.452  18.979  0.00  0.00    +0.000 HD
BRANCH  26  29
ATOM     29  C   UNL     1       1.181   8.853  19.904  0.00  0.00    +0.000 A 
ATOM     30  C   UNL     1       0.158   9.556  20.552  0.00  0.00    +0.000 A 
ATOM     31  C   UNL     1      -0.274  10.785  20.048  0.00  0.00    +0.000 A 
ATOM     32  C   UNL     1       0.317  11.311  18.900  0.00  0.00    +0.000 A 
ATOM     33 CL   UNL     1      -0.214  12.832  18.292  0.00  0.00    +0.000 Cl
ATOM     34  C   UNL     1       1.338  10.621  18.249  0.00  0.00    +0.000 A 
ATOM     35  C   UNL     1       1.776   9.394  18.757  0.00  0.00    +0.000 A 
ENDBRANCH  26  29
ENDBRANCH   1  25
TORSDOF 15
ENDMDL
MODEL 3
REMARK VINA RESULT:      -7.3      4.713      7.382
REMARK  Name = 
REMARK  16 active torsions:
REMARK  status: ('A' for Active; 'I' for Inactive)
REMARK    1  A    between atoms: C_1  and  C_2
REMARK    2  A    between atoms: C_2  and  C_3
REMARK    3  A    between atoms: C_3  and  C_4
REMARK    4  A    between atoms: C_4  and  C_5
REMARK    5  A    between atoms: C_5  and  C_6
REMARK    6  A    between atoms: C_6  and  C_7
REMARK    7  A    between atoms: C_7  and  C_8
REMARK    8  A    between atoms: C_8  and  C_9
REMARK    9  A    between atoms: C_9  and  C_10
REMARK   10  A    between atoms: C_10  and  C_11
REMARK   11  A    between atoms: C_11  and  C_12
REMARK   12  A    between atoms: C_12  and  N_13
REMARK   13  A    between atoms: C_16  and  C_17
REMARK   14  A    between atoms: C_17  and  N_18
REMARK   15  A    between atoms: C_17  and  C_28
REMARK   16  A    between atoms: C_19  and  C_21
REMARK                            x       y       z     vdW  Elec       q    Type
REMARK                         _______ _______ _______ _____ _____    ______ ____
ROOT
ATOM      1  C   UNL     1       3.294   5.622  19.983  0.00  0.00    +0.000 C 
ENDROOT
BRANCH   1   2
ATOM      2  C   UNL     1       2.476   4.415  19.519  0.00  0.00    +0.000 A 
ATOM      3  C   UNL     1       1.489   3.849  20.351  0.00  0.00    +0.000 A 
ATOM      4  C   UNL     1       0.677   2.802  19.893  0.00  0.00    +0.000 A 
ATOM      5  C   UNL     1       0.829   2.308  18.599  0.00  0.00    +0.000 A 
ATOM      6  C   UNL     1       1.810   2.836  17.771  0.00  0.00    +0.000 A 
ATOM      7  C   UNL     1       2.627   3.871  18.226  0.00  0.00    +0.000 A 
ENDBRANCH   1   2
BRANCH   1  11
ATOM      8  N   UNL     1       6.327   5.862  18.192  0.00  0.00    +0.000 N 
ATOM      9  N   UNL     1       6.510   4.609  18.636  0.00  0.00    +0.000 NA
ATOM     10  N   UNL     1       5.422   4.358  19.359  0.00  0.00    +0.000 NA
ATOM     11  C   UNL     1       4.664   5.512  19.361  0.00  0.00    +0.000 A 
ATOM     12  N   UNL     1       5.223   6.491  18.629  0.00  0.00    +0.000 NA
BRANCH   8  13
ATOM     13  C   UNL     1       7.284   6.527  17.338  0.00  0.00    +0.000 C 
BRANCH  13  14
ATOM     14  C   UNL     1       8.181   7.440  18.160  0.00  0.00    +0.000 C 
BRANCH  14  15
ATOM     15  C   UNL     1       8.163   8.882  17.663  0.00  0.00    +0.000 C 
BRANCH  15  16
ATOM     16  C   UNL     1       8.825   9.780  18.705  0.00  0.00    +0.000 C 
BRANCH  16  17
ATOM     17  C   UNL     1       9.560  10.945  18.056  0.00  0.00    +0.000 C 
BRANCH  17  18
ATOM     18  C   UNL     1      10.350  11.723  19.105  0.00  0.00    +0.000 C 
BRANCH  18  19
ATOM     19  C   UNL     1       9.787  11.474  20.498  0.00  0.00    +0.000 C 
BRANCH  19  20
ATOM     20  C   UNL     1       8.893  12.629  20.938  0.00  0.00    +0.000 C 
BRANCH  20  21
ATOM     21  C   UNL     1       9.499  13.358  22.134  0.00  0.00    +0.000 C 
BRANCH  21  22
ATOM     22  C   UNL     1       9.533  14.864  21.894  0.00  0.00    +0.000 C 
BRANCH  22  24
ATOM     23  C   UNL     1      11.539  15.935  20.831  0.00  0.00    +0.000 C 
ATOM     24  C   UNL     1      10.236  15.196  20.581  0.00  0.00    +0.000 C 
ENDBRANCH  22  24
ENDBRANCH  21  22
ENDBRANCH  20  21
ENDBRANCH  19  20
ENDBRANCH  18  19
ENDBRANCH  17  18
ENDBRANCH  16  17
ENDBRANCH  15  16
ENDBRANCH  14  15
ENDBRANCH  13  14
ENDBRANCH   8  13
ENDBRANCH   1  11
BRANCH   1  25
ATOM     25  N   UNL     1       2.668   6.878  19.579  0.00  0.00    +0.000 N 
ATOM     26  C   UNL     1       1.793   7.563  20.395  0.00  0.00    +0.000 C 
ATOM     27  O   UNL     1       1.473   7.198  21.513  0.00  0.00    +0.000 OA
ATOM     28  H   UNL     1       3.079   7.355  18.793  0.00  0.00    +0.000 HD
BRANCH  26  29
ATOM     29  C   UNL     1       1.228   8.825  19.834  0.00  0.00    +0.000 A 
ATOM     30  C   UNL     1       1.560   9.258  18.545  0.00  0.00    +0.000 A 
ATOM     31  C   UNL     1       0.985  10.422  18.029  0.00  0.00    +0.000 A 
ATOM     32  C   UNL     1       0.078  11.149  18.798  0.00  0.00    +0.000 A 
ATOM     33 CL   UNL     1      -0.634  12.576  18.150  0.00  0.00    +0.000 Cl
ATOM     34  C   UNL     1      -0.262  10.724  20.082  0.00  0.00    +0.000 A 
ATOM     35  C   UNL     1       0.308   9.555  20.597  0.00  0.00    +0.000 A 
ENDBRANCH  26  29
ENDBRANCH   1  25
TORSDOF 15
ENDMDL
MODEL 4
REMARK VINA RESULT:      -7.3      4.005      7.147
REMARK  Name = 
REMARK  16 active torsions:
REMARK  status: ('A' for Active; 'I' for Inactive)
REMARK    1  A    between atoms: C_1  and  C_2
REMARK    2  A    between atoms: C_2  and  C_3
REMARK    3  A    between atoms: C_3  and  C_4
REMARK    4  A    between atoms: C_4  and  C_5
REMARK    5  A    between atoms: C_5  and  C_6
REMARK    6  A    between atoms: C_6  and  C_7
REMARK    7  A    between atoms: C_7  and  C_8
REMARK    8  A    between atoms: C_8  and  C_9
REMARK    9  A    between atoms: C_9  and  C_10
REMARK   10  A    between atoms: C_10  and  C_11
REMARK   11  A    between atoms: C_11  and  C_12
REMARK   12  A    between atoms: C_12  and  N_13
REMARK   13  A    between atoms: C_16  and  C_17
REMARK   14  A    between atoms: C_17  and  N_18
REMARK   15  A    between atoms: C_17  and  C_28
REMARK   16  A    between atoms: C_19  and  C_21
REMARK                            x       y       z     vdW  Elec       q    Type
REMARK                         _______ _______ _______ _____ _____    ______ ____
ROOT
ATOM      1  C   UNL     1       0.658  11.111  18.747  0.00  0.00    +0.000 C 
ENDROOT
BRANCH   1   2
ATOM      2  C   UNL     1       1.647  12.211  19.140  0.00  0.00    +0.000 A 
ATOM      3  C   UNL     1       2.420  12.869  18.163  0.00  0.00    +0.000 A 
ATOM      4  C   UNL     1       3.259  13.938  18.508  0.00  0.00    +0.000 A 
ATOM      5  C   UNL     1       3.335  14.372  19.830  0.00  0.00    +0.000 A 
ATOM      6  C   UNL     1       2.599  13.724  20.812  0.00  0.00    +0.000 A 
ATOM      7  C   UNL     1       1.771  12.654  20.473  0.00  0.00    +0.000 A 
ENDBRANCH   1   2
BRANCH   1  11
ATOM      8  N   UNL     1       2.128   7.922  19.116  0.00  0.00    +0.000 N 
ATOM      9  N   UNL     1       1.618   8.000  20.355  0.00  0.00    +0.000 NA
ATOM     10  N   UNL     1       1.016   9.185  20.385  0.00  0.00    +0.000 NA
ATOM     11  C   UNL     1       1.255   9.790  19.166  0.00  0.00    +0.000 A 
ATOM     12  N   UNL     1       1.968   9.007  18.339  0.00  0.00    +0.000 NA
BRANCH   8  13
ATOM     13  C   UNL     1       2.857   6.764  18.651  0.00  0.00    +0.000 C 
BRANCH  13  14
ATOM     14  C   UNL     1       3.774   7.146  17.498  0.00  0.00    +0.000 C 
BRANCH  14  15
ATOM     15  C   UNL     1       5.113   6.418  17.549  0.00  0.00    +0.000 C 
BRANCH  15  16
ATOM     16  C   UNL     1       5.091   5.407  18.694  0.00  0.00    +0.000 C 
BRANCH  16  17
ATOM     17  C   UNL     1       5.383   3.996  18.203  0.00  0.00    +0.000 C 
BRANCH  17  18
ATOM     18  C   UNL     1       4.370   3.586  17.138  0.00  0.00    +0.000 C 
BRANCH  18  19
ATOM     19  C   UNL     1       3.299   2.680  17.733  0.00  0.00    +0.000 C 
BRANCH  19  20
ATOM     20  C   UNL     1       1.946   3.383  17.762  0.00  0.00    +0.000 C 
BRANCH  20  21
ATOM     21  C   UNL     1       0.968   2.639  18.668  0.00  0.00    +0.000 C 
BRANCH  21  22
ATOM     22  C   UNL     1       1.608   2.326  20.017  0.00  0.00    +0.000 C 
BRANCH  22  24
ATOM     23  C   UNL     1       2.436   4.317  21.305  0.00  0.00    +0.000 C 
ATOM     24  C   UNL     1       1.257   3.392  21.052  0.00  0.00    +0.000 C 
ENDBRANCH  22  24
ENDBRANCH  21  22
ENDBRANCH  20  21
ENDBRANCH  19  20
ENDBRANCH  18  19
ENDBRANCH  17  18
ENDBRANCH  16  17
ENDBRANCH  15  16
ENDBRANCH  14  15
ENDBRANCH  13  14
ENDBRANCH   8  13
ENDBRANCH   1  11
BRANCH   1  25
ATOM     25  N   UNL     1      -0.634  11.298  19.401  0.00  0.00    +0.000 N 
ATOM     26  C   UNL     1      -1.560  12.218  18.956  0.00  0.00    +0.000 C 
ATOM     27  O   UNL     1      -1.395  12.941  17.988  0.00  0.00    +0.000 OA
ATOM     28  H   UNL     1      -0.931  10.571  20.031  0.00  0.00    +0.000 HD
BRANCH  26  29
ATOM     29  C   UNL     1      -2.828  12.299  19.738  0.00  0.00    +0.000 A 
ATOM     30  C   UNL     1      -2.836  12.750  21.062  0.00  0.00    +0.000 A 
ATOM     31  C   UNL     1      -4.043  12.855  21.759  0.00  0.00    +0.000 A 
ATOM     32  C   UNL     1      -5.239  12.511  21.130  0.00  0.00    +0.000 A 
ATOM     33 CL   UNL     1      -6.723  12.653  21.992  0.00  0.00    +0.000 Cl
ATOM     34  C   UNL     1      -5.242  12.064  19.810  0.00  0.00    +0.000 A 
ATOM     35  C   UNL     1      -4.035  11.965  19.110  0.00  0.00    +0.000 A 
ENDBRANCH  26  29
ENDBRANCH   1  25
TORSDOF 15
ENDMDL
MODEL 5
REMARK VINA RESULT:      -7.2      4.042      6.721
REMARK  Name = 
REMARK  16 active torsions:
REMARK  status: ('A' for Active; 'I' for Inactive)
REMARK    1  A    between atoms: C_1  and  C_2
REMARK    2  A    between atoms: C_2  and  C_3
REMARK    3  A    between atoms: C_3  and  C_4
REMARK    4  A    between atoms: C_4  and  C_5
REMARK    5  A    between atoms: C_5  and  C_6
REMARK    6  A    between atoms: C_6  and  C_7
REMARK    7  A    between atoms: C_7  and  C_8
REMARK    8  A    between atoms: C_8  and  C_9
REMARK    9  A    between atoms: C_9  and  C_10
REMARK   10  A    between atoms: C_10  and  C_11
REMARK   11  A    between atoms: C_11  and  C_12
REMARK   12  A    between atoms: C_12  and  N_13
REMARK   13  A    between atoms: C_16  and  C_17
REMARK   14  A    between atoms: C_17  and  N_18
REMARK   15  A    between atoms: C_17  and  C_28
REMARK   16  A    between atoms: C_19  and  C_21
REMARK                            x       y       z     vdW  Elec       q    Type
REMARK                         _______ _______ _______ _____ _____    ______ ____
ROOT
ATOM      1  C   UNL     1       2.874   6.435  19.558  0.00  0.00    +0.000 C 
ENDROOT
BRANCH   1   2
ATOM      2  C   UNL     1       2.139   5.093  19.529  0.00  0.00    +0.000 A 
ATOM      3  C   UNL     1       1.755   4.454  20.725  0.00  0.00    +0.000 A 
ATOM      4  C   UNL     1       1.003   3.271  20.700  0.00  0.00    +0.000 A 
ATOM      5  C   UNL     1       0.618   2.709  19.484  0.00  0.00    +0.000 A 
ATOM      6  C   UNL     1       1.005   3.310  18.294  0.00  0.00    +0.000 A 
ATOM      7  C   UNL     1       1.761   4.481  18.316  0.00  0.00    +0.000 A 
ENDBRANCH   1   2
BRANCH   1  11
ATOM      8  N   UNL     1       5.543   6.250  17.254  0.00  0.00    +0.000 N 
ATOM      9  N   UNL     1       4.770   7.071  16.528  0.00  0.00    +0.000 NA
ATOM     10  N   UNL     1       3.684   7.243  17.276  0.00  0.00    +0.000 NA
ATOM     11  C   UNL     1       3.839   6.453  18.399  0.00  0.00    +0.000 A 
ATOM     12  N   UNL     1       5.015   5.802  18.407  0.00  0.00    +0.000 NA
BRANCH   8  13
ATOM     13  C   UNL     1       6.847   5.818  16.808  0.00  0.00    +0.000 C 
BRANCH  13  14
ATOM     14  C   UNL     1       7.683   5.351  17.990  0.00  0.00    +0.000 C 
BRANCH  14  15
ATOM     15  C   UNL     1       8.179   6.508  18.851  0.00  0.00    +0.000 C 
BRANCH  15  16
ATOM     16  C   UNL     1       8.134   7.797  18.032  0.00  0.00    +0.000 C 
BRANCH  16  17
ATOM     17  C   UNL     1       8.688   8.979  18.815  0.00  0.00    +0.000 C 
BRANCH  17  18
ATOM     18  C   UNL     1       8.617  10.251  17.975  0.00  0.00    +0.000 C 
BRANCH  18  19
ATOM     19  C   UNL     1       9.871  11.095  18.167  0.00  0.00    +0.000 C 
BRANCH  19  20
ATOM     20  C   UNL     1       9.914  11.694  19.569  0.00  0.00    +0.000 C 
BRANCH  20  21
ATOM     21  C   UNL     1      10.988  12.774  19.663  0.00  0.00    +0.000 C 
BRANCH  21  22
ATOM     22  C   UNL     1      10.363  14.143  19.918  0.00  0.00    +0.000 C 
BRANCH  22  24
ATOM     23  C   UNL     1       9.073  14.342  22.062  0.00  0.00    +0.000 C 
ATOM     24  C   UNL     1      10.428  14.511  21.397  0.00  0.00    +0.000 C 
ENDBRANCH  22  24
ENDBRANCH  21  22
ENDBRANCH  20  21
ENDBRANCH  19  20
ENDBRANCH  18  19
ENDBRANCH  17  18
ENDBRANCH  16  17
ENDBRANCH  15  16
ENDBRANCH  14  15
ENDBRANCH  13  14
ENDBRANCH   8  13
ENDBRANCH   1  11
BRANCH   1  25
ATOM     25  N   UNL     1       1.943   7.554  19.443  0.00  0.00    +0.000 N 
ATOM     26  C   UNL     1       1.500   8.261  20.541  0.00  0.00    +0.000 C 
ATOM     27  O   UNL     1       1.844   8.032  21.687  0.00  0.00    +0.000 OA
ATOM     28  H   UNL     1       1.825   7.951  18.525  0.00  0.00    +0.000 HD
BRANCH  26  29
ATOM     29  C   UNL     1       0.541   9.370  20.260  0.00  0.00    +0.000 A 
ATOM     30  C   UNL     1       0.238   9.752  18.948  0.00  0.00    +0.000 A 
ATOM     31  C   UNL     1      -0.694  10.766  18.712  0.00  0.00    +0.000 A 
ATOM     32  C   UNL     1      -1.323  11.394  19.786  0.00  0.00    +0.000 A 
ATOM     33 CL   UNL     1      -2.478  12.635  19.487  0.00  0.00    +0.000 Cl
ATOM     34  C   UNL     1      -1.030  11.019  21.097  0.00  0.00    +0.000 A 
ATOM     35  C   UNL     1      -0.103   9.999  21.333  0.00  0.00    +0.000 A 
ENDBRANCH  26  29
ENDBRANCH   1  25
TORSDOF 15
ENDMDL
MODEL 6
REMARK VINA RESULT:      -7.2      3.774      6.716
REMARK  Name = 
REMARK  16 active torsions:
REMARK  status: ('A' for Active; 'I' for Inactive)
REMARK    1  A    between atoms: C_1  and  C_2
REMARK    2  A    between atoms: C_2  and  C_3
REMARK    3  A    between atoms: C_3  and  C_4
REMARK    4  A    between atoms: C_4  and  C_5
REMARK    5  A    between atoms: C_5  and  C_6
REMARK    6  A    between atoms: C_6  and  C_7
REMARK    7  A    between atoms: C_7  and  C_8
REMARK    8  A    between atoms: C_8  and  C_9
REMARK    9  A    between atoms: C_9  and  C_10
REMARK   10  A    between atoms: C_10  and  C_11
REMARK   11  A    between atoms: C_11  and  C_12
REMARK   12  A    between atoms: C_12  and  N_13
REMARK   13  A    between atoms: C_16  and  C_17
REMARK   14  A    between atoms: C_17  and  N_18
REMARK   15  A    between atoms: C_17  and  C_28
REMARK   16  A    between atoms: C_19  and  C_21
REMARK                            x       y       z     vdW  Elec       q    Type
REMARK                         _______ _______ _______ _____ _____    ______ ____
ROOT
ATOM      1  C   UNL     1       0.262  10.961  20.290  0.00  0.00    +0.000 C 
ENDROOT
BRANCH   1   2
ATOM      2  C   UNL     1      -0.839  10.952  19.227  0.00  0.00    +0.000 A 
ATOM      3  C   UNL     1      -0.758  10.096  18.110  0.00  0.00    +0.000 A 
ATOM      4  C   UNL     1      -1.807  10.021  17.183  0.00  0.00    +0.000 A 
ATOM      5  C   UNL     1      -2.955  10.791  17.358  0.00  0.00    +0.000 A 
ATOM      6  C   UNL     1      -3.047  11.657  18.439  0.00  0.00    +0.000 A 
ATOM      7  C   UNL     1      -2.000  11.742  19.357  0.00  0.00    +0.000 A 
ENDBRANCH   1   2
BRANCH   1  11
ATOM      8  N   UNL     1       1.873   7.876  19.695  0.00  0.00    +0.000 N 
ATOM      9  N   UNL     1       1.303   7.529  20.859  0.00  0.00    +0.000 NA
ATOM     10  N   UNL     1       0.641   8.620  21.235  0.00  0.00    +0.000 NA
ATOM     11  C   UNL     1       0.905   9.596  20.294  0.00  0.00    +0.000 A 
ATOM     12  N   UNL     1       1.695   9.149  19.303  0.00  0.00    +0.000 NA
BRANCH   8  13
ATOM     13  C   UNL     1       2.681   6.958  18.925  0.00  0.00    +0.000 C 
BRANCH  13  14
ATOM     14  C   UNL     1       2.989   5.712  19.743  0.00  0.00    +0.000 C 
BRANCH  14  15
ATOM     15  C   UNL     1       4.245   4.993  19.264  0.00  0.00    +0.000 C 
BRANCH  15  16
ATOM     16  C   UNL     1       3.947   3.501  19.125  0.00  0.00    +0.000 C 
BRANCH  16  17
ATOM     17  C   UNL     1       3.963   3.059  17.668  0.00  0.00    +0.000 C 
BRANCH  17  18
ATOM     18  C   UNL     1       4.359   4.224  16.765  0.00  0.00    +0.000 C 
BRANCH  18  19
ATOM     19  C   UNL     1       5.633   3.900  15.995  0.00  0.00    +0.000 C 
BRANCH  19  20
ATOM     20  C   UNL     1       6.691   4.976  16.217  0.00  0.00    +0.000 C 
BRANCH  20  21
ATOM     21  C   UNL     1       7.491   4.695  17.486  0.00  0.00    +0.000 C 
BRANCH  21  22
ATOM     22  C   UNL     1       7.654   5.963  18.319  0.00  0.00    +0.000 C 
BRANCH  22  24
ATOM     23  C   UNL     1       8.171   8.404  18.039  0.00  0.00    +0.000 C 
ATOM     24  C   UNL     1       7.420   7.211  17.472  0.00  0.00    +0.000 C 
ENDBRANCH  22  24
ENDBRANCH  21  22
ENDBRANCH  20  21
ENDBRANCH  19  20
ENDBRANCH  18  19
ENDBRANCH  17  18
ENDBRANCH  16  17
ENDBRANCH  15  16
ENDBRANCH  14  15
ENDBRANCH  13  14
ENDBRANCH   8  13
ENDBRANCH   1  11
BRANCH   1  25
ATOM     25  N   UNL     1       1.270  11.979  20.005  0.00  0.00    +0.000 N 
ATOM     26  C   UNL     1       1.271  13.210  20.626  0.00  0.00    +0.000 C 
ATOM     27  O   UNL     1       0.455  13.554  21.464  0.00  0.00    +0.000 OA
ATOM     28  H   UNL     1       2.101  11.670  19.528  0.00  0.00    +0.000 HD
BRANCH  26  29
ATOM     29  C   UNL     1       2.359  14.146  20.219  0.00  0.00    +0.000 A 
ATOM     30  C   UNL     1       3.518  14.290  20.989  0.00  0.00    +0.000 A 
ATOM     31  C   UNL     1       4.540  15.144  20.564  0.00  0.00    +0.000 A 
ATOM     32  C   UNL     1       4.402  15.849  19.370  0.00  0.00    +0.000 A 
ATOM     33 CL   UNL     1       5.669  16.891  18.848  0.00  0.00    +0.000 Cl
ATOM     34  C   UNL     1       3.252  15.711  18.594  0.00  0.00    +0.000 A 
ATOM     35  C   UNL     1       2.233  14.851  19.015  0.00  0.00    +0.000 A 
ENDBRANCH  26  29
ENDBRANCH   1  25
TORSDOF 15
ENDMDL
MODEL 7
REMARK VINA RESULT:      -7.2      4.610      6.786
REMARK  Name = 
REMARK  16 active torsions:
REMARK  status: ('A' for Active; 'I' for Inactive)
REMARK    1  A    between atoms: C_1  and  C_2
REMARK    2  A    between atoms: C_2  and  C_3
REMARK    3  A    between atoms: C_3  and  C_4
REMARK    4  A    between atoms: C_4  and  C_5
REMARK    5  A    between atoms: C_5  and  C_6
REMARK    6  A    between atoms: C_6  and  C_7
REMARK    7  A    between atoms: C_7  and  C_8
REMARK    8  A    between atoms: C_8  and  C_9
REMARK    9  A    between atoms: C_9  and  C_10
REMARK   10  A    between atoms: C_10  and  C_11
REMARK   11  A    between atoms: C_11  and  C_12
REMARK   12  A    between atoms: C_12  and  N_13
REMARK   13  A    between atoms: C_16  and  C_17
REMARK   14  A    between atoms: C_17  and  N_18
REMARK   15  A    between atoms: C_17  and  C_28
REMARK   16  A    between atoms: C_19  and  C_21
REMARK                            x       y       z     vdW  Elec       q    Type
REMARK                         _______ _______ _______ _____ _____    ______ ____
ROOT
ATOM      1  C   UNL     1       3.043   6.033  19.446  0.00  0.00    +0.000 C 
ENDROOT
BRANCH   1   2
ATOM      2  C   UNL     1       2.241   4.743  19.258  0.00  0.00    +0.000 A 
ATOM      3  C   UNL     1       2.522   3.868  18.190  0.00  0.00    +0.000 A 
ATOM      4  C   UNL     1       1.851   2.643  18.068  0.00  0.00    +0.000 A 
ATOM      5  C   UNL     1       0.895   2.268  19.010  0.00  0.00    +0.000 A 
ATOM      6  C   UNL     1       0.588   3.125  20.058  0.00  0.00    +0.000 A 
ATOM      7  C   UNL     1       1.246   4.348  20.177  0.00  0.00    +0.000 A 
ENDBRANCH   1   2
BRANCH   1  11
ATOM      8  N   UNL     1       5.936   6.304  17.442  0.00  0.00    +0.000 N 
ATOM      9  N   UNL     1       5.058   6.216  16.431  0.00  0.00    +0.000 NA
ATOM     10  N   UNL     1       3.879   6.098  17.035  0.00  0.00    +0.000 NA
ATOM     11  C   UNL     1       4.123   6.058  18.394  0.00  0.00    +0.000 A 
ATOM     12  N   UNL     1       5.431   6.180  18.681  0.00  0.00    +0.000 NA
BRANCH   8  13
ATOM     13  C   UNL     1       7.355   6.466  17.222  0.00  0.00    +0.000 C 
BRANCH  13  14
ATOM     14  C   UNL     1       7.729   7.940  17.247  0.00  0.00    +0.000 C 
BRANCH  14  15
ATOM     15  C   UNL     1       8.495   8.329  18.507  0.00  0.00    +0.000 C 
BRANCH  15  16
ATOM     16  C   UNL     1       8.790   9.827  18.473  0.00  0.00    +0.000 C 
BRANCH  16  17
ATOM     17  C   UNL     1       9.380  10.313  19.789  0.00  0.00    +0.000 C 
BRANCH  17  18
ATOM     18  C   UNL     1      10.412  11.408  19.534  0.00  0.00    +0.000 C 
BRANCH  18  19
ATOM     19  C   UNL     1      10.151  12.096  18.200  0.00  0.00    +0.000 C 
BRANCH  19  20
ATOM     20  C   UNL     1      11.448  12.279  17.420  0.00  0.00    +0.000 C 
BRANCH  20  21
ATOM     21  C   UNL     1      11.896  13.738  17.449  0.00  0.00    +0.000 C 
BRANCH  21  22
ATOM     22  C   UNL     1      10.897  14.598  18.218  0.00  0.00    +0.000 C 
BRANCH  22  24
ATOM     23  C   UNL     1       8.998  16.187  17.802  0.00  0.00    +0.000 C 
ATOM     24  C   UNL     1      10.383  15.748  17.357  0.00  0.00    +0.000 C 
ENDBRANCH  22  24
ENDBRANCH  21  22
ENDBRANCH  20  21
ENDBRANCH  19  20
ENDBRANCH  18  19
ENDBRANCH  17  18
ENDBRANCH  16  17
ENDBRANCH  15  16
ENDBRANCH  14  15
ENDBRANCH  13  14
ENDBRANCH   8  13
ENDBRANCH   1  11
BRANCH   1  25
ATOM     25  N   UNL     1       2.193   7.213  19.309  0.00  0.00    +0.000 N 
ATOM     26  C   UNL     1       1.691   7.892  20.399  0.00  0.00    +0.000 C 
ATOM     27  O   UNL     1       1.913   7.585  21.558  0.00  0.00    +0.000 OA
ATOM     28  H   UNL     1       2.185   7.660  18.407  0.00  0.00    +0.000 HD
BRANCH  26  29
ATOM     29  C   UNL     1       0.829   9.071  20.094  0.00  0.00    +0.000 A 
ATOM     30  C   UNL     1       0.697   9.554  18.787  0.00  0.00    +0.000 A 
ATOM     31  C   UNL     1      -0.149  10.634  18.523  0.00  0.00    +0.000 A 
ATOM     32  C   UNL     1      -0.863  11.228  19.563  0.00  0.00    +0.000 A 
ATOM     33 CL   UNL     1      -1.911  12.551  19.227  0.00  0.00    +0.000 Cl
ATOM     34  C   UNL     1      -0.741  10.752  20.868  0.00  0.00    +0.000 A 
ATOM     35  C   UNL     1       0.100   9.666  21.132  0.00  0.00    +0.000 A 
ENDBRANCH  26  29
ENDBRANCH   1  25
TORSDOF 15
ENDMDL
MODEL 8
REMARK VINA RESULT:      -7.1      4.847      7.518
REMARK  Name = 
REMARK  16 active torsions:
REMARK  status: ('A' for Active; 'I' for Inactive)
REMARK    1  A    between atoms: C_1  and  C_2
REMARK    2  A    between atoms: C_2  and  C_3
REMARK    3  A    between atoms: C_3  and  C_4
REMARK    4  A    between atoms: C_4  and  C_5
REMARK    5  A    between atoms: C_5  and  C_6
REMARK    6  A    between atoms: C_6  and  C_7
REMARK    7  A    between atoms: C_7  and  C_8
REMARK    8  A    between atoms: C_8  and  C_9
REMARK    9  A    between atoms: C_9  and  C_10
REMARK   10  A    between atoms: C_10  and  C_11
REMARK   11  A    between atoms: C_11  and  C_12
REMARK   12  A    between atoms: C_12  and  N_13
REMARK   13  A    between atoms: C_16  and  C_17
REMARK   14  A    between atoms: C_17  and  N_18
REMARK   15  A    between atoms: C_17  and  C_28
REMARK   16  A    between atoms: C_19  and  C_21
REMARK                            x       y       z     vdW  Elec       q    Type
REMARK                         _______ _______ _______ _____ _____    ______ ____
ROOT
ATOM      1  C   UNL     1       3.227   5.594  20.006  0.00  0.00    +0.000 C 
ENDROOT
BRANCH   1   2
ATOM      2  C   UNL     1       2.347   4.445  19.510  0.00  0.00    +0.000 A 
ATOM      3  C   UNL     1       2.446   3.979  18.184  0.00  0.00    +0.000 A 
ATOM      4  C   UNL     1       1.706   2.868  17.753  0.00  0.00    +0.000 A 
ATOM      5  C   UNL     1       0.862   2.200  18.639  0.00  0.00    +0.000 A 
ATOM      6  C   UNL     1       0.733   2.655  19.944  0.00  0.00    +0.000 A 
ATOM      7  C   UNL     1       1.460   3.766  20.372  0.00  0.00    +0.000 A 
ENDBRANCH   1   2
BRANCH   1  11
ATOM      8  N   UNL     1       6.258   5.700  18.199  0.00  0.00    +0.000 N 
ATOM      9  N   UNL     1       6.405   4.453  18.672  0.00  0.00    +0.000 NA
ATOM     10  N   UNL     1       5.313   4.252  19.404  0.00  0.00    +0.000 NA
ATOM     11  C   UNL     1       4.590   5.428  19.382  0.00  0.00    +0.000 A 
ATOM     12  N   UNL     1       5.175   6.373  18.624  0.00  0.00    +0.000 NA
BRANCH   8  13
ATOM     13  C   UNL     1       7.231   6.316  17.326  0.00  0.00    +0.000 C 
BRANCH  13  14
ATOM     14  C   UNL     1       7.126   7.831  17.405  0.00  0.00    +0.000 C 
BRANCH  14  15
ATOM     15  C   UNL     1       8.487   8.506  17.542  0.00  0.00    +0.000 C 
BRANCH  15  16
ATOM     16  C   UNL     1       8.303   9.880  18.183  0.00  0.00    +0.000 C 
BRANCH  16  17
ATOM     17  C   UNL     1       9.213  10.063  19.390  0.00  0.00    +0.000 C 
BRANCH  17  18
ATOM     18  C   UNL     1      10.196  11.203  19.144  0.00  0.00    +0.000 C 
BRANCH  18  19
ATOM     19  C   UNL     1      10.649  11.820  20.462  0.00  0.00    +0.000 C 
BRANCH  19  20
ATOM     20  C   UNL     1       9.556  12.706  21.051  0.00  0.00    +0.000 C 
BRANCH  20  21
ATOM     21  C   UNL     1      10.127  14.052  21.487  0.00  0.00    +0.000 C 
BRANCH  21  22
ATOM     22  C   UNL     1      10.309  14.980  20.289  0.00  0.00    +0.000 C 
BRANCH  22  24
ATOM     23  C   UNL     1      12.206  16.623  20.337  0.00  0.00    +0.000 C 
ATOM     24  C   UNL     1      11.788  15.206  19.987  0.00  0.00    +0.000 C 
ENDBRANCH  22  24
ENDBRANCH  21  22
ENDBRANCH  20  21
ENDBRANCH  19  20
ENDBRANCH  18  19
ENDBRANCH  17  18
ENDBRANCH  16  17
ENDBRANCH  15  16
ENDBRANCH  14  15
ENDBRANCH  13  14
ENDBRANCH   8  13
ENDBRANCH   1  11
BRANCH   1  25
ATOM     25  N   UNL     1       2.668   6.891  19.633  0.00  0.00    +0.000 N 
ATOM     26  C   UNL     1       1.729   7.539  20.406  0.00  0.00    +0.000 C 
ATOM     27  O   UNL     1       1.291   7.106  21.458  0.00  0.00    +0.000 OA
ATOM     28  H   UNL     1       3.165   7.411  18.928  0.00  0.00    +0.000 HD
BRANCH  26  29
ATOM     29  C   UNL     1       1.246   8.852  19.885  0.00  0.00    +0.000 A 
ATOM     30  C   UNL     1       0.360   9.644  20.624  0.00  0.00    +0.000 A 
ATOM     31  C   UNL     1      -0.044  10.887  20.130  0.00  0.00    +0.000 A 
ATOM     32  C   UNL     1       0.438  11.337  18.903  0.00  0.00    +0.000 A 
ATOM     33 CL   UNL     1      -0.057  12.875  18.307  0.00  0.00    +0.000 Cl
ATOM     34  C   UNL     1       1.323  10.557  18.160  0.00  0.00    +0.000 A 
ATOM     35  C   UNL     1       1.734   9.316  18.656  0.00  0.00    +0.000 A 
ENDBRANCH  26  29
ENDBRANCH   1  25
TORSDOF 15
ENDMDL
MODEL 9
REMARK VINA RESULT:      -7.1      4.863      7.128
REMARK  Name = 
REMARK  16 active torsions:
REMARK  status: ('A' for Active; 'I' for Inactive)
REMARK    1  A    between atoms: C_1  and  C_2
REMARK    2  A    between atoms: C_2  and  C_3
REMARK    3  A    between atoms: C_3  and  C_4
REMARK    4  A    between atoms: C_4  and  C_5
REMARK    5  A    between atoms: C_5  and  C_6
REMARK    6  A    between atoms: C_6  and  C_7
REMARK    7  A    between atoms: C_7  and  C_8
REMARK    8  A    between atoms: C_8  and  C_9
REMARK    9  A    between atoms: C_9  and  C_10
REMARK   10  A    between atoms: C_10  and  C_11
REMARK   11  A    between atoms: C_11  and  C_12
REMARK   12  A    between atoms: C_12  and  N_13
REMARK   13  A    between atoms: C_16  and  C_17
REMARK   14  A    between atoms: C_17  and  N_18
REMARK   15  A    between atoms: C_17  and  C_28
REMARK   16  A    between atoms: C_19  and  C_21
REMARK                            x       y       z     vdW  Elec       q    Type
REMARK                         _______ _______ _______ _____ _____    ______ ____
ROOT
ATOM      1  C   UNL     1       3.796   5.046  19.830  0.00  0.00    +0.000 C 
ENDROOT
BRANCH   1   2
ATOM      2  C   UNL     1       2.848   3.906  19.449  0.00  0.00    +0.000 A 
ATOM      3  C   UNL     1       1.495   3.931  19.840  0.00  0.00    +0.000 A 
ATOM      4  C   UNL     1       0.605   2.934  19.416  0.00  0.00    +0.000 A 
ATOM      5  C   UNL     1       1.047   1.902  18.590  0.00  0.00    +0.000 A 
ATOM      6  C   UNL     1       2.381   1.847  18.211  0.00  0.00    +0.000 A 
ATOM      7  C   UNL     1       3.272   2.831  18.640  0.00  0.00    +0.000 A 
ENDBRANCH   1   2
BRANCH   1  11
ATOM      8  N   UNL     1       6.103   6.147  17.396  0.00  0.00    +0.000 N 
ATOM      9  N   UNL     1       5.215   5.623  16.538  0.00  0.00    +0.000 NA
ATOM     10  N   UNL     1       4.252   5.143  17.321  0.00  0.00    +0.000 NA
ATOM     11  C   UNL     1       4.651   5.352  18.626  0.00  0.00    +0.000 A 
ATOM     12  N   UNL     1       5.834   5.986  18.703  0.00  0.00    +0.000 NA
BRANCH   8  13
ATOM     13  C   UNL     1       7.313   6.801  16.953  0.00  0.00    +0.000 C 
BRANCH  13  14
ATOM     14  C   UNL     1       7.949   7.570  18.102  0.00  0.00    +0.000 C 
BRANCH  14  15
ATOM     15  C   UNL     1       8.104   9.056  17.798  0.00  0.00    +0.000 C 
BRANCH  15  16
ATOM     16  C   UNL     1       8.961   9.703  18.884  0.00  0.00    +0.000 C 
BRANCH  16  17
ATOM     17  C   UNL     1       9.238  11.170  18.581  0.00  0.00    +0.000 C 
BRANCH  17  18
ATOM     18  C   UNL     1      10.527  11.310  17.777  0.00  0.00    +0.000 C 
BRANCH  18  19
ATOM     19  C   UNL     1      11.725  11.475  18.704  0.00  0.00    +0.000 C 
BRANCH  19  20
ATOM     20  C   UNL     1      11.388  12.399  19.870  0.00  0.00    +0.000 C 
BRANCH  20  21
ATOM     21  C   UNL     1      11.884  13.817  19.598  0.00  0.00    +0.000 C 
BRANCH  21  22
ATOM     22  C   UNL     1      10.723  14.740  19.239  0.00  0.00    +0.000 C 
BRANCH  22  24
ATOM     23  C   UNL     1      11.621  16.017  17.273  0.00  0.00    +0.000 C 
ATOM     24  C   UNL     1      10.637  14.955  17.731  0.00  0.00    +0.000 C 
ENDBRANCH  22  24
ENDBRANCH  21  22
ENDBRANCH  20  21
ENDBRANCH  19  20
ENDBRANCH  18  19
ENDBRANCH  17  18
ENDBRANCH  16  17
ENDBRANCH  15  16
ENDBRANCH  14  15
ENDBRANCH  13  14
ENDBRANCH   8  13
ENDBRANCH   1  11
BRANCH   1  25
ATOM     25  N   UNL     1       3.057   6.242  20.228  0.00  0.00    +0.000 N 
ATOM     26  C   UNL     1       2.415   7.051  19.315  0.00  0.00    +0.000 C 
ATOM     27  O   UNL     1       2.395   6.844  18.114  0.00  0.00    +0.000 OA
ATOM     28  H   UNL     1       2.823   6.324  21.204  0.00  0.00    +0.000 HD
BRANCH  26  29
ATOM     29  C   UNL     1       1.714   8.242  19.876  0.00  0.00    +0.000 A 
ATOM     30  C   UNL     1       1.447   8.348  21.246  0.00  0.00    +0.000 A 
ATOM     31  C   UNL     1       0.825   9.492  21.751  0.00  0.00    +0.000 A 
ATOM     32  C   UNL     1       0.473  10.529  20.889  0.00  0.00    +0.000 A 
ATOM     33 CL   UNL     1      -0.283  11.940  21.522  0.00  0.00    +0.000 Cl
ATOM     34  C   UNL     1       0.737  10.435  19.523  0.00  0.00    +0.000 A 
ATOM     35  C   UNL     1       1.366   9.293  19.018  0.00  0.00    +0.000 A 
ENDBRANCH  26  29
ENDBRANCH   1  25
TORSDOF 15
ENDMDL
