MODEL 1
REMARK VINA RESULT:      -8.2      0.000      0.000
REMARK  Name = 
REMARK  8 active torsions:
REMARK  status: ('A' for Active; 'I' for Inactive)
REMARK    1  A    between atoms: C_1  and  C_2
REMARK    2  A    between atoms: C_2  and  C_4
REMARK    3  A    between atoms: C_6  and  C_7
REMARK    4  A    between atoms: C_7  and  N_8
REMARK    5  A    between atoms: N_15  and  C_16
REMARK    6  A    between atoms: C_16  and  C_17
REMARK    7  A    between atoms: C_18  and  C_19
REMARK    8  A    between atoms: C_22  and  C_23
REMARK                            x       y       z     vdW  Elec       q    Type
REMARK                         _______ _______ _______ _____ _____    ______ ____
ROOT
ATOM      1  N   UNL     1       2.665   5.155  19.526  0.00  0.00    +0.000 NA
ATOM      2  C   UNL     1       1.736   5.023  18.392  0.00  0.00    +0.000 C 
ATOM      3  C   UNL     1       1.760   3.650  17.708  0.00  0.00    +0.000 C 
ATOM      4  C   UNL     1       1.489   2.548  18.736  0.00  0.00    +0.000 C 
ATOM      5  C   UNL     1       2.344   2.702  19.983  0.00  0.00    +0.000 C 
ATOM      6  C   UNL     1       3.321   3.881  19.893  0.00  0.00    +0.000 C 
ATOM      7  C   UNL     1       4.505   3.535  18.938  0.00  0.00    +0.000 C 
ATOM      8  N   UNL     1       4.340   3.723  17.493  0.00  0.00    +0.000 NA
ATOM      9  C   UNL     1       3.047   3.393  16.903  0.00  0.00    +0.000 C 
ENDROOT
BRANCH   1  10
ATOM     10  C   UNL     1       2.037   5.809  20.679  0.00  0.00    +0.000 C 
BRANCH  10  13
ATOM     11  C   UNL     1       0.917   9.418  20.829  0.00  0.00    +0.000 A 
ATOM     12  C   UNL     1       0.949   8.103  21.260  0.00  0.00    +0.000 A 
ATOM     13  C   UNL     1       1.651   7.231  20.361  0.00  0.00    +0.000 A 
ATOM     14  C   UNL     1       1.988   7.909  19.203  0.00  0.00    +0.000 A 
ATOM     15  S   UNL     1       1.545   9.556  19.246  0.00  0.00    +0.000 S 
BRANCH  11  17
ATOM     16  C   UNL     1      -0.631  10.351  22.641  0.00  0.00    +0.000 C 
ATOM     17  C   UNL     1       0.434  10.566  21.588  0.00  0.00    +0.000 C 
ATOM     18  O   UNL     1       0.839  11.712  21.370  0.00  0.00    +0.000 OA
ENDBRANCH  11  17
ENDBRANCH  10  13
ENDBRANCH   1  10
BRANCH   8  19
ATOM     19  C   UNL     1       5.441   3.116  16.724  0.00  0.00    +0.000 C 
BRANCH  19  20
ATOM     20  C   UNL     1       6.285   4.161  16.081  0.00  0.00    +0.000 A 
ATOM     21  C   UNL     1       6.466   4.458  14.698  0.00  0.00    +0.000 A 
ATOM     22  C   UNL     1       5.893   3.787  13.507  0.00  0.00    +0.000 C 
ATOM     23  N   UNL     1       7.267   5.516  14.524  0.00  0.00    +0.000 NA
ATOM     24  O   UNL     1       7.644   5.915  15.790  0.00  0.00    +0.000 OA
ATOM     25  C   UNL     1       7.064   5.104  16.711  0.00  0.00    +0.000 A 
ATOM     26  C   UNL     1       7.374   5.384  18.125  0.00  0.00    +0.000 C 
ENDBRANCH  19  20
ENDBRANCH   8  19
TORSDOF 5
ENDMDL
MODEL 2
REMARK VINA RESULT:      -8.2      1.328      1.687
REMARK  Name = 
REMARK  8 active torsions:
REMARK  status: ('A' for Active; 'I' for Inactive)
REMARK    1  A    between atoms: C_1  and  C_2
REMARK    2  A    between atoms: C_2  and  C_4
REMARK    3  A    between atoms: C_6  and  C_7
REMARK    4  A    between atoms: C_7  and  N_8
REMARK    5  A    between atoms: N_15  and  C_16
REMARK    6  A    between atoms: C_16  and  C_17
REMARK    7  A    between atoms: C_18  and  C_19
REMARK    8  A    between atoms: C_22  and  C_23
REMARK                            x       y       z     vdW  Elec       q    Type
REMARK                         _______ _______ _______ _____ _____    ______ ____
ROOT
ATOM      1  N   UNL     1       2.460   5.084  19.701  0.00  0.00    +0.000 NA
ATOM      2  C   UNL     1       1.652   5.004  18.473  0.00  0.00    +0.000 C 
ATOM      3  C   UNL     1       1.772   3.672  17.720  0.00  0.00    +0.000 C 
ATOM      4  C   UNL     1       1.419   2.511  18.653  0.00  0.00    +0.000 C 
ATOM      5  C   UNL     1       2.142   2.604  19.987  0.00  0.00    +0.000 C 
ATOM      6  C   UNL     1       3.099   3.800  20.062  0.00  0.00    +0.000 C 
ATOM      7  C   UNL     1       4.380   3.525  19.215  0.00  0.00    +0.000 C 
ATOM      8  N   UNL     1       4.358   3.793  17.773  0.00  0.00    +0.000 NA
ATOM      9  C   UNL     1       3.137   3.479  17.037  0.00  0.00    +0.000 C 
ENDROOT
BRANCH   1  10
ATOM     10  C   UNL     1       1.706   5.663  20.819  0.00  0.00    +0.000 C 
BRANCH  10  13
ATOM     11  C   UNL     1       1.524   9.198  19.486  0.00  0.00    +0.000 A 
ATOM     12  C   UNL     1       2.019   7.906  19.531  0.00  0.00    +0.000 A 
ATOM     13  C   UNL     1       1.520   7.149  20.645  0.00  0.00    +0.000 A 
ATOM     14  C   UNL     1       0.783   7.964  21.486  0.00  0.00    +0.000 A 
ATOM     15  S   UNL     1       0.632   9.558  20.898  0.00  0.00    +0.000 S 
BRANCH  11  17
ATOM     16  C   UNL     1       1.359  11.608  18.645  0.00  0.00    +0.000 C 
ATOM     17  C   UNL     1       1.701  10.155  18.401  0.00  0.00    +0.000 C 
ATOM     18  O   UNL     1       2.084   9.810  17.279  0.00  0.00    +0.000 OA
ENDBRANCH  11  17
ENDBRANCH  10  13
ENDBRANCH   1  10
BRANCH   8  19
ATOM     19  C   UNL     1       5.542   3.245  17.087  0.00  0.00    +0.000 C 
BRANCH  19  20
ATOM     20  C   UNL     1       6.334   4.327  16.439  0.00  0.00    +0.000 A 
ATOM     21  C   UNL     1       6.530   4.604  15.054  0.00  0.00    +0.000 A 
ATOM     22  C   UNL     1       6.030   3.870  13.866  0.00  0.00    +0.000 C 
ATOM     23  N   UNL     1       7.265   5.707  14.872  0.00  0.00    +0.000 NA
ATOM     24  O   UNL     1       7.584   6.159  16.136  0.00  0.00    +0.000 OA
ATOM     25  C   UNL     1       7.034   5.333  17.063  0.00  0.00    +0.000 A 
ATOM     26  C   UNL     1       7.291   5.665  18.477  0.00  0.00    +0.000 C 
ENDBRANCH  19  20
ENDBRANCH   8  19
TORSDOF 5
ENDMDL
MODEL 3
REMARK VINA RESULT:      -8.2      1.389      2.303
REMARK  Name = 
REMARK  8 active torsions:
REMARK  status: ('A' for Active; 'I' for Inactive)
REMARK    1  A    between atoms: C_1  and  C_2
REMARK    2  A    between atoms: C_2  and  C_4
REMARK    3  A    between atoms: C_6  and  C_7
REMARK    4  A    between atoms: C_7  and  N_8
REMARK    5  A    between atoms: N_15  and  C_16
REMARK    6  A    between atoms: C_16  and  C_17
REMARK    7  A    between atoms: C_18  and  C_19
REMARK    8  A    between atoms: C_22  and  C_23
REMARK                            x       y       z     vdW  Elec       q    Type
REMARK                         _______ _______ _______ _____ _____    ______ ____
ROOT
ATOM      1  N   UNL     1       2.339   5.152  19.710  0.00  0.00    +0.000 NA
ATOM      2  C   UNL     1       1.561   5.021  18.467  0.00  0.00    +0.000 C 
ATOM      3  C   UNL     1       1.740   3.679  17.744  0.00  0.00    +0.000 C 
ATOM      4  C   UNL     1       1.407   2.525  18.693  0.00  0.00    +0.000 C 
ATOM      5  C   UNL     1       2.096   2.669  20.040  0.00  0.00    +0.000 C 
ATOM      6  C   UNL     1       3.012   3.897  20.110  0.00  0.00    +0.000 C 
ATOM      7  C   UNL     1       4.319   3.648  19.297  0.00  0.00    +0.000 C 
ATOM      8  N   UNL     1       4.320   3.886  17.849  0.00  0.00    +0.000 NA
ATOM      9  C   UNL     1       3.126   3.518  17.094  0.00  0.00    +0.000 C 
ENDROOT
BRANCH   1  10
ATOM     10  C   UNL     1       1.542   5.727  20.799  0.00  0.00    +0.000 C 
BRANCH  10  13
ATOM     11  C   UNL     1       1.445   9.291  19.539  0.00  0.00    +0.000 A 
ATOM     12  C   UNL     1       1.868   7.973  19.522  0.00  0.00    +0.000 A 
ATOM     13  C   UNL     1       1.427   7.224  20.665  0.00  0.00    +0.000 A 
ATOM     14  C   UNL     1       0.814   8.062  21.579  0.00  0.00    +0.000 A 
ATOM     15  S   UNL     1       0.703   9.674  21.030  0.00  0.00    +0.000 S 
BRANCH  11  17
ATOM     16  C   UNL     1       0.971  11.633  18.624  0.00  0.00    +0.000 C 
ATOM     17  C   UNL     1       1.581  10.258  18.456  0.00  0.00    +0.000 C 
ATOM     18  O   UNL     1       2.142   9.977  17.394  0.00  0.00    +0.000 OA
ENDBRANCH  11  17
ENDBRANCH  10  13
ENDBRANCH   1  10
BRANCH   8  19
ATOM     19  C   UNL     1       5.536   3.365  17.200  0.00  0.00    +0.000 C 
BRANCH  19  20
ATOM     20  C   UNL     1       6.303   4.460  16.543  0.00  0.00    +0.000 A 
ATOM     21  C   UNL     1       7.040   5.530  17.131  0.00  0.00    +0.000 A 
ATOM     22  C   UNL     1       7.219   5.879  18.561  0.00  0.00    +0.000 C 
ATOM     23  N   UNL     1       7.644   6.280  16.200  0.00  0.00    +0.000 NA
ATOM     24  O   UNL     1       7.293   5.726  14.986  0.00  0.00    +0.000 OA
ATOM     25  C   UNL     1       6.493   4.649  15.194  0.00  0.00    +0.000 A 
ATOM     26  C   UNL     1       6.012   3.943  13.992  0.00  0.00    +0.000 C 
ENDBRANCH  19  20
ENDBRANCH   8  19
TORSDOF 5
ENDMDL
MODEL 4
REMARK VINA RESULT:      -8.2      0.516      1.623
REMARK  Name = 
REMARK  8 active torsions:
REMARK  status: ('A' for Active; 'I' for Inactive)
REMARK    1  A    between atoms: C_1  and  C_2
REMARK    2  A    between atoms: C_2  and  C_4
REMARK    3  A    between atoms: C_6  and  C_7
REMARK    4  A    between atoms: C_7  and  N_8
REMARK    5  A    between atoms: N_15  and  C_16
REMARK    6  A    between atoms: C_16  and  C_17
REMARK    7  A    between atoms: C_18  and  C_19
REMARK    8  A    between atoms: C_22  and  C_23
REMARK                            x       y       z     vdW  Elec       q    Type
REMARK                         _______ _______ _______ _____ _____    ______ ____
ROOT
ATOM      1  N   UNL     1       2.424   5.267  19.696  0.00  0.00    +0.000 NA
ATOM      2  C   UNL     1       1.575   5.084  18.507  0.00  0.00    +0.000 C 
ATOM      3  C   UNL     1       1.713   3.712  17.833  0.00  0.00    +0.000 C 
ATOM      4  C   UNL     1       1.436   2.601  18.848  0.00  0.00    +0.000 C 
ATOM      5  C   UNL     1       2.202   2.801  20.145  0.00  0.00    +0.000 C 
ATOM      6  C   UNL     1       3.120   4.030  20.110  0.00  0.00    +0.000 C 
ATOM      7  C   UNL     1       4.378   3.743  19.233  0.00  0.00    +0.000 C 
ATOM      8  N   UNL     1       4.295   3.919  17.779  0.00  0.00    +0.000 NA
ATOM      9  C   UNL     1       3.059   3.521  17.111  0.00  0.00    +0.000 C 
ENDROOT
BRANCH   1  10
ATOM     10  C   UNL     1       1.692   5.890  20.804  0.00  0.00    +0.000 C 
BRANCH  10  13
ATOM     11  C   UNL     1       0.726   9.540  21.022  0.00  0.00    +0.000 A 
ATOM     12  C   UNL     1       0.674   8.211  21.405  0.00  0.00    +0.000 A 
ATOM     13  C   UNL     1       1.389   7.338  20.517  0.00  0.00    +0.000 A 
ATOM     14  C   UNL     1       1.824   8.039  19.405  0.00  0.00    +0.000 A 
ATOM     15  S   UNL     1       1.453   9.703  19.484  0.00  0.00    +0.000 S 
BRANCH  11  17
ATOM     16  C   UNL     1      -0.786  10.457  22.871  0.00  0.00    +0.000 C 
ATOM     17  C   UNL     1       0.251  10.683  21.792  0.00  0.00    +0.000 C 
ATOM     18  O   UNL     1       0.639  11.832  21.565  0.00  0.00    +0.000 OA
ENDBRANCH  11  17
ENDBRANCH  10  13
ENDBRANCH   1  10
BRANCH   8  19
ATOM     19  C   UNL     1       5.471   3.368  17.083  0.00  0.00    +0.000 C 
BRANCH  19  20
ATOM     20  C   UNL     1       6.251   4.446  16.415  0.00  0.00    +0.000 A 
ATOM     21  C   UNL     1       7.013   5.505  16.991  0.00  0.00    +0.000 A 
ATOM     22  C   UNL     1       7.214   5.854  18.418  0.00  0.00    +0.000 C 
ATOM     23  N   UNL     1       7.621   6.240  16.051  0.00  0.00    +0.000 NA
ATOM     24  O   UNL     1       7.248   5.689  14.843  0.00  0.00    +0.000 OA
ATOM     25  C   UNL     1       6.430   4.628  15.063  0.00  0.00    +0.000 A 
ATOM     26  C   UNL     1       5.923   3.926  13.869  0.00  0.00    +0.000 C 
ENDBRANCH  19  20
ENDBRANCH   8  19
TORSDOF 5
ENDMDL
MODEL 5
REMARK VINA RESULT:      -8.1      0.842      1.033
REMARK  Name = 
REMARK  8 active torsions:
REMARK  status: ('A' for Active; 'I' for Inactive)
REMARK    1  A    between atoms: C_1  and  C_2
REMARK    2  A    between atoms: C_2  and  C_4
REMARK    3  A    between atoms: C_6  and  C_7
REMARK    4  A    between atoms: C_7  and  N_8
REMARK    5  A    between atoms: N_15  and  C_16
REMARK    6  A    between atoms: C_16  and  C_17
REMARK    7  A    between atoms: C_18  and  C_19
REMARK    8  A    between atoms: C_22  and  C_23
REMARK                            x       y       z     vdW  Elec       q    Type
REMARK                         _______ _______ _______ _____ _____    ______ ____
ROOT
ATOM      1  N   UNL     1       2.664   5.678  19.250  0.00  0.00    +0.000 NA
ATOM      2  C   UNL     1       1.720   5.231  18.212  0.00  0.00    +0.000 C 
ATOM      3  C   UNL     1       1.849   3.749  17.833  0.00  0.00    +0.000 C 
ATOM      4  C   UNL     1       1.703   2.876  19.082  0.00  0.00    +0.000 C 
ATOM      5  C   UNL     1       2.574   3.362  20.229  0.00  0.00    +0.000 C 
ATOM      6  C   UNL     1       3.439   4.570  19.848  0.00  0.00    +0.000 C 
ATOM      7  C   UNL     1       4.624   4.125  18.937  0.00  0.00    +0.000 C 
ATOM      8  N   UNL     1       4.405   3.984  17.493  0.00  0.00    +0.000 NA
ATOM      9  C   UNL     1       3.131   3.431  17.044  0.00  0.00    +0.000 C 
ENDROOT
BRANCH   1  10
ATOM     10  C   UNL     1       2.010   6.511  20.265  0.00  0.00    +0.000 C 
BRANCH  10  13
ATOM     11  C   UNL     1       1.118  10.164  19.866  0.00  0.00    +0.000 A 
ATOM     12  C   UNL     1       1.072   8.930  20.491  0.00  0.00    +0.000 A 
ATOM     13  C   UNL     1       1.711   7.890  19.735  0.00  0.00    +0.000 A 
ATOM     14  C   UNL     1       2.079   8.363  18.488  0.00  0.00    +0.000 A 
ATOM     15  S   UNL     1       1.741  10.022  18.281  0.00  0.00    +0.000 S 
BRANCH  11  17
ATOM     16  C   UNL     1       0.634  12.656  19.542  0.00  0.00    +0.000 C 
ATOM     17  C   UNL     1       0.714  11.442  20.441  0.00  0.00    +0.000 C 
ATOM     18  O   UNL     1       0.473  11.571  21.645  0.00  0.00    +0.000 OA
ENDBRANCH  11  17
ENDBRANCH  10  13
ENDBRANCH   1  10
BRANCH   8  19
ATOM     19  C   UNL     1       5.535   3.317  16.821  0.00  0.00    +0.000 C 
BRANCH  19  20
ATOM     20  C   UNL     1       6.371   4.300  16.077  0.00  0.00    +0.000 A 
ATOM     21  C   UNL     1       6.549   4.460  14.672  0.00  0.00    +0.000 A 
ATOM     22  C   UNL     1       5.980   3.670  13.553  0.00  0.00    +0.000 C 
ATOM     23  N   UNL     1       7.342   5.502  14.392  0.00  0.00    +0.000 NA
ATOM     24  O   UNL     1       7.716   6.026  15.612  0.00  0.00    +0.000 OA
ATOM     25  C   UNL     1       7.143   5.306  16.610  0.00  0.00    +0.000 A 
ATOM     26  C   UNL     1       7.453   5.727  17.989  0.00  0.00    +0.000 C 
ENDBRANCH  19  20
ENDBRANCH   8  19
TORSDOF 5
ENDMDL
MODEL 6
REMARK VINA RESULT:      -8.0      0.904      1.830
REMARK  Name = 
REMARK  8 active torsions:
REMARK  status: ('A' for Active; 'I' for Inactive)
REMARK    1  A    between atoms: C_1  and  C_2
REMARK    2  A    between atoms: C_2  and  C_4
REMARK    3  A    between atoms: C_6  and  C_7
REMARK    4  A    between atoms: C_7  and  N_8
REMARK    5  A    between atoms: N_15  and  C_16
REMARK    6  A    between atoms: C_16  and  C_17
REMARK    7  A    between atoms: C_18  and  C_19
REMARK    8  A    between atoms: C_22  and  C_23
REMARK                            x       y       z     vdW  Elec       q    Type
REMARK                         _______ _______ _______ _____ _____    ______ ____
ROOT
ATOM      1  N   UNL     1       2.582   5.748  19.307  0.00  0.00    +0.000 NA
ATOM      2  C   UNL     1       1.554   5.326  18.340  0.00  0.00    +0.000 C 
ATOM      3  C   UNL     1       1.606   3.838  17.968  0.00  0.00    +0.000 C 
ATOM      4  C   UNL     1       1.517   2.980  19.233  0.00  0.00    +0.000 C 
ATOM      5  C   UNL     1       2.480   3.444  20.313  0.00  0.00    +0.000 C 
ATOM      6  C   UNL     1       3.358   4.618  19.861  0.00  0.00    +0.000 C 
ATOM      7  C   UNL     1       4.462   4.125  18.876  0.00  0.00    +0.000 C 
ATOM      8  N   UNL     1       4.140   3.981  17.452  0.00  0.00    +0.000 NA
ATOM      9  C   UNL     1       2.819   3.469  17.097  0.00  0.00    +0.000 C 
ENDROOT
BRANCH   1  10
ATOM     10  C   UNL     1       2.028   6.611  20.356  0.00  0.00    +0.000 C 
BRANCH  10  13
ATOM     11  C   UNL     1       0.908  10.197  19.919  0.00  0.00    +0.000 A 
ATOM     12  C   UNL     1       0.918   8.960  20.541  0.00  0.00    +0.000 A 
ATOM     13  C   UNL     1       1.660   7.968  19.814  0.00  0.00    +0.000 A 
ATOM     14  C   UNL     1       2.053   8.470  18.586  0.00  0.00    +0.000 A 
ATOM     15  S   UNL     1       1.612  10.103  18.365  0.00  0.00    +0.000 S 
BRANCH  11  17
ATOM     16  C   UNL     1      -0.927  11.979  19.967  0.00  0.00    +0.000 C 
ATOM     17  C   UNL     1       0.392  11.441  20.476  0.00  0.00    +0.000 C 
ATOM     18  O   UNL     1       1.017  12.089  21.321  0.00  0.00    +0.000 OA
ENDBRANCH  11  17
ENDBRANCH  10  13
ENDBRANCH   1  10
BRANCH   8  19
ATOM     19  C   UNL     1       5.197   3.270  16.711  0.00  0.00    +0.000 C 
BRANCH  19  20
ATOM     20  C   UNL     1       6.047   4.223  15.945  0.00  0.00    +0.000 A 
ATOM     21  C   UNL     1       7.024   5.149  16.417  0.00  0.00    +0.000 A 
ATOM     22  C   UNL     1       7.443   5.452  17.807  0.00  0.00    +0.000 C 
ATOM     23  N   UNL     1       7.620   5.792  15.405  0.00  0.00    +0.000 NA
ATOM     24  O   UNL     1       7.027   5.315  14.255  0.00  0.00    +0.000 OA
ATOM     25  C   UNL     1       6.089   4.388  14.580  0.00  0.00    +0.000 A 
ATOM     26  C   UNL     1       5.344   3.782  13.461  0.00  0.00    +0.000 C 
ENDBRANCH  19  20
ENDBRANCH   8  19
TORSDOF 5
ENDMDL
MODEL 7
REMARK VINA RESULT:      -7.6      3.542      8.069
REMARK  Name = 
REMARK  8 active torsions:
REMARK  status: ('A' for Active; 'I' for Inactive)
REMARK    1  A    between atoms: C_1  and  C_2
REMARK    2  A    between atoms: C_2  and  C_4
REMARK    3  A    between atoms: C_6  and  C_7
REMARK    4  A    between atoms: C_7  and  N_8
REMARK    5  A    between atoms: N_15  and  C_16
REMARK    6  A    between atoms: C_16  and  C_17
REMARK    7  A    between atoms: C_18  and  C_19
REMARK    8  A    between atoms: C_22  and  C_23
REMARK                            x       y       z     vdW  Elec       q    Type
REMARK                         _______ _______ _______ _____ _____    ______ ____
ROOT
ATOM      1  N   UNL     1       5.651   5.085  16.349  0.00  0.00    +0.000 NA
ATOM      2  C   UNL     1       5.373   6.496  16.664  0.00  0.00    +0.000 C 
ATOM      3  C   UNL     1       4.680   6.721  18.015  0.00  0.00    +0.000 C 
ATOM      4  C   UNL     1       5.506   6.089  19.138  0.00  0.00    +0.000 C 
ATOM      5  C   UNL     1       5.921   4.663  18.815  0.00  0.00    +0.000 C 
ATOM      6  C   UNL     1       5.362   4.170  17.474  0.00  0.00    +0.000 C 
ATOM      7  C   UNL     1       3.838   3.860  17.601  0.00  0.00    +0.000 C 
ATOM      8  N   UNL     1       2.870   4.953  17.461  0.00  0.00    +0.000 NA
ATOM      9  C   UNL     1       3.214   6.250  18.034  0.00  0.00    +0.000 C 
ENDROOT
BRANCH   1  10
ATOM     10  C   UNL     1       7.004   4.898  15.814  0.00  0.00    +0.000 C 
BRANCH  10  13
ATOM     11  C   UNL     1       6.121   3.458  12.430  0.00  0.00    +0.000 A 
ATOM     12  C   UNL     1       6.144   3.467  13.814  0.00  0.00    +0.000 A 
ATOM     13  C   UNL     1       6.970   4.509  14.358  0.00  0.00    +0.000 A 
ATOM     14  C   UNL     1       7.661   5.149  13.345  0.00  0.00    +0.000 A 
ATOM     15  S   UNL     1       7.257   4.565  11.794  0.00  0.00    +0.000 S 
BRANCH  11  17
ATOM     16  C   UNL     1       3.930   3.212  11.132  0.00  0.00    +0.000 C 
ATOM     17  C   UNL     1       5.257   2.643  11.584  0.00  0.00    +0.000 C 
ATOM     18  O   UNL     1       5.557   1.491  11.259  0.00  0.00    +0.000 OA
ENDBRANCH  11  17
ENDBRANCH  10  13
ENDBRANCH   1  10
BRANCH   8  19
ATOM     19  C   UNL     1       1.510   4.546  17.858  0.00  0.00    +0.000 C 
BRANCH  19  20
ATOM     20  C   UNL     1       1.504   3.961  19.228  0.00  0.00    +0.000 A 
ATOM     21  C   UNL     1       1.476   2.593  19.630  0.00  0.00    +0.000 A 
ATOM     22  C   UNL     1       1.407   1.367  18.799  0.00  0.00    +0.000 C 
ATOM     23  N   UNL     1       1.540   2.471  20.962  0.00  0.00    +0.000 NA
ATOM     24  O   UNL     1       1.587   3.759  21.455  0.00  0.00    +0.000 OA
ATOM     25  C   UNL     1       1.560   4.640  20.422  0.00  0.00    +0.000 A 
ATOM     26  C   UNL     1       1.589   6.072  20.776  0.00  0.00    +0.000 C 
ENDBRANCH  19  20
ENDBRANCH   8  19
TORSDOF 5
ENDMDL
MODEL 8
REMARK VINA RESULT:      -7.5      1.551      1.874
REMARK  Name = 
REMARK  8 active torsions:
REMARK  status: ('A' for Active; 'I' for Inactive)
REMARK    1  A    between atoms: C_1  and  C_2
REMARK    2  A    between atoms: C_2  and  C_4
REMARK    3  A    between atoms: C_6  and  C_7
REMARK    4  A    between atoms: C_7  and  N_8
REMARK    5  A    between atoms: N_15  and  C_16
REMARK    6  A    between atoms: C_16  and  C_17
REMARK    7  A    between atoms: C_18  and  C_19
REMARK    8  A    between atoms: C_22  and  C_23
REMARK                            x       y       z     vdW  Elec       q    Type
REMARK                         _______ _______ _______ _____ _____    ______ ____
ROOT
ATOM      1  N   UNL     1       2.290   5.965  19.967  0.00  0.00    +0.000 NA
ATOM      2  C   UNL     1       1.889   6.081  18.555  0.00  0.00    +0.000 C 
ATOM      3  C   UNL     1       2.132   4.816  17.720  0.00  0.00    +0.000 C 
ATOM      4  C   UNL     1       1.429   3.620  18.366  0.00  0.00    +0.000 C 
ATOM      5  C   UNL     1       1.718   3.517  19.855  0.00  0.00    +0.000 C 
ATOM      6  C   UNL     1       2.693   4.594  20.346  0.00  0.00    +0.000 C 
ATOM      7  C   UNL     1       4.146   4.262  19.887  0.00  0.00    +0.000 C 
ATOM      8  N   UNL     1       4.582   4.657  18.543  0.00  0.00    +0.000 NA
ATOM      9  C   UNL     1       3.622   4.541  17.450  0.00  0.00    +0.000 C 
ENDROOT
BRANCH   1  10
ATOM     10  C   UNL     1       1.278   6.518  20.873  0.00  0.00    +0.000 C 
BRANCH  10  13
ATOM     11  C   UNL     1       0.957  10.150  19.869  0.00  0.00    +0.000 A 
ATOM     12  C   UNL     1       1.178   8.805  19.630  0.00  0.00    +0.000 A 
ATOM     13  C   UNL     1       1.269   8.025  20.832  0.00  0.00    +0.000 A 
ATOM     14  C   UNL     1       1.265   8.853  21.941  0.00  0.00    +0.000 A 
ATOM     15  S   UNL     1       1.071  10.500  21.538  0.00  0.00    +0.000 S 
BRANCH  11  17
ATOM     16  C   UNL     1       1.650  12.280  18.631  0.00  0.00    +0.000 C 
ATOM     17  C   UNL     1       0.652  11.169  18.870  0.00  0.00    +0.000 C 
ATOM     18  O   UNL     1      -0.411  11.173  18.244  0.00  0.00    +0.000 OA
ENDBRANCH  11  17
ENDBRANCH  10  13
ENDBRANCH   1  10
BRANCH   8  19
ATOM     19  C   UNL     1       5.875   4.051  18.176  0.00  0.00    +0.000 C 
BRANCH  19  20
ATOM     20  C   UNL     1       6.572   4.863  17.141  0.00  0.00    +0.000 A 
ATOM     21  C   UNL     1       6.604   4.695  15.725  0.00  0.00    +0.000 A 
ATOM     22  C   UNL     1       5.982   3.642  14.886  0.00  0.00    +0.000 C 
ATOM     23  N   UNL     1       7.299   5.672  15.129  0.00  0.00    +0.000 NA
ATOM     24  O   UNL     1       7.754   6.483  16.148  0.00  0.00    +0.000 OA
ATOM     25  C   UNL     1       7.326   5.996  17.341  0.00  0.00    +0.000 A 
ATOM     26  C   UNL     1       7.738   6.742  18.544  0.00  0.00    +0.000 C 
ENDBRANCH  19  20
ENDBRANCH   8  19
TORSDOF 5
ENDMDL
MODEL 9
REMARK VINA RESULT:      -7.5      4.140      8.256
REMARK  Name = 
REMARK  8 active torsions:
REMARK  status: ('A' for Active; 'I' for Inactive)
REMARK    1  A    between atoms: C_1  and  C_2
REMARK    2  A    between atoms: C_2  and  C_4
REMARK    3  A    between atoms: C_6  and  C_7
REMARK    4  A    between atoms: C_7  and  N_8
REMARK    5  A    between atoms: N_15  and  C_16
REMARK    6  A    between atoms: C_16  and  C_17
REMARK    7  A    between atoms: C_18  and  C_19
REMARK    8  A    between atoms: C_22  and  C_23
REMARK                            x       y       z     vdW  Elec       q    Type
REMARK                         _______ _______ _______ _____ _____    ______ ____
ROOT
ATOM      1  N   UNL     1       6.024   4.944  15.469  0.00  0.00    +0.000 NA
ATOM      2  C   UNL     1       5.102   6.091  15.518  0.00  0.00    +0.000 C 
ATOM      3  C   UNL     1       5.098   6.846  16.855  0.00  0.00    +0.000 C 
ATOM      4  C   UNL     1       6.517   7.302  17.202  0.00  0.00    +0.000 C 
ATOM      5  C   UNL     1       7.534   6.181  17.057  0.00  0.00    +0.000 C 
ATOM      6  C   UNL     1       6.893   4.845  16.662  0.00  0.00    +0.000 C 
ATOM      7  C   UNL     1       6.148   4.217  17.880  0.00  0.00    +0.000 C 
ATOM      8  N   UNL     1       4.776   4.643  18.180  0.00  0.00    +0.000 NA
ATOM      9  C   UNL     1       4.443   6.053  18.000  0.00  0.00    +0.000 C 
ENDROOT
BRANCH   1  10
ATOM     10  C   UNL     1       6.789   4.907  14.219  0.00  0.00    +0.000 C 
BRANCH  10  13
ATOM     11  C   UNL     1       4.596   3.206  11.650  0.00  0.00    +0.000 A 
ATOM     12  C   UNL     1       4.842   4.062  12.709  0.00  0.00    +0.000 A 
ATOM     13  C   UNL     1       6.176   3.951  13.228  0.00  0.00    +0.000 A 
ATOM     14  C   UNL     1       6.836   2.893  12.627  0.00  0.00    +0.000 A 
ATOM     15  S   UNL     1       5.901   2.126  11.423  0.00  0.00    +0.000 S 
BRANCH  11  17
ATOM     16  C   UNL     1       3.198   4.326   9.823  0.00  0.00    +0.000 C 
ATOM     17  C   UNL     1       3.408   3.194  10.804  0.00  0.00    +0.000 C 
ATOM     18  O   UNL     1       2.552   2.310  10.891  0.00  0.00    +0.000 OA
ENDBRANCH  11  17
ENDBRANCH  10  13
ENDBRANCH   1  10
BRANCH   8  19
ATOM     19  C   UNL     1       4.316   4.155  19.492  0.00  0.00    +0.000 C 
BRANCH  19  20
ATOM     20  C   UNL     1       3.002   3.464  19.375  0.00  0.00    +0.000 A 
ATOM     21  C   UNL     1       1.713   3.882  19.818  0.00  0.00    +0.000 A 
ATOM     22  C   UNL     1       1.321   5.109  20.553  0.00  0.00    +0.000 C 
ATOM     23  N   UNL     1       0.765   3.003  19.473  0.00  0.00    +0.000 NA
ATOM     24  O   UNL     1       1.422   1.980  18.819  0.00  0.00    +0.000 OA
ATOM     25  C   UNL     1       2.750   2.255  18.769  0.00  0.00    +0.000 A 
ATOM     26  C   UNL     1       3.607   1.251  18.111  0.00  0.00    +0.000 C 
ENDBRANCH  19  20
ENDBRANCH   8  19
TORSDOF 5
ENDMDL
