MODEL 1
REMARK VINA RESULT:      -8.3      0.000      0.000
REMARK  Name = 
REMARK  4 active torsions:
REMARK  status: ('A' for Active; 'I' for Inactive)
REMARK    1  A    between atoms: C_2  and  C_3
REMARK    2  A    between atoms: C_5  and  C_6
REMARK    3  A    between atoms: C_14  and  O_15
REMARK    4  A    between atoms: O_15  and  C_16
REMARK                            x       y       z     vdW  Elec       q    Type
REMARK                         _______ _______ _______ _____ _____    ______ ____
ROOT
ATOM      1  O   UNL     1       7.005   4.140  18.389  0.00  0.00    +0.000 OA
ATOM      2  C   UNL     1       6.242   4.729  17.624  0.00  0.00    +0.000 C 
ATOM      3  N   UNL     1       5.103   5.388  18.091  0.00  0.00    +0.000 N 
ATOM      4  C   UNL     1       4.754   5.250  19.496  0.00  0.00    +0.000 C 
ATOM      5  C   UNL     1       3.250   5.061  19.633  0.00  0.00    +0.000 C 
ATOM      6  C   UNL     1       2.468   6.208  18.974  0.00  0.00    +0.000 C 
ATOM      7  C   UNL     1       2.927   6.375  17.516  0.00  0.00    +0.000 C 
ATOM      8  C   UNL     1       4.444   6.512  17.423  0.00  0.00    +0.000 C 
ENDROOT
BRANCH   2   9
ATOM      9  C   UNL     1       6.507   4.745  16.213  0.00  0.00    +0.000 A 
ATOM     10  C   UNL     1       5.949   4.082  15.137  0.00  0.00    +0.000 A 
ATOM     11  C   UNL     1       6.614   4.594  14.011  0.00  0.00    +0.000 A 
ATOM     12  N   UNL     1       7.598   5.434  14.340  0.00  0.00    +0.000 NA
ATOM     13  N   UNL     1       7.545   5.465  15.682  0.00  0.00    +0.000 N 
ATOM     14  H   UNL     1       8.220   6.027  16.191  0.00  0.00    +0.000 HD
BRANCH  11  15
ATOM     15  C   UNL     1       6.227   4.233  12.589  0.00  0.00    +0.000 C 
ATOM     16  C   UNL     1       6.485   2.821  12.104  0.00  0.00    +0.000 C 
ATOM     17  C   UNL     1       5.087   3.263  12.373  0.00  0.00    +0.000 C 
ENDBRANCH  11  15
ENDBRANCH   2   9
BRANCH   6  18
ATOM     18  O   UNL     1       2.706   7.460  19.639  0.00  0.00    +0.000 OA
BRANCH  18  19
ATOM     19  C   UNL     1       1.733   8.417  19.564  0.00  0.00    +0.000 A 
ATOM     20  C   UNL     1       1.422   9.169  18.431  0.00  0.00    +0.000 A 
ATOM     21  C   UNL     1       0.368  10.079  18.451  0.00  0.00    +0.000 A 
ATOM     22  C   UNL     1      -0.370  10.261  19.618  0.00  0.00    +0.000 A 
ATOM     23 CL   UNL     1      -1.663  11.397  19.640  0.00  0.00    +0.000 Cl
ATOM     24  C   UNL     1      -0.068   9.524  20.759  0.00  0.00    +0.000 A 
ATOM     25  C   UNL     1       0.979   8.595  20.728  0.00  0.00    +0.000 A 
ENDBRANCH  18  19
ENDBRANCH   6  18
TORSDOF 4
ENDMDL
MODEL 2
REMARK VINA RESULT:      -8.3      0.314      1.038
REMARK  Name = 
REMARK  4 active torsions:
REMARK  status: ('A' for Active; 'I' for Inactive)
REMARK    1  A    between atoms: C_2  and  C_3
REMARK    2  A    between atoms: C_5  and  C_6
REMARK    3  A    between atoms: C_14  and  O_15
REMARK    4  A    between atoms: O_15  and  C_16
REMARK                            x       y       z     vdW  Elec       q    Type
REMARK                         _______ _______ _______ _____ _____    ______ ____
ROOT
ATOM      1  O   UNL     1       7.234   4.243  18.287  0.00  0.00    +0.000 OA
ATOM      2  C   UNL     1       6.392   4.753  17.549  0.00  0.00    +0.000 C 
ATOM      3  N   UNL     1       5.248   5.369  18.060  0.00  0.00    +0.000 N 
ATOM      4  C   UNL     1       4.996   5.278  19.490  0.00  0.00    +0.000 C 
ATOM      5  C   UNL     1       3.517   5.013  19.732  0.00  0.00    +0.000 C 
ATOM      6  C   UNL     1       2.630   6.083  19.076  0.00  0.00    +0.000 C 
ATOM      7  C   UNL     1       2.987   6.207  17.586  0.00  0.00    +0.000 C 
ATOM      8  C   UNL     1       4.484   6.424  17.389  0.00  0.00    +0.000 C 
ENDROOT
BRANCH   2   9
ATOM      9  C   UNL     1       6.567   4.718  16.124  0.00  0.00    +0.000 A 
ATOM     10  C   UNL     1       5.940   4.020  15.109  0.00  0.00    +0.000 A 
ATOM     11  C   UNL     1       6.534   4.489  13.926  0.00  0.00    +0.000 A 
ATOM     12  N   UNL     1       7.539   5.336  14.162  0.00  0.00    +0.000 NA
ATOM     13  N   UNL     1       7.571   5.414  15.503  0.00  0.00    +0.000 N 
ATOM     14  H   UNL     1       8.278   5.991  15.949  0.00  0.00    +0.000 HD
BRANCH  11  15
ATOM     15  C   UNL     1       6.057   4.080  12.545  0.00  0.00    +0.000 C 
ATOM     16  C   UNL     1       7.016   3.336  11.638  0.00  0.00    +0.000 C 
ATOM     17  C   UNL     1       5.868   2.609  12.251  0.00  0.00    +0.000 C 
ENDBRANCH  11  15
ENDBRANCH   2   9
BRANCH   6  18
ATOM     18  O   UNL     1       2.836   7.376  19.669  0.00  0.00    +0.000 OA
BRANCH  18  19
ATOM     19  C   UNL     1       1.780   8.242  19.694  0.00  0.00    +0.000 A 
ATOM     20  C   UNL     1       0.929   8.451  20.780  0.00  0.00    +0.000 A 
ATOM     21  C   UNL     1      -0.084   9.405  20.714  0.00  0.00    +0.000 A 
ATOM     22  C   UNL     1      -0.268  10.142  19.547  0.00  0.00    +0.000 A 
ATOM     23 CL   UNL     1      -1.530  11.309  19.468  0.00  0.00    +0.000 Cl
ATOM     24  C   UNL     1       0.566   9.941  18.453  0.00  0.00    +0.000 A 
ATOM     25  C   UNL     1       1.597   8.997  18.531  0.00  0.00    +0.000 A 
ENDBRANCH  18  19
ENDBRANCH   6  18
TORSDOF 4
ENDMDL
MODEL 3
REMARK VINA RESULT:      -7.7      1.257      1.786
REMARK  Name = 
REMARK  4 active torsions:
REMARK  status: ('A' for Active; 'I' for Inactive)
REMARK    1  A    between atoms: C_2  and  C_3
REMARK    2  A    between atoms: C_5  and  C_6
REMARK    3  A    between atoms: C_14  and  O_15
REMARK    4  A    between atoms: O_15  and  C_16
REMARK                            x       y       z     vdW  Elec       q    Type
REMARK                         _______ _______ _______ _____ _____    ______ ____
ROOT
ATOM      1  O   UNL     1       5.287   3.273  19.293  0.00  0.00    +0.000 OA
ATOM      2  C   UNL     1       5.020   4.185  18.512  0.00  0.00    +0.000 C 
ATOM      3  N   UNL     1       4.096   5.180  18.836  0.00  0.00    +0.000 N 
ATOM      4  C   UNL     1       3.340   5.043  20.071  0.00  0.00    +0.000 C 
ATOM      5  C   UNL     1       1.890   5.435  19.829  0.00  0.00    +0.000 C 
ATOM      6  C   UNL     1       1.769   6.855  19.255  0.00  0.00    +0.000 C 
ATOM      7  C   UNL     1       2.648   6.981  18.000  0.00  0.00    +0.000 C 
ATOM      8  C   UNL     1       4.080   6.534  18.277  0.00  0.00    +0.000 C 
ENDROOT
BRANCH   2   9
ATOM      9  C   UNL     1       5.660   4.243  17.228  0.00  0.00    +0.000 A 
ATOM     10  C   UNL     1       5.191   4.163  15.931  0.00  0.00    +0.000 A 
ATOM     11  C   UNL     1       6.322   4.361  15.123  0.00  0.00    +0.000 A 
ATOM     12  N   UNL     1       7.447   4.449  15.835  0.00  0.00    +0.000 NA
ATOM     13  N   UNL     1       7.023   4.320  17.104  0.00  0.00    +0.000 N 
ATOM     14  H   UNL     1       7.704   4.330  17.857  0.00  0.00    +0.000 HD
BRANCH  11  15
ATOM     15  C   UNL     1       6.246   4.480  13.612  0.00  0.00    +0.000 C 
ATOM     16  C   UNL     1       6.440   3.231  12.777  0.00  0.00    +0.000 C 
ATOM     17  C   UNL     1       5.083   3.834  12.893  0.00  0.00    +0.000 C 
ENDBRANCH  11  15
ENDBRANCH   2   9
BRANCH   6  18
ATOM     18  O   UNL     1       2.226   7.844  20.193  0.00  0.00    +0.000 OA
BRANCH  18  19
ATOM     19  C   UNL     1       1.298   8.690  20.730  0.00  0.00    +0.000 A 
ATOM     20  C   UNL     1       0.830   8.649  22.045  0.00  0.00    +0.000 A 
ATOM     21  C   UNL     1      -0.078   9.602  22.504  0.00  0.00    +0.000 A 
ATOM     22  C   UNL     1      -0.542  10.590  21.641  0.00  0.00    +0.000 A 
ATOM     23 CL   UNL     1      -1.673  11.756  22.212  0.00  0.00    +0.000 Cl
ATOM     24  C   UNL     1      -0.091  10.641  20.326  0.00  0.00    +0.000 A 
ATOM     25  C   UNL     1       0.837   9.695  19.874  0.00  0.00    +0.000 A 
ENDBRANCH  18  19
ENDBRANCH   6  18
TORSDOF 4
ENDMDL
MODEL 4
REMARK VINA RESULT:      -7.6      1.064      1.222
REMARK  Name = 
REMARK  4 active torsions:
REMARK  status: ('A' for Active; 'I' for Inactive)
REMARK    1  A    between atoms: C_2  and  C_3
REMARK    2  A    between atoms: C_5  and  C_6
REMARK    3  A    between atoms: C_14  and  O_15
REMARK    4  A    between atoms: O_15  and  C_16
REMARK                            x       y       z     vdW  Elec       q    Type
REMARK                         _______ _______ _______ _____ _____    ______ ____
ROOT
ATOM      1  O   UNL     1       5.617   3.421  19.317  0.00  0.00    +0.000 OA
ATOM      2  C   UNL     1       5.260   4.272  18.502  0.00  0.00    +0.000 C 
ATOM      3  N   UNL     1       4.267   5.204  18.806  0.00  0.00    +0.000 N 
ATOM      4  C   UNL     1       3.553   5.067  20.065  0.00  0.00    +0.000 C 
ATOM      5  C   UNL     1       2.070   5.330  19.845  0.00  0.00    +0.000 C 
ATOM      6  C   UNL     1       1.823   6.708  19.211  0.00  0.00    +0.000 C 
ATOM      7  C   UNL     1       2.660   6.844  17.928  0.00  0.00    +0.000 C 
ATOM      8  C   UNL     1       4.129   6.525  18.187  0.00  0.00    +0.000 C 
ENDROOT
BRANCH   2   9
ATOM      9  C   UNL     1       5.864   4.319  17.201  0.00  0.00    +0.000 A 
ATOM     10  C   UNL     1       5.357   4.232  15.918  0.00  0.00    +0.000 A 
ATOM     11  C   UNL     1       6.466   4.422  15.076  0.00  0.00    +0.000 A 
ATOM     12  N   UNL     1       7.611   4.511  15.756  0.00  0.00    +0.000 NA
ATOM     13  N   UNL     1       7.222   4.392  17.037  0.00  0.00    +0.000 N 
ATOM     14  H   UNL     1       7.925   4.404  17.771  0.00  0.00    +0.000 HD
BRANCH  11  15
ATOM     15  C   UNL     1       6.348   4.531  13.568  0.00  0.00    +0.000 C 
ATOM     16  C   UNL     1       6.498   3.274  12.737  0.00  0.00    +0.000 C 
ATOM     17  C   UNL     1       5.154   3.899  12.888  0.00  0.00    +0.000 C 
ENDBRANCH  11  15
ENDBRANCH   2   9
BRANCH   6  18
ATOM     18  O   UNL     1       2.221   7.773  20.091  0.00  0.00    +0.000 OA
BRANCH  18  19
ATOM     19  C   UNL     1       1.338   8.795  20.295  0.00  0.00    +0.000 A 
ATOM     20  C   UNL     1       0.855   9.657  19.309  0.00  0.00    +0.000 A 
ATOM     21  C   UNL     1      -0.092  10.631  19.620  0.00  0.00    +0.000 A 
ATOM     22  C   UNL     1      -0.545  10.765  20.929  0.00  0.00    +0.000 A 
ATOM     23 CL   UNL     1      -1.704  11.979  21.308  0.00  0.00    +0.000 Cl
ATOM     24  C   UNL     1      -0.068   9.919  21.925  0.00  0.00    +0.000 A 
ATOM     25  C   UNL     1       0.866   8.927  21.604  0.00  0.00    +0.000 A 
ENDBRANCH  18  19
ENDBRANCH   6  18
TORSDOF 4
ENDMDL
MODEL 5
REMARK VINA RESULT:      -7.5      1.040      1.527
REMARK  Name = 
REMARK  4 active torsions:
REMARK  status: ('A' for Active; 'I' for Inactive)
REMARK    1  A    between atoms: C_2  and  C_3
REMARK    2  A    between atoms: C_5  and  C_6
REMARK    3  A    between atoms: C_14  and  O_15
REMARK    4  A    between atoms: O_15  and  C_16
REMARK                            x       y       z     vdW  Elec       q    Type
REMARK                         _______ _______ _______ _____ _____    ______ ____
ROOT
ATOM      1  O   UNL     1       6.703   4.606  18.841  0.00  0.00    +0.000 OA
ATOM      2  C   UNL     1       5.981   5.021  17.936  0.00  0.00    +0.000 C 
ATOM      3  N   UNL     1       4.830   5.764  18.200  0.00  0.00    +0.000 N 
ATOM      4  C   UNL     1       4.416   5.925  19.585  0.00  0.00    +0.000 C 
ATOM      5  C   UNL     1       2.906   5.770  19.690  0.00  0.00    +0.000 C 
ATOM      6  C   UNL     1       2.166   6.753  18.768  0.00  0.00    +0.000 C 
ATOM      7  C   UNL     1       2.691   6.608  17.331  0.00  0.00    +0.000 C 
ATOM      8  C   UNL     1       4.212   6.723  17.281  0.00  0.00    +0.000 C 
ENDROOT
BRANCH   2   9
ATOM      9  C   UNL     1       6.310   4.740  16.567  0.00  0.00    +0.000 A 
ATOM     10  C   UNL     1       5.950   3.730  15.694  0.00  0.00    +0.000 A 
ATOM     11  C   UNL     1       6.557   4.071  14.475  0.00  0.00    +0.000 A 
ATOM     12  N   UNL     1       7.337   5.149  14.578  0.00  0.00    +0.000 NA
ATOM     13  N   UNL     1       7.210   5.501  15.869  0.00  0.00    +0.000 N 
ATOM     14  H   UNL     1       7.734   6.299  16.218  0.00  0.00    +0.000 HD
BRANCH  11  15
ATOM     15  C   UNL     1       6.323   3.296  13.191  0.00  0.00    +0.000 C 
ATOM     16  C   UNL     1       5.233   3.768  12.250  0.00  0.00    +0.000 C 
ATOM     17  C   UNL     1       6.663   3.958  11.874  0.00  0.00    +0.000 C 
ENDBRANCH  11  15
ENDBRANCH   2   9
BRANCH   6  18
ATOM     18  O   UNL     1       2.386   8.117  19.165  0.00  0.00    +0.000 OA
BRANCH  18  19
ATOM     19  C   UNL     1       1.506   8.674  20.049  0.00  0.00    +0.000 A 
ATOM     20  C   UNL     1       1.082   8.092  21.245  0.00  0.00    +0.000 A 
ATOM     21  C   UNL     1       0.224   8.778  22.102  0.00  0.00    +0.000 A 
ATOM     22  C   UNL     1      -0.236  10.045  21.755  0.00  0.00    +0.000 A 
ATOM     23 CL   UNL     1      -1.306  10.881  22.813  0.00  0.00    +0.000 Cl
ATOM     24  C   UNL     1       0.171  10.636  20.563  0.00  0.00    +0.000 A 
ATOM     25  C   UNL     1       1.050   9.953  19.715  0.00  0.00    +0.000 A 
ENDBRANCH  18  19
ENDBRANCH   6  18
TORSDOF 4
ENDMDL
MODEL 6
REMARK VINA RESULT:      -7.0      1.847      2.626
REMARK  Name = 
REMARK  4 active torsions:
REMARK  status: ('A' for Active; 'I' for Inactive)
REMARK    1  A    between atoms: C_2  and  C_3
REMARK    2  A    between atoms: C_5  and  C_6
REMARK    3  A    between atoms: C_14  and  O_15
REMARK    4  A    between atoms: O_15  and  C_16
REMARK                            x       y       z     vdW  Elec       q    Type
REMARK                         _______ _______ _______ _____ _____    ______ ____
ROOT
ATOM      1  O   UNL     1       4.387   2.869  20.147  0.00  0.00    +0.000 OA
ATOM      2  C   UNL     1       4.332   3.851  19.409  0.00  0.00    +0.000 C 
ATOM      3  N   UNL     1       3.493   4.931  19.689  0.00  0.00    +0.000 N 
ATOM      4  C   UNL     1       2.570   4.816  20.807  0.00  0.00    +0.000 C 
ATOM      5  C   UNL     1       1.219   5.396  20.417  0.00  0.00    +0.000 C 
ATOM      6  C   UNL     1       1.338   6.852  19.941  0.00  0.00    +0.000 C 
ATOM      7  C   UNL     1       2.383   6.943  18.817  0.00  0.00    +0.000 C 
ATOM      8  C   UNL     1       3.706   6.307  19.235  0.00  0.00    +0.000 C 
ENDROOT
BRANCH   2   9
ATOM      9  C   UNL     1       5.139   3.906  18.222  0.00  0.00    +0.000 A 
ATOM     10  C   UNL     1       4.900   3.585  16.899  0.00  0.00    +0.000 A 
ATOM     11  C   UNL     1       6.081   3.935  16.223  0.00  0.00    +0.000 A 
ATOM     12  N   UNL     1       7.042   4.342  17.055  0.00  0.00    +0.000 NA
ATOM     13  N   UNL     1       6.461   4.263  18.264  0.00  0.00    +0.000 N 
ATOM     14  H   UNL     1       7.002   4.502  19.090  0.00  0.00    +0.000 HD
BRANCH  11  15
ATOM     15  C   UNL     1       6.217   3.869  14.713  0.00  0.00    +0.000 C 
ATOM     16  C   UNL     1       5.648   5.001  13.884  0.00  0.00    +0.000 C 
ATOM     17  C   UNL     1       7.125   4.863  14.025  0.00  0.00    +0.000 C 
ENDBRANCH  11  15
ENDBRANCH   2   9
BRANCH   6  18
ATOM     18  O   UNL     1       1.777   7.719  20.999  0.00  0.00    +0.000 OA
BRANCH  18  19
ATOM     19  C   UNL     1       0.945   8.735  21.378  0.00  0.00    +0.000 A 
ATOM     20  C   UNL     1       0.495   8.970  22.678  0.00  0.00    +0.000 A 
ATOM     21  C   UNL     1      -0.307  10.074  22.962  0.00  0.00    +0.000 A 
ATOM     22  C   UNL     1      -0.684  10.939  21.938  0.00  0.00    +0.000 A 
ATOM     23 CL   UNL     1      -1.686  12.292  22.294  0.00  0.00    +0.000 Cl
ATOM     24  C   UNL     1      -0.251  10.714  20.635  0.00  0.00    +0.000 A 
ATOM     25  C   UNL     1       0.573   9.616  20.358  0.00  0.00    +0.000 A 
ENDBRANCH  18  19
ENDBRANCH   6  18
TORSDOF 4
ENDMDL
MODEL 7
REMARK VINA RESULT:      -6.8      1.451      1.690
REMARK  Name = 
REMARK  4 active torsions:
REMARK  status: ('A' for Active; 'I' for Inactive)
REMARK    1  A    between atoms: C_2  and  C_3
REMARK    2  A    between atoms: C_5  and  C_6
REMARK    3  A    between atoms: C_14  and  O_15
REMARK    4  A    between atoms: O_15  and  C_16
REMARK                            x       y       z     vdW  Elec       q    Type
REMARK                         _______ _______ _______ _____ _____    ______ ____
ROOT
ATOM      1  O   UNL     1       4.174   2.804  17.813  0.00  0.00    +0.000 OA
ATOM      2  C   UNL     1       4.406   3.924  17.357  0.00  0.00    +0.000 C 
ATOM      3  N   UNL     1       3.740   5.057  17.826  0.00  0.00    +0.000 N 
ATOM      4  C   UNL     1       2.654   4.875  18.776  0.00  0.00    +0.000 C 
ATOM      5  C   UNL     1       1.501   5.802  18.419  0.00  0.00    +0.000 C 
ATOM      6  C   UNL     1       1.948   7.271  18.357  0.00  0.00    +0.000 C 
ATOM      7  C   UNL     1       3.149   7.405  17.407  0.00  0.00    +0.000 C 
ATOM      8  C   UNL     1       4.260   6.426  17.774  0.00  0.00    +0.000 C 
ENDROOT
BRANCH   2   9
ATOM      9  C   UNL     1       5.379   4.088  16.314  0.00  0.00    +0.000 A 
ATOM     10  C   UNL     1       5.307   4.032  14.935  0.00  0.00    +0.000 A 
ATOM     11  C   UNL     1       6.600   4.353  14.491  0.00  0.00    +0.000 A 
ATOM     12  N   UNL     1       7.463   4.494  15.499  0.00  0.00    +0.000 NA
ATOM     13  N   UNL     1       6.708   4.275  16.588  0.00  0.00    +0.000 N 
ATOM     14  H   UNL     1       7.143   4.303  17.506  0.00  0.00    +0.000 HD
BRANCH  11  15
ATOM     15  C   UNL     1       6.948   4.534  13.025  0.00  0.00    +0.000 C 
ATOM     16  C   UNL     1       7.315   3.310  12.212  0.00  0.00    +0.000 C 
ATOM     17  C   UNL     1       6.003   3.978  11.983  0.00  0.00    +0.000 C 
ENDBRANCH  11  15
ENDBRANCH   2   9
BRANCH   6  18
ATOM     18  O   UNL     1       2.370   7.750  19.645  0.00  0.00    +0.000 OA
BRANCH  18  19
ATOM     19  C   UNL     1       1.534   8.596  20.316  0.00  0.00    +0.000 A 
ATOM     20  C   UNL     1       0.733   9.578  19.730  0.00  0.00    +0.000 A 
ATOM     21  C   UNL     1      -0.129  10.348  20.508  0.00  0.00    +0.000 A 
ATOM     22  C   UNL     1      -0.178  10.156  21.886  0.00  0.00    +0.000 A 
ATOM     23 CL   UNL     1      -1.236  11.120  22.842  0.00  0.00    +0.000 Cl
ATOM     24  C   UNL     1       0.619   9.187  22.487  0.00  0.00    +0.000 A 
ATOM     25  C   UNL     1       1.468   8.400  21.699  0.00  0.00    +0.000 A 
ENDBRANCH  18  19
ENDBRANCH   6  18
TORSDOF 4
ENDMDL
MODEL 8
REMARK VINA RESULT:      -6.6      2.782      4.488
REMARK  Name = 
REMARK  4 active torsions:
REMARK  status: ('A' for Active; 'I' for Inactive)
REMARK    1  A    between atoms: C_2  and  C_3
REMARK    2  A    between atoms: C_5  and  C_6
REMARK    3  A    between atoms: C_14  and  O_15
REMARK    4  A    between atoms: O_15  and  C_16
REMARK                            x       y       z     vdW  Elec       q    Type
REMARK                         _______ _______ _______ _____ _____    ______ ____
ROOT
ATOM      1  O   UNL     1       2.338   5.701  20.915  0.00  0.00    +0.000 OA
ATOM      2  C   UNL     1       2.413   6.184  19.786  0.00  0.00    +0.000 C 
ATOM      3  N   UNL     1       2.037   7.503  19.528  0.00  0.00    +0.000 N 
ATOM      4  C   UNL     1       1.418   8.266  20.601  0.00  0.00    +0.000 C 
ATOM      5  C   UNL     1       0.257   9.079  20.046  0.00  0.00    +0.000 C 
ATOM      6  C   UNL     1       0.700   9.994  18.894  0.00  0.00    +0.000 C 
ATOM      7  C   UNL     1       1.423   9.162  17.822  0.00  0.00    +0.000 C 
ATOM      8  C   UNL     1       2.547   8.328  18.430  0.00  0.00    +0.000 C 
ENDROOT
BRANCH   2   9
ATOM      9  C   UNL     1       2.889   5.386  18.692  0.00  0.00    +0.000 A 
ATOM     10  C   UNL     1       4.108   5.295  18.045  0.00  0.00    +0.000 A 
ATOM     11  C   UNL     1       3.942   4.269  17.101  0.00  0.00    +0.000 A 
ATOM     12  N   UNL     1       2.688   3.812  17.061  0.00  0.00    +0.000 NA
ATOM     13  N   UNL     1       2.061   4.543  17.998  0.00  0.00    +0.000 N 
ATOM     14  H   UNL     1       1.067   4.401  18.153  0.00  0.00    +0.000 HD
BRANCH  11  15
ATOM     15  C   UNL     1       5.079   3.743  16.246  0.00  0.00    +0.000 C 
ATOM     16  C   UNL     1       5.498   4.540  15.027  0.00  0.00    +0.000 C 
ATOM     17  C   UNL     1       6.383   4.508  16.226  0.00  0.00    +0.000 C 
ENDBRANCH  11  15
ENDBRANCH   2   9
BRANCH   6  18
ATOM     18  O   UNL     1       1.623  11.000  19.343  0.00  0.00    +0.000 OA
BRANCH  18  19
ATOM     19  C   UNL     1       1.271  12.310  19.175  0.00  0.00    +0.000 A 
ATOM     20  C   UNL     1       2.145  13.397  19.231  0.00  0.00    +0.000 A 
ATOM     21  C   UNL     1       1.685  14.689  18.986  0.00  0.00    +0.000 A 
ATOM     22  C   UNL     1       0.338  14.905  18.706  0.00  0.00    +0.000 A 
ATOM     23 CL   UNL     1      -0.225  16.506  18.418  0.00  0.00    +0.000 Cl
ATOM     24  C   UNL     1      -0.547  13.833  18.655  0.00  0.00    +0.000 A 
ATOM     25  C   UNL     1      -0.077  12.534  18.879  0.00  0.00    +0.000 A 
ENDBRANCH  18  19
ENDBRANCH   6  18
TORSDOF 4
ENDMDL
MODEL 9
REMARK VINA RESULT:      -6.6      2.900      4.673
REMARK  Name = 
REMARK  4 active torsions:
REMARK  status: ('A' for Active; 'I' for Inactive)
REMARK    1  A    between atoms: C_2  and  C_3
REMARK    2  A    between atoms: C_5  and  C_6
REMARK    3  A    between atoms: C_14  and  O_15
REMARK    4  A    between atoms: O_15  and  C_16
REMARK                            x       y       z     vdW  Elec       q    Type
REMARK                         _______ _______ _______ _____ _____    ______ ____
ROOT
ATOM      1  O   UNL     1       2.231   5.818  21.014  0.00  0.00    +0.000 OA
ATOM      2  C   UNL     1       2.318   6.270  19.873  0.00  0.00    +0.000 C 
ATOM      3  N   UNL     1       1.966   7.588  19.579  0.00  0.00    +0.000 N 
ATOM      4  C   UNL     1       1.356   8.389  20.629  0.00  0.00    +0.000 C 
ATOM      5  C   UNL     1       0.211   9.207  20.049  0.00  0.00    +0.000 C 
ATOM      6  C   UNL     1       0.674  10.084  18.875  0.00  0.00    +0.000 C 
ATOM      7  C   UNL     1       1.386   9.212  17.828  0.00  0.00    +0.000 C 
ATOM      8  C   UNL     1       2.494   8.376  18.463  0.00  0.00    +0.000 C 
ENDROOT
BRANCH   2   9
ATOM      9  C   UNL     1       2.786   5.435  18.802  0.00  0.00    +0.000 A 
ATOM     10  C   UNL     1       4.015   5.280  18.190  0.00  0.00    +0.000 A 
ATOM     11  C   UNL     1       3.826   4.250  17.253  0.00  0.00    +0.000 A 
ATOM     12  N   UNL     1       2.554   3.851  17.186  0.00  0.00    +0.000 NA
ATOM     13  N   UNL     1       1.937   4.623  18.097  0.00  0.00    +0.000 N 
ATOM     14  H   UNL     1       0.934   4.530  18.227  0.00  0.00    +0.000 HD
BRANCH  11  15
ATOM     15  C   UNL     1       4.959   3.660  16.436  0.00  0.00    +0.000 C 
ATOM     16  C   UNL     1       5.355   4.346  15.145  0.00  0.00    +0.000 C 
ATOM     17  C   UNL     1       6.254   4.434  16.330  0.00  0.00    +0.000 C 
ENDBRANCH  11  15
ENDBRANCH   2   9
BRANCH   6  18
ATOM     18  O   UNL     1       1.612  11.086  19.302  0.00  0.00    +0.000 OA
BRANCH  18  19
ATOM     19  C   UNL     1       1.267  12.396  19.131  0.00  0.00    +0.000 A 
ATOM     20  C   UNL     1      -0.020  12.919  19.267  0.00  0.00    +0.000 A 
ATOM     21  C   UNL     1      -0.248  14.287  19.127  0.00  0.00    +0.000 A 
ATOM     22  C   UNL     1       0.810  15.140  18.826  0.00  0.00    +0.000 A 
ATOM     23 CL   UNL     1       0.519  16.826  18.641  0.00  0.00    +0.000 Cl
ATOM     24  C   UNL     1       2.098  14.633  18.679  0.00  0.00    +0.000 A 
ATOM     25  C   UNL     1       2.327  13.262  18.842  0.00  0.00    +0.000 A 
ENDBRANCH  18  19
ENDBRANCH   6  18
TORSDOF 4
ENDMDL
