MODEL 1
REMARK VINA RESULT:      -9.8      0.000      0.000
REMARK  Name = 
REMARK  7 active torsions:
REMARK  status: ('A' for Active; 'I' for Inactive)
REMARK    1  A    between atoms: C_1  and  O_2
REMARK    2  A    between atoms: O_2  and  C_3
REMARK    3  A    between atoms: C_3  and  C_5
REMARK    4  A    between atoms: C_10  and  C_11
REMARK    5  A    between atoms: C_16  and  C_17
REMARK    6  A    between atoms: C_17  and  N_18
REMARK    7  A    between atoms: N_21  and  C_22
REMARK                            x       y       z     vdW  Elec       q    Type
REMARK                         _______ _______ _______ _____ _____    ______ ____
ROOT
ATOM      1  C   UNL     1       3.806   4.051  17.774  0.00  0.00    +0.000 C 
ATOM      2  O   UNL     1       3.477   3.607  16.675  0.00  0.00    +0.000 OA
ATOM      3  N   UNL     1       5.005   4.789  17.955  0.00  0.00    +0.000 N 
ATOM      4  C   UNL     1       5.765   5.136  16.751  0.00  0.00    +0.000 C 
ATOM      5  C   UNL     1       7.274   5.105  16.994  0.00  0.00    +0.000 C 
ATOM      6  C   UNL     1       7.720   5.986  18.169  0.00  0.00    +0.000 C 
ATOM      7  C   UNL     1       6.901   5.606  19.408  0.00  0.00    +0.000 C 
ATOM      8  C   UNL     1       5.398   5.519  19.167  0.00  0.00    +0.000 C 
ENDROOT
BRANCH   1  14
ATOM      9  C   UNL     1       2.143   4.824  19.579  0.00  0.00    +0.000 A 
ATOM     10  C   UNL     1       1.267   4.475  20.634  0.00  0.00    +0.000 A 
ATOM     11  C   UNL     1       1.093   3.154  21.027  0.00  0.00    +0.000 A 
ATOM     12  C   UNL     1       1.857   2.163  20.435  0.00  0.00    +0.000 A 
ATOM     13  C   UNL     1       2.771   2.502  19.437  0.00  0.00    +0.000 A 
ATOM     14  C   UNL     1       2.864   3.806  18.916  0.00  0.00    +0.000 A 
BRANCH   9  15
ATOM     15  C   UNL     1       2.252   6.287  19.352  0.00  0.00    +0.000 C 
ATOM     16  O   UNL     1       2.258   7.074  20.291  0.00  0.00    +0.000 OA
BRANCH  15  18
ATOM     17  C   UNL     1       2.566   7.974  17.778  0.00  0.00    +0.000 C 
ATOM     18  O   UNL     1       2.183   6.621  18.045  0.00  0.00    +0.000 OA
ENDBRANCH  15  18
ENDBRANCH   9  15
ENDBRANCH   1  14
BRANCH   6  19
ATOM     19  C   UNL     1       7.654   7.500  17.875  0.00  0.00    +0.000 C 
BRANCH  19  20
ATOM     20  N   UNL     1       8.587   8.286  18.681  0.00  0.00    +0.000 N 
ATOM     21  C   UNL     1       8.782   9.616  18.433  0.00  0.00    +0.000 C 
ATOM     22  O   UNL     1       8.199  10.203  17.524  0.00  0.00    +0.000 OA
ATOM     23  N   UNL     1       9.684  10.211  19.275  0.00  0.00    +0.000 N 
ATOM     24  H   UNL     1       8.947   7.894  19.536  0.00  0.00    +0.000 HD
ATOM     25  H   UNL     1      10.229   9.601  19.867  0.00  0.00    +0.000 HD
BRANCH  23  26
ATOM     26  C   UNL     1      10.111  11.620  19.163  0.00  0.00    +0.000 C 
ATOM     27  C   UNL     1      10.761  11.902  17.783  0.00  0.00    +0.000 C 
ATOM     28  C   UNL     1      11.179  13.377  17.660  0.00  0.00    +0.000 C 
ATOM     29  C   UNL     1       9.942  14.275  17.808  0.00  0.00    +0.000 C 
ATOM     30  C   UNL     1       9.290  14.042  19.179  0.00  0.00    +0.000 C 
ATOM     31  C   UNL     1      10.298  14.378  20.289  0.00  0.00    +0.000 C 
ATOM     32  C   UNL     1      11.539  13.483  20.153  0.00  0.00    +0.000 C 
ATOM     33  C   UNL     1      12.182  13.718  18.776  0.00  0.00    +0.000 C 
ATOM     34  C   UNL     1      11.118  12.008  20.279  0.00  0.00    +0.000 C 
ATOM     35  C   UNL     1       8.876  12.559  19.297  0.00  0.00    +0.000 C 
ENDBRANCH  23  26
ENDBRANCH  19  20
ENDBRANCH   6  19
TORSDOF 6
ENDMDL
MODEL 2
REMARK VINA RESULT:      -9.7      0.529      1.331
REMARK  Name = 
REMARK  7 active torsions:
REMARK  status: ('A' for Active; 'I' for Inactive)
REMARK    1  A    between atoms: C_1  and  O_2
REMARK    2  A    between atoms: O_2  and  C_3
REMARK    3  A    between atoms: C_3  and  C_5
REMARK    4  A    between atoms: C_10  and  C_11
REMARK    5  A    between atoms: C_16  and  C_17
REMARK    6  A    between atoms: C_17  and  N_18
REMARK    7  A    between atoms: N_21  and  C_22
REMARK                            x       y       z     vdW  Elec       q    Type
REMARK                         _______ _______ _______ _____ _____    ______ ____
ROOT
ATOM      1  C   UNL     1       3.853   3.965  17.825  0.00  0.00    +0.000 C 
ATOM      2  O   UNL     1       3.535   3.502  16.731  0.00  0.00    +0.000 OA
ATOM      3  N   UNL     1       5.049   4.707  18.005  0.00  0.00    +0.000 N 
ATOM      4  C   UNL     1       5.820   5.034  16.803  0.00  0.00    +0.000 C 
ATOM      5  C   UNL     1       7.328   5.009  17.061  0.00  0.00    +0.000 C 
ATOM      6  C   UNL     1       7.761   5.910  18.225  0.00  0.00    +0.000 C 
ATOM      7  C   UNL     1       6.931   5.550  19.462  0.00  0.00    +0.000 C 
ATOM      8  C   UNL     1       5.430   5.458  19.208  0.00  0.00    +0.000 C 
ENDROOT
BRANCH   1  14
ATOM      9  C   UNL     1       2.081   4.744  19.520  0.00  0.00    +0.000 A 
ATOM     10  C   UNL     1       1.204   4.413  20.580  0.00  0.00    +0.000 A 
ATOM     11  C   UNL     1       1.124   3.119  21.079  0.00  0.00    +0.000 A 
ATOM     12  C   UNL     1       1.982   2.148  20.590  0.00  0.00    +0.000 A 
ATOM     13  C   UNL     1       2.896   2.478  19.589  0.00  0.00    +0.000 A 
ATOM     14  C   UNL     1       2.900   3.738  18.962  0.00  0.00    +0.000 A 
BRANCH   9  15
ATOM     15  C   UNL     1       2.080   6.188  19.172  0.00  0.00    +0.000 C 
ATOM     16  O   UNL     1       2.247   6.561  18.017  0.00  0.00    +0.000 OA
BRANCH  15  18
ATOM     17  C   UNL     1       1.611   8.325  19.971  0.00  0.00    +0.000 C 
ATOM     18  O   UNL     1       2.036   6.988  20.259  0.00  0.00    +0.000 OA
ENDBRANCH  15  18
ENDBRANCH   9  15
ENDBRANCH   1  14
BRANCH   6  19
ATOM     19  C   UNL     1       7.696   7.419  17.905  0.00  0.00    +0.000 C 
BRANCH  19  20
ATOM     20  N   UNL     1       8.634   8.216  18.693  0.00  0.00    +0.000 N 
ATOM     21  C   UNL     1       8.777   9.558  18.469  0.00  0.00    +0.000 C 
ATOM     22  O   UNL     1       8.140  10.145  17.598  0.00  0.00    +0.000 OA
ATOM     23  N   UNL     1       9.692  10.163  19.290  0.00  0.00    +0.000 N 
ATOM     24  H   UNL     1       9.040   7.818  19.523  0.00  0.00    +0.000 HD
ATOM     25  H   UNL     1      10.279   9.558  19.846  0.00  0.00    +0.000 HD
BRANCH  23  26
ATOM     26  C   UNL     1      10.068  11.587  19.195  0.00  0.00    +0.000 C 
ATOM     27  C   UNL     1       8.861  12.460  18.763  0.00  0.00    +0.000 C 
ATOM     28  C   UNL     1       9.252  13.947  18.692  0.00  0.00    +0.000 C 
ATOM     29  C   UNL     1       9.723  14.420  20.074  0.00  0.00    +0.000 C 
ATOM     30  C   UNL     1      10.939  13.594  20.521  0.00  0.00    +0.000 C 
ATOM     31  C   UNL     1      12.079  13.771  19.505  0.00  0.00    +0.000 C 
ATOM     32  C   UNL     1      11.619  13.298  18.118  0.00  0.00    +0.000 C 
ATOM     33  C   UNL     1      10.399  14.126  17.682  0.00  0.00    +0.000 C 
ATOM     34  C   UNL     1      11.231  11.810  18.192  0.00  0.00    +0.000 C 
ATOM     35  C   UNL     1      10.541  12.104  20.586  0.00  0.00    +0.000 C 
ENDBRANCH  23  26
ENDBRANCH  19  20
ENDBRANCH   6  19
TORSDOF 6
ENDMDL
MODEL 3
REMARK VINA RESULT:      -9.5      0.881      1.708
REMARK  Name = 
REMARK  7 active torsions:
REMARK  status: ('A' for Active; 'I' for Inactive)
REMARK    1  A    between atoms: C_1  and  O_2
REMARK    2  A    between atoms: O_2  and  C_3
REMARK    3  A    between atoms: C_3  and  C_5
REMARK    4  A    between atoms: C_10  and  C_11
REMARK    5  A    between atoms: C_16  and  C_17
REMARK    6  A    between atoms: C_17  and  N_18
REMARK    7  A    between atoms: N_21  and  C_22
REMARK                            x       y       z     vdW  Elec       q    Type
REMARK                         _______ _______ _______ _____ _____    ______ ____
ROOT
ATOM      1  C   UNL     1       4.261   3.442  18.229  0.00  0.00    +0.000 C 
ATOM      2  O   UNL     1       4.036   2.852  17.174  0.00  0.00    +0.000 OA
ATOM      3  N   UNL     1       5.410   4.259  18.401  0.00  0.00    +0.000 N 
ATOM      4  C   UNL     1       6.243   4.497  17.219  0.00  0.00    +0.000 C 
ATOM      5  C   UNL     1       7.730   4.575  17.569  0.00  0.00    +0.000 C 
ATOM      6  C   UNL     1       8.046   5.614  18.654  0.00  0.00    +0.000 C 
ATOM      7  C   UNL     1       7.153   5.343  19.871  0.00  0.00    +0.000 C 
ATOM      8  C   UNL     1       5.677   5.149  19.538  0.00  0.00    +0.000 C 
ENDROOT
BRANCH   1  14
ATOM      9  C   UNL     1       1.942   3.824  19.275  0.00  0.00    +0.000 A 
ATOM     10  C   UNL     1       1.061   3.600  20.359  0.00  0.00    +0.000 A 
ATOM     11  C   UNL     1       1.447   2.856  21.468  0.00  0.00    +0.000 A 
ATOM     12  C   UNL     1       2.750   2.396  21.556  0.00  0.00    +0.000 A 
ATOM     13  C   UNL     1       3.647   2.665  20.522  0.00  0.00    +0.000 A 
ATOM     14  C   UNL     1       3.247   3.287  19.324  0.00  0.00    +0.000 A 
BRANCH   9  15
ATOM     15  C   UNL     1       1.377   4.701  18.218  0.00  0.00    +0.000 C 
ATOM     16  O   UNL     1       1.027   4.243  17.137  0.00  0.00    +0.000 OA
BRANCH  15  18
ATOM     17  C   UNL     1       2.753   6.576  18.338  0.00  0.00    +0.000 C 
ATOM     18  O   UNL     1       1.451   6.013  18.530  0.00  0.00    +0.000 OA
ENDBRANCH  15  18
ENDBRANCH   9  15
ENDBRANCH   1  14
BRANCH   6  19
ATOM     19  C   UNL     1       7.936   7.075  18.171  0.00  0.00    +0.000 C 
BRANCH  19  20
ATOM     20  N   UNL     1       8.653   8.021  19.025  0.00  0.00    +0.000 N 
ATOM     21  C   UNL     1       8.839   9.319  18.636  0.00  0.00    +0.000 C 
ATOM     22  O   UNL     1       8.428   9.741  17.559  0.00  0.00    +0.000 OA
ATOM     23  N   UNL     1       9.526  10.078  19.547  0.00  0.00    +0.000 N 
ATOM     24  H   UNL     1       8.849   7.768  19.980  0.00  0.00    +0.000 HD
ATOM     25  H   UNL     1       9.965   9.587  20.313  0.00  0.00    +0.000 HD
BRANCH  23  26
ATOM     26  C   UNL     1       9.908  11.486  19.324  0.00  0.00    +0.000 C 
ATOM     27  C   UNL     1      11.028  11.927  20.301  0.00  0.00    +0.000 C 
ATOM     28  C   UNL     1      11.442  13.386  20.046  0.00  0.00    +0.000 C 
ATOM     29  C   UNL     1      11.966  13.528  18.610  0.00  0.00    +0.000 C 
ATOM     30  C   UNL     1      10.868  13.126  17.612  0.00  0.00    +0.000 C 
ATOM     31  C   UNL     1       9.647  14.040  17.801  0.00  0.00    +0.000 C 
ATOM     32  C   UNL     1       9.112  13.905  19.235  0.00  0.00    +0.000 C 
ATOM     33  C   UNL     1      10.219  14.302  20.225  0.00  0.00    +0.000 C 
ATOM     34  C   UNL     1       8.697  12.444  19.486  0.00  0.00    +0.000 C 
ATOM     35  C   UNL     1      10.456  11.663  17.876  0.00  0.00    +0.000 C 
ENDBRANCH  23  26
ENDBRANCH  19  20
ENDBRANCH   6  19
TORSDOF 6
ENDMDL
MODEL 4
REMARK VINA RESULT:      -9.4      1.281      2.349
REMARK  Name = 
REMARK  7 active torsions:
REMARK  status: ('A' for Active; 'I' for Inactive)
REMARK    1  A    between atoms: C_1  and  O_2
REMARK    2  A    between atoms: O_2  and  C_3
REMARK    3  A    between atoms: C_3  and  C_5
REMARK    4  A    between atoms: C_10  and  C_11
REMARK    5  A    between atoms: C_16  and  C_17
REMARK    6  A    between atoms: C_17  and  N_18
REMARK    7  A    between atoms: N_21  and  C_22
REMARK                            x       y       z     vdW  Elec       q    Type
REMARK                         _______ _______ _______ _____ _____    ______ ____
ROOT
ATOM      1  C   UNL     1       3.256   5.680  18.646  0.00  0.00    +0.000 C 
ATOM      2  O   UNL     1       2.370   6.371  18.147  0.00  0.00    +0.000 OA
ATOM      3  N   UNL     1       4.632   5.944  18.417  0.00  0.00    +0.000 N 
ATOM      4  C   UNL     1       4.964   7.169  17.685  0.00  0.00    +0.000 C 
ATOM      5  C   UNL     1       6.179   6.984  16.774  0.00  0.00    +0.000 C 
ATOM      6  C   UNL     1       7.419   6.460  17.513  0.00  0.00    +0.000 C 
ATOM      7  C   UNL     1       7.036   5.187  18.276  0.00  0.00    +0.000 C 
ATOM      8  C   UNL     1       5.763   5.309  19.106  0.00  0.00    +0.000 C 
ENDROOT
BRANCH   1  14
ATOM      9  C   UNL     1       2.730   3.208  19.130  0.00  0.00    +0.000 A 
ATOM     10  C   UNL     1       2.323   2.227  20.064  0.00  0.00    +0.000 A 
ATOM     11  C   UNL     1       2.017   2.557  21.379  0.00  0.00    +0.000 A 
ATOM     12  C   UNL     1       2.025   3.887  21.764  0.00  0.00    +0.000 A 
ATOM     13  C   UNL     1       2.363   4.871  20.834  0.00  0.00    +0.000 A 
ATOM     14  C   UNL     1       2.819   4.557  19.540  0.00  0.00    +0.000 A 
BRANCH   9  15
ATOM     15  C   UNL     1       2.943   2.677  17.760  0.00  0.00    +0.000 C 
ATOM     16  O   UNL     1       2.011   2.228  17.104  0.00  0.00    +0.000 OA
BRANCH  15  18
ATOM     17  C   UNL     1       4.574   3.353  16.241  0.00  0.00    +0.000 C 
ATOM     18  O   UNL     1       4.248   2.610  17.420  0.00  0.00    +0.000 OA
ENDBRANCH  15  18
ENDBRANCH   9  15
ENDBRANCH   1  14
BRANCH   6  19
ATOM     19  C   UNL     1       8.086   7.505  18.431  0.00  0.00    +0.000 C 
BRANCH  19  20
ATOM     20  N   UNL     1       8.065   8.858  17.878  0.00  0.00    +0.000 N 
ATOM     21  C   UNL     1       8.780   9.868  18.460  0.00  0.00    +0.000 C 
ATOM     22  O   UNL     1       9.456   9.689  19.470  0.00  0.00    +0.000 OA
ATOM     23  N   UNL     1       8.658  11.074  17.821  0.00  0.00    +0.000 N 
ATOM     24  H   UNL     1       7.673   9.007  16.962  0.00  0.00    +0.000 HD
ATOM     25  H   UNL     1       7.945  11.145  17.110  0.00  0.00    +0.000 HD
BRANCH  23  26
ATOM     26  C   UNL     1       9.280  12.325  18.299  0.00  0.00    +0.000 C 
ATOM     27  C   UNL     1      10.734  12.464  17.779  0.00  0.00    +0.000 C 
ATOM     28  C   UNL     1      11.368  13.782  18.257  0.00  0.00    +0.000 C 
ATOM     29  C   UNL     1      10.548  14.967  17.728  0.00  0.00    +0.000 C 
ATOM     30  C   UNL     1       9.105  14.876  18.249  0.00  0.00    +0.000 C 
ATOM     31  C   UNL     1       9.114  14.908  19.786  0.00  0.00    +0.000 C 
ATOM     32  C   UNL     1       9.930  13.725  20.326  0.00  0.00    +0.000 C 
ATOM     33  C   UNL     1      11.370  13.820  19.795  0.00  0.00    +0.000 C 
ATOM     34  C   UNL     1       9.292  12.407  19.848  0.00  0.00    +0.000 C 
ATOM     35  C   UNL     1       8.478  13.550  17.769  0.00  0.00    +0.000 C 
ENDBRANCH  23  26
ENDBRANCH  19  20
ENDBRANCH   6  19
TORSDOF 6
ENDMDL
MODEL 5
REMARK VINA RESULT:      -9.2      0.847      1.783
REMARK  Name = 
REMARK  7 active torsions:
REMARK  status: ('A' for Active; 'I' for Inactive)
REMARK    1  A    between atoms: C_1  and  O_2
REMARK    2  A    between atoms: O_2  and  C_3
REMARK    3  A    between atoms: C_3  and  C_5
REMARK    4  A    between atoms: C_10  and  C_11
REMARK    5  A    between atoms: C_16  and  C_17
REMARK    6  A    between atoms: C_17  and  N_18
REMARK    7  A    between atoms: N_21  and  C_22
REMARK                            x       y       z     vdW  Elec       q    Type
REMARK                         _______ _______ _______ _____ _____    ______ ____
ROOT
ATOM      1  C   UNL     1       4.230   3.454  18.183  0.00  0.00    +0.000 C 
ATOM      2  O   UNL     1       4.006   2.874  17.121  0.00  0.00    +0.000 OA
ATOM      3  N   UNL     1       5.374   4.274  18.363  0.00  0.00    +0.000 N 
ATOM      4  C   UNL     1       6.204   4.531  17.184  0.00  0.00    +0.000 C 
ATOM      5  C   UNL     1       7.691   4.613  17.533  0.00  0.00    +0.000 C 
ATOM      6  C   UNL     1       8.002   5.641  18.630  0.00  0.00    +0.000 C 
ATOM      7  C   UNL     1       7.112   5.351  19.844  0.00  0.00    +0.000 C 
ATOM      8  C   UNL     1       5.637   5.153  19.510  0.00  0.00    +0.000 C 
ENDROOT
BRANCH   1  14
ATOM      9  C   UNL     1       1.915   3.825  19.243  0.00  0.00    +0.000 A 
ATOM     10  C   UNL     1       1.035   3.582  20.324  0.00  0.00    +0.000 A 
ATOM     11  C   UNL     1       1.420   2.812  21.416  0.00  0.00    +0.000 A 
ATOM     12  C   UNL     1       2.721   2.345  21.491  0.00  0.00    +0.000 A 
ATOM     13  C   UNL     1       3.617   2.632  20.461  0.00  0.00    +0.000 A 
ATOM     14  C   UNL     1       3.217   3.280  19.277  0.00  0.00    +0.000 A 
BRANCH   9  15
ATOM     15  C   UNL     1       1.352   4.726  18.206  0.00  0.00    +0.000 C 
ATOM     16  O   UNL     1       1.060   4.305  17.092  0.00  0.00    +0.000 OA
BRANCH  15  18
ATOM     17  C   UNL     1       2.583   6.439  19.192  0.00  0.00    +0.000 C 
ATOM     18  O   UNL     1       1.357   6.024  18.580  0.00  0.00    +0.000 OA
ENDBRANCH  15  18
ENDBRANCH   9  15
ENDBRANCH   1  14
BRANCH   6  19
ATOM     19  C   UNL     1       7.884   7.107  18.164  0.00  0.00    +0.000 C 
BRANCH  19  20
ATOM     20  N   UNL     1       8.664   8.037  18.979  0.00  0.00    +0.000 N 
ATOM     21  C   UNL     1       8.809   9.346  18.610  0.00  0.00    +0.000 C 
ATOM     22  O   UNL     1       8.305   9.792  17.583  0.00  0.00    +0.000 OA
ATOM     23  N   UNL     1       9.565  10.087  19.480  0.00  0.00    +0.000 N 
ATOM     24  H   UNL     1       8.942   7.761  19.907  0.00  0.00    +0.000 HD
ATOM     25  H   UNL     1      10.070   9.581  20.193  0.00  0.00    +0.000 HD
BRANCH  23  26
ATOM     26  C   UNL     1       9.917  11.504  19.262  0.00  0.00    +0.000 C 
ATOM     27  C   UNL     1       8.742  12.440  19.646  0.00  0.00    +0.000 C 
ATOM     28  C   UNL     1       9.124  13.917  19.444  0.00  0.00    +0.000 C 
ATOM     29  C   UNL     1      10.329  14.262  20.330  0.00  0.00    +0.000 C 
ATOM     30  C   UNL     1      11.523  13.370  19.956  0.00  0.00    +0.000 C 
ATOM     31  C   UNL     1      11.892  13.602  18.482  0.00  0.00    +0.000 C 
ATOM     32  C   UNL     1      10.694  13.258  17.585  0.00  0.00    +0.000 C 
ATOM     33  C   UNL     1       9.502  14.150  17.971  0.00  0.00    +0.000 C 
ATOM     34  C   UNL     1      10.316  11.779  17.788  0.00  0.00    +0.000 C 
ATOM     35  C   UNL     1      11.132  11.891  20.158  0.00  0.00    +0.000 C 
ENDBRANCH  23  26
ENDBRANCH  19  20
ENDBRANCH   6  19
TORSDOF 6
ENDMDL
MODEL 6
REMARK VINA RESULT:      -9.2      0.599      1.528
REMARK  Name = 
REMARK  7 active torsions:
REMARK  status: ('A' for Active; 'I' for Inactive)
REMARK    1  A    between atoms: C_1  and  O_2
REMARK    2  A    between atoms: O_2  and  C_3
REMARK    3  A    between atoms: C_3  and  C_5
REMARK    4  A    between atoms: C_10  and  C_11
REMARK    5  A    between atoms: C_16  and  C_17
REMARK    6  A    between atoms: C_17  and  N_18
REMARK    7  A    between atoms: N_21  and  C_22
REMARK                            x       y       z     vdW  Elec       q    Type
REMARK                         _______ _______ _______ _____ _____    ______ ____
ROOT
ATOM      1  C   UNL     1       3.813   4.083  17.987  0.00  0.00    +0.000 C 
ATOM      2  O   UNL     1       3.249   3.708  16.961  0.00  0.00    +0.000 OA
ATOM      3  N   UNL     1       5.009   4.847  17.950  0.00  0.00    +0.000 N 
ATOM      4  C   UNL     1       5.469   5.305  16.637  0.00  0.00    +0.000 C 
ATOM      5  C   UNL     1       6.994   5.307  16.529  0.00  0.00    +0.000 C 
ATOM      6  C   UNL     1       7.681   6.117  17.638  0.00  0.00    +0.000 C 
ATOM      7  C   UNL     1       7.172   5.621  18.997  0.00  0.00    +0.000 C 
ATOM      8  C   UNL     1       5.655   5.501  19.095  0.00  0.00    +0.000 C 
ENDROOT
BRANCH   1  14
ATOM      9  C   UNL     1       2.357   4.611  20.042  0.00  0.00    +0.000 A 
ATOM     10  C   UNL     1       1.774   4.159  21.250  0.00  0.00    +0.000 A 
ATOM     11  C   UNL     1       1.967   2.862  21.709  0.00  0.00    +0.000 A 
ATOM     12  C   UNL     1       2.817   2.016  21.018  0.00  0.00    +0.000 A 
ATOM     13  C   UNL     1       3.448   2.470  19.860  0.00  0.00    +0.000 A 
ATOM     14  C   UNL     1       3.160   3.725  19.290  0.00  0.00    +0.000 A 
BRANCH   9  15
ATOM     15  C   UNL     1       2.099   6.044  19.754  0.00  0.00    +0.000 C 
ATOM     16  O   UNL     1       1.681   6.799  20.624  0.00  0.00    +0.000 OA
BRANCH  15  18
ATOM     17  C   UNL     1       2.296   7.751  18.183  0.00  0.00    +0.000 C 
ATOM     18  O   UNL     1       2.223   6.346  18.443  0.00  0.00    +0.000 OA
ENDBRANCH  15  18
ENDBRANCH   9  15
ENDBRANCH   1  14
BRANCH   6  19
ATOM     19  C   UNL     1       7.524   7.644  17.486  0.00  0.00    +0.000 C 
BRANCH  19  20
ATOM     20  N   UNL     1       8.312   8.405  18.454  0.00  0.00    +0.000 N 
ATOM     21  C   UNL     1       8.692   9.693  18.195  0.00  0.00    +0.000 C 
ATOM     22  O   UNL     1       8.402  10.259  17.143  0.00  0.00    +0.000 OA
ATOM     23  N   UNL     1       9.422  10.269  19.200  0.00  0.00    +0.000 N 
ATOM     24  H   UNL     1       8.419   8.047  19.389  0.00  0.00    +0.000 HD
ATOM     25  H   UNL     1       9.748   9.659  19.936  0.00  0.00    +0.000 HD
BRANCH  23  26
ATOM     26  C   UNL     1      10.001  11.625  19.125  0.00  0.00    +0.000 C 
ATOM     27  C   UNL     1      10.527  12.090  20.507  0.00  0.00    +0.000 C 
ATOM     28  C   UNL     1      11.154  13.492  20.418  0.00  0.00    +0.000 C 
ATOM     29  C   UNL     1      12.332  13.465  19.434  0.00  0.00    +0.000 C 
ATOM     30  C   UNL     1      11.840  13.035  18.043  0.00  0.00    +0.000 C 
ATOM     31  C   UNL     1      10.783  14.034  17.544  0.00  0.00    +0.000 C 
ATOM     32  C   UNL     1       9.597  14.067  18.520  0.00  0.00    +0.000 C 
ATOM     33  C   UNL     1      10.100  14.491  19.910  0.00  0.00    +0.000 C 
ATOM     34  C   UNL     1       8.971  12.663  18.606  0.00  0.00    +0.000 C 
ATOM     35  C   UNL     1      11.210  11.630  18.142  0.00  0.00    +0.000 C 
ENDBRANCH  23  26
ENDBRANCH  19  20
ENDBRANCH   6  19
TORSDOF 6
ENDMDL
MODEL 7
REMARK VINA RESULT:      -8.9      1.265      2.697
REMARK  Name = 
REMARK  7 active torsions:
REMARK  status: ('A' for Active; 'I' for Inactive)
REMARK    1  A    between atoms: C_1  and  O_2
REMARK    2  A    between atoms: O_2  and  C_3
REMARK    3  A    between atoms: C_3  and  C_5
REMARK    4  A    between atoms: C_10  and  C_11
REMARK    5  A    between atoms: C_16  and  C_17
REMARK    6  A    between atoms: C_17  and  N_18
REMARK    7  A    between atoms: N_21  and  C_22
REMARK                            x       y       z     vdW  Elec       q    Type
REMARK                         _______ _______ _______ _____ _____    ______ ____
ROOT
ATOM      1  C   UNL     1       3.306   5.658  18.605  0.00  0.00    +0.000 C 
ATOM      2  O   UNL     1       2.429   6.334  18.070  0.00  0.00    +0.000 OA
ATOM      3  N   UNL     1       4.686   5.921  18.399  0.00  0.00    +0.000 N 
ATOM      4  C   UNL     1       5.030   7.129  17.644  0.00  0.00    +0.000 C 
ATOM      5  C   UNL     1       6.265   6.926  16.765  0.00  0.00    +0.000 C 
ATOM      6  C   UNL     1       7.490   6.424  17.542  0.00  0.00    +0.000 C 
ATOM      7  C   UNL     1       7.094   5.168  18.327  0.00  0.00    +0.000 C 
ATOM      8  C   UNL     1       5.803   5.306  19.126  0.00  0.00    +0.000 C 
ENDROOT
BRANCH   1  14
ATOM      9  C   UNL     1       2.909   3.183  19.185  0.00  0.00    +0.000 A 
ATOM     10  C   UNL     1       2.471   2.225  20.131  0.00  0.00    +0.000 A 
ATOM     11  C   UNL     1       1.995   2.603  21.380  0.00  0.00    +0.000 A 
ATOM     12  C   UNL     1       1.862   3.949  21.678  0.00  0.00    +0.000 A 
ATOM     13  C   UNL     1       2.231   4.904  20.730  0.00  0.00    +0.000 A 
ATOM     14  C   UNL     1       2.853   4.555  19.516  0.00  0.00    +0.000 A 
BRANCH   9  15
ATOM     15  C   UNL     1       3.314   2.595  17.884  0.00  0.00    +0.000 C 
ATOM     16  O   UNL     1       3.748   1.451  17.813  0.00  0.00    +0.000 OA
BRANCH  15  18
ATOM     17  C   UNL     1       4.514   3.535  16.123  0.00  0.00    +0.000 C 
ATOM     18  O   UNL     1       3.297   3.493  16.874  0.00  0.00    +0.000 OA
ENDBRANCH  15  18
ENDBRANCH   9  15
ENDBRANCH   1  14
BRANCH   6  19
ATOM     19  C   UNL     1       8.135   7.493  18.449  0.00  0.00    +0.000 C 
BRANCH  19  20
ATOM     20  N   UNL     1       8.091   8.838  17.878  0.00  0.00    +0.000 N 
ATOM     21  C   UNL     1       8.770   9.872  18.460  0.00  0.00    +0.000 C 
ATOM     22  O   UNL     1       9.430   9.723  19.486  0.00  0.00    +0.000 OA
ATOM     23  N   UNL     1       8.632  11.067  17.804  0.00  0.00    +0.000 N 
ATOM     24  H   UNL     1       7.714   8.966  16.953  0.00  0.00    +0.000 HD
ATOM     25  H   UNL     1       7.931  11.112  17.078  0.00  0.00    +0.000 HD
BRANCH  23  26
ATOM     26  C   UNL     1       9.214  12.338  18.277  0.00  0.00    +0.000 C 
ATOM     27  C   UNL     1       9.303  12.374  19.825  0.00  0.00    +0.000 C 
ATOM     28  C   UNL     1       9.935  13.690  20.311  0.00  0.00    +0.000 C 
ATOM     29  C   UNL     1      11.354  13.820  19.740  0.00  0.00    +0.000 C 
ATOM     30  C   UNL     1      11.299  13.817  18.204  0.00  0.00    +0.000 C 
ATOM     31  C   UNL     1      10.445  15.000  17.721  0.00  0.00    +0.000 C 
ATOM     32  C   UNL     1       9.022  14.879  18.285  0.00  0.00    +0.000 C 
ATOM     33  C   UNL     1       9.087  14.876  19.821  0.00  0.00    +0.000 C 
ATOM     34  C   UNL     1       8.391  13.563  17.794  0.00  0.00    +0.000 C 
ATOM     35  C   UNL     1      10.661  12.496  17.724  0.00  0.00    +0.000 C 
ENDBRANCH  23  26
ENDBRANCH  19  20
ENDBRANCH   6  19
TORSDOF 6
ENDMDL
MODEL 8
REMARK VINA RESULT:      -8.9      6.797     11.098
REMARK  Name = 
REMARK  7 active torsions:
REMARK  status: ('A' for Active; 'I' for Inactive)
REMARK    1  A    between atoms: C_1  and  O_2
REMARK    2  A    between atoms: O_2  and  C_3
REMARK    3  A    between atoms: C_3  and  C_5
REMARK    4  A    between atoms: C_10  and  C_11
REMARK    5  A    between atoms: C_16  and  C_17
REMARK    6  A    between atoms: C_17  and  N_18
REMARK    7  A    between atoms: N_21  and  C_22
REMARK                            x       y       z     vdW  Elec       q    Type
REMARK                         _______ _______ _______ _____ _____    ______ ____
ROOT
ATOM      1  C   UNL     1      -1.354  13.762  21.754  0.00  0.00    +0.000 C 
ATOM      2  O   UNL     1      -1.445  14.518  20.788  0.00  0.00    +0.000 OA
ATOM      3  N   UNL     1      -0.908  12.421  21.618  0.00  0.00    +0.000 N 
ATOM      4  C   UNL     1      -0.411  12.013  20.302  0.00  0.00    +0.000 C 
ATOM      5  C   UNL     1      -0.767  10.562  19.977  0.00  0.00    +0.000 C 
ATOM      6  C   UNL     1      -0.301   9.566  21.047  0.00  0.00    +0.000 C 
ATOM      7  C   UNL     1      -0.828  10.026  22.412  0.00  0.00    +0.000 C 
ATOM      8  C   UNL     1      -0.586  11.500  22.716  0.00  0.00    +0.000 C 
ENDROOT
BRANCH   1  14
ATOM      9  C   UNL     1      -2.885  14.008  23.808  0.00  0.00    +0.000 A 
ATOM     10  C   UNL     1      -3.107  14.591  25.078  0.00  0.00    +0.000 A 
ATOM     11  C   UNL     1      -2.191  15.468  25.646  0.00  0.00    +0.000 A 
ATOM     12  C   UNL     1      -1.077  15.850  24.919  0.00  0.00    +0.000 A 
ATOM     13  C   UNL     1      -0.878  15.331  23.639  0.00  0.00    +0.000 A 
ATOM     14  C   UNL     1      -1.708  14.331  23.097  0.00  0.00    +0.000 A 
BRANCH   9  15
ATOM     15  C   UNL     1      -4.006  13.156  23.337  0.00  0.00    +0.000 C 
ATOM     16  O   UNL     1      -4.222  12.059  23.839  0.00  0.00    +0.000 OA
BRANCH  15  18
ATOM     17  C   UNL     1      -4.912  12.661  21.250  0.00  0.00    +0.000 C 
ATOM     18  O   UNL     1      -4.615  13.652  22.239  0.00  0.00    +0.000 OA
ENDBRANCH  15  18
ENDBRANCH   9  15
ENDBRANCH   1  14
BRANCH   6  19
ATOM     19  C   UNL     1       1.226   9.338  21.066  0.00  0.00    +0.000 C 
BRANCH  19  20
ATOM     20  N   UNL     1       1.598   7.948  21.325  0.00  0.00    +0.000 N 
ATOM     21  C   UNL     1       2.008   7.129  20.310  0.00  0.00    +0.000 C 
ATOM     22  O   UNL     1       2.069   7.515  19.145  0.00  0.00    +0.000 OA
ATOM     23  N   UNL     1       2.325   5.859  20.715  0.00  0.00    +0.000 N 
ATOM     24  H   UNL     1       1.732   7.645  22.276  0.00  0.00    +0.000 HD
ATOM     25  H   UNL     1       2.072   5.603  21.659  0.00  0.00    +0.000 HD
BRANCH  23  26
ATOM     26  C   UNL     1       2.726   4.777  19.795  0.00  0.00    +0.000 C 
ATOM     27  C   UNL     1       2.510   3.382  20.437  0.00  0.00    +0.000 C 
ATOM     28  C   UNL     1       2.904   2.258  19.464  0.00  0.00    +0.000 C 
ATOM     29  C   UNL     1       2.040   2.349  18.198  0.00  0.00    +0.000 C 
ATOM     30  C   UNL     1       2.253   3.710  17.519  0.00  0.00    +0.000 C 
ATOM     31  C   UNL     1       3.734   3.865  17.137  0.00  0.00    +0.000 C 
ATOM     32  C   UNL     1       4.608   3.778  18.397  0.00  0.00    +0.000 C 
ATOM     33  C   UNL     1       4.383   2.416  19.074  0.00  0.00    +0.000 C 
ATOM     34  C   UNL     1       4.213   4.906  19.368  0.00  0.00    +0.000 C 
ATOM     35  C   UNL     1       1.859   4.833  18.502  0.00  0.00    +0.000 C 
ENDBRANCH  23  26
ENDBRANCH  19  20
ENDBRANCH   6  19
TORSDOF 6
ENDMDL
MODEL 9
REMARK VINA RESULT:      -8.6      6.933     11.160
REMARK  Name = 
REMARK  7 active torsions:
REMARK  status: ('A' for Active; 'I' for Inactive)
REMARK    1  A    between atoms: C_1  and  O_2
REMARK    2  A    between atoms: O_2  and  C_3
REMARK    3  A    between atoms: C_3  and  C_5
REMARK    4  A    between atoms: C_10  and  C_11
REMARK    5  A    between atoms: C_16  and  C_17
REMARK    6  A    between atoms: C_17  and  N_18
REMARK    7  A    between atoms: N_21  and  C_22
REMARK                            x       y       z     vdW  Elec       q    Type
REMARK                         _______ _______ _______ _____ _____    ______ ____
ROOT
ATOM      1  C   UNL     1      -1.406  14.021  21.681  0.00  0.00    +0.000 C 
ATOM      2  O   UNL     1      -1.563  14.800  20.742  0.00  0.00    +0.000 OA
ATOM      3  N   UNL     1      -0.972  12.684  21.481  0.00  0.00    +0.000 N 
ATOM      4  C   UNL     1      -0.568  12.309  20.124  0.00  0.00    +0.000 C 
ATOM      5  C   UNL     1      -0.948  10.865  19.789  0.00  0.00    +0.000 C 
ATOM      6  C   UNL     1      -0.409   9.844  20.800  0.00  0.00    +0.000 C 
ATOM      7  C   UNL     1      -0.840  10.270  22.209  0.00  0.00    +0.000 C 
ATOM      8  C   UNL     1      -0.575  11.737  22.531  0.00  0.00    +0.000 C 
ENDROOT
BRANCH   1  14
ATOM      9  C   UNL     1      -2.779  14.201  23.850  0.00  0.00    +0.000 A 
ATOM     10  C   UNL     1      -2.912  14.755  25.145  0.00  0.00    +0.000 A 
ATOM     11  C   UNL     1      -1.968  15.634  25.660  0.00  0.00    +0.000 A 
ATOM     12  C   UNL     1      -0.918  16.049  24.859  0.00  0.00    +0.000 A 
ATOM     13  C   UNL     1      -0.810  15.559  23.557  0.00  0.00    +0.000 A 
ATOM     14  C   UNL     1      -1.664  14.557  23.058  0.00  0.00    +0.000 A 
BRANCH   9  15
ATOM     15  C   UNL     1      -3.920  13.341  23.447  0.00  0.00    +0.000 C 
ATOM     16  O   UNL     1      -3.818  12.120  23.430  0.00  0.00    +0.000 OA
BRANCH  15  18
ATOM     17  C   UNL     1      -5.665  13.399  21.906  0.00  0.00    +0.000 C 
ATOM     18  O   UNL     1      -4.969  14.049  22.974  0.00  0.00    +0.000 OA
ENDBRANCH  15  18
ENDBRANCH   9  15
ENDBRANCH   1  14
BRANCH   6  19
ATOM     19  C   UNL     1       1.115   9.616  20.706  0.00  0.00    +0.000 C 
BRANCH  19  20
ATOM     20  N   UNL     1       1.518   8.257  21.062  0.00  0.00    +0.000 N 
ATOM     21  C   UNL     1       1.975   7.387  20.111  0.00  0.00    +0.000 C 
ATOM     22  O   UNL     1       2.056   7.701  18.926  0.00  0.00    +0.000 OA
ATOM     23  N   UNL     1       2.315   6.155  20.603  0.00  0.00    +0.000 N 
ATOM     24  H   UNL     1       1.635   8.018  22.033  0.00  0.00    +0.000 HD
ATOM     25  H   UNL     1       2.045   5.952  21.555  0.00  0.00    +0.000 HD
BRANCH  23  26
ATOM     26  C   UNL     1       2.769   5.029  19.763  0.00  0.00    +0.000 C 
ATOM     27  C   UNL     1       4.290   5.121  19.474  0.00  0.00    +0.000 C 
ATOM     28  C   UNL     1       4.764   3.931  18.621  0.00  0.00    +0.000 C 
ATOM     29  C   UNL     1       4.490   2.621  19.372  0.00  0.00    +0.000 C 
ATOM     30  C   UNL     1       2.985   2.483  19.649  0.00  0.00    +0.000 C 
ATOM     31  C   UNL     1       2.218   2.477  18.316  0.00  0.00    +0.000 C 
ATOM     32  C   UNL     1       2.483   3.785  17.557  0.00  0.00    +0.000 C 
ATOM     33  C   UNL     1       3.992   3.918  17.291  0.00  0.00    +0.000 C 
ATOM     34  C   UNL     1       2.006   4.974  18.412  0.00  0.00    +0.000 C 
ATOM     35  C   UNL     1       2.516   3.681  20.501  0.00  0.00    +0.000 C 
ENDBRANCH  23  26
ENDBRANCH  19  20
ENDBRANCH   6  19
TORSDOF 6
ENDMDL
