MODEL 1
REMARK VINA RESULT:      -8.4      0.000      0.000
REMARK  Name = 
REMARK  5 active torsions:
REMARK  status: ('A' for Active; 'I' for Inactive)
REMARK    1  A    between atoms: N_1  and  C_2
REMARK    2  A    between atoms: C_5  and  C_6
REMARK    3  A    between atoms: C_6  and  N_7
REMARK    4  A    between atoms: C_19  and  C_20
REMARK    5  A    between atoms: C_20  and  C_22
REMARK                            x       y       z     vdW  Elec       q    Type
REMARK                         _______ _______ _______ _____ _____    ______ ____
ROOT
ATOM      1  C   UNL     1       2.723   2.757  18.569  0.00  0.00    +0.000 A 
ATOM      2  S   UNL     1       1.088   2.987  19.002  0.00  0.00    +0.000 S 
ATOM      3  C   UNL     1       1.335   4.630  19.340  0.00  0.00    +0.000 A 
ATOM      4  C   UNL     1       2.625   5.056  19.074  0.00  0.00    +0.000 A 
ATOM      5  C   UNL     1       3.476   3.916  18.725  0.00  0.00    +0.000 A 
ENDROOT
BRANCH   1   6
ATOM      6  N   UNL     1       3.116   1.529  18.170  0.00  0.00    +0.000 N 
ATOM      7  H   UNL     1       2.436   0.774  18.115  0.00  0.00    +0.000 HD
ATOM      8  H   UNL     1       4.000   1.336  17.711  0.00  0.00    +0.000 HD
ENDBRANCH   1   6
BRANCH   5   9
ATOM      9  C   UNL     1       4.931   3.988  18.532  0.00  0.00    +0.000 C 
ATOM     10  O   UNL     1       5.711   3.749  19.451  0.00  0.00    +0.000 OA
BRANCH   9  11
ATOM     11  C   UNL     1       5.516   4.301  17.186  0.00  0.00    +0.000 A 
ATOM     12  C   UNL     1       4.799   4.165  15.987  0.00  0.00    +0.000 A 
ATOM     13  C   UNL     1       5.417   4.425  14.757  0.00  0.00    +0.000 A 
ATOM     14  C   UNL     1       6.759   4.795  14.716  0.00  0.00    +0.000 A 
ATOM     15 CL   UNL     1       7.530   5.060  13.201  0.00  0.00    +0.000 Cl
ATOM     16  C   UNL     1       7.484   4.933  15.897  0.00  0.00    +0.000 A 
ATOM     17  C   UNL     1       6.864   4.690  17.126  0.00  0.00    +0.000 A 
ENDBRANCH   9  11
ENDBRANCH   5   9
BRANCH   4  18
ATOM     18  C   UNL     1       3.069   6.483  19.289  0.00  0.00    +0.000 C 
BRANCH  18  19
ATOM     19  N   UNL     1       2.002   7.484  19.338  0.00  0.00    +0.000 NA
ATOM     20  C   UNL     1       2.089   8.605  18.384  0.00  0.00    +0.000 C 
ATOM     21  C   UNL     1       0.796   9.473  18.379  0.00  0.00    +0.000 C 
ATOM     22  N   UNL     1       0.571   9.967  19.749  0.00  0.00    +0.000 N 
ATOM     23  C   UNL     1      -0.428  10.938  19.897  0.00  0.00    +0.000 A 
ATOM     24  C   UNL     1      -0.343  11.780  21.013  0.00  0.00    +0.000 A 
ATOM     25  C   UNL     1      -1.290  12.774  21.213  0.00  0.00    +0.000 A 
ATOM     26  C   UNL     1      -2.319  12.912  20.297  0.00  0.00    +0.000 A 
ATOM     27  C   UNL     1      -2.337  12.047  19.207  0.00  0.00    +0.000 A 
ATOM     28  N   UNL     1      -1.415  11.082  18.990  0.00  0.00    +0.000 NA
ATOM     29  C   UNL     1       0.421   8.852  20.705  0.00  0.00    +0.000 C 
ATOM     30  C   UNL     1       1.708   7.988  20.692  0.00  0.00    +0.000 C 
ENDBRANCH  18  19
ENDBRANCH   4  18
TORSDOF 5
ENDMDL
MODEL 2
REMARK VINA RESULT:      -8.3      0.739      1.186
REMARK  Name = 
REMARK  5 active torsions:
REMARK  status: ('A' for Active; 'I' for Inactive)
REMARK    1  A    between atoms: N_1  and  C_2
REMARK    2  A    between atoms: C_5  and  C_6
REMARK    3  A    between atoms: C_6  and  N_7
REMARK    4  A    between atoms: C_19  and  C_20
REMARK    5  A    between atoms: C_20  and  C_22
REMARK                            x       y       z     vdW  Elec       q    Type
REMARK                         _______ _______ _______ _____ _____    ______ ____
ROOT
ATOM      1  C   UNL     1       3.087   2.738  18.241  0.00  0.00    +0.000 A 
ATOM      2  S   UNL     1       1.410   2.963  18.467  0.00  0.00    +0.000 S 
ATOM      3  C   UNL     1       1.555   4.650  18.386  0.00  0.00    +0.000 A 
ATOM      4  C   UNL     1       2.845   5.078  18.124  0.00  0.00    +0.000 A 
ATOM      5  C   UNL     1       3.773   3.945  18.153  0.00  0.00    +0.000 A 
ENDROOT
BRANCH   1   6
ATOM      6  N   UNL     1       3.568   1.477  18.207  0.00  0.00    +0.000 N 
ATOM      7  H   UNL     1       3.317   0.821  18.943  0.00  0.00    +0.000 HD
ATOM      8  H   UNL     1       3.996   1.053  17.390  0.00  0.00    +0.000 HD
ENDBRANCH   1   6
BRANCH   5   9
ATOM      9  C   UNL     1       5.234   4.060  18.065  0.00  0.00    +0.000 C 
ATOM     10  O   UNL     1       5.948   3.914  19.056  0.00  0.00    +0.000 OA
BRANCH   9  11
ATOM     11  C   UNL     1       5.912   4.305  16.749  0.00  0.00    +0.000 A 
ATOM     12  C   UNL     1       7.111   5.024  16.625  0.00  0.00    +0.000 A 
ATOM     13  C   UNL     1       7.669   5.263  15.362  0.00  0.00    +0.000 A 
ATOM     14  C   UNL     1       7.020   4.807  14.217  0.00  0.00    +0.000 A 
ATOM     15 CL   UNL     1       7.678   5.149  12.665  0.00  0.00    +0.000 Cl
ATOM     16  C   UNL     1       5.829   4.092  14.323  0.00  0.00    +0.000 A 
ATOM     17  C   UNL     1       5.280   3.840  15.584  0.00  0.00    +0.000 A 
ENDBRANCH   9  11
ENDBRANCH   5   9
BRANCH   4  18
ATOM     18  C   UNL     1       3.206   6.539  17.998  0.00  0.00    +0.000 C 
BRANCH  18  19
ATOM     19  N   UNL     1       2.194   7.490  18.463  0.00  0.00    +0.000 NA
ATOM     20  C   UNL     1       2.142   8.798  17.785  0.00  0.00    +0.000 C 
ATOM     21  C   UNL     1       0.896   9.630  18.210  0.00  0.00    +0.000 C 
ATOM     22  N   UNL     1       0.933   9.797  19.674  0.00  0.00    +0.000 N 
ATOM     23  C   UNL     1       0.007  10.698  20.214  0.00  0.00    +0.000 A 
ATOM     24  C   UNL     1       0.315  11.266  21.457  0.00  0.00    +0.000 A 
ATOM     25  C   UNL     1      -0.551  12.178  22.043  0.00  0.00    +0.000 A 
ATOM     26  C   UNL     1      -1.723  12.507  21.384  0.00  0.00    +0.000 A 
ATOM     27  C   UNL     1      -1.961  11.912  20.148  0.00  0.00    +0.000 A 
ATOM     28  N   UNL     1      -1.122  11.032  19.557  0.00  0.00    +0.000 NA
ATOM     29  C   UNL     1       0.925   8.493  20.365  0.00  0.00    +0.000 C 
ATOM     30  C   UNL     1       2.162   7.670  19.925  0.00  0.00    +0.000 C 
ENDBRANCH  18  19
ENDBRANCH   4  18
TORSDOF 5
ENDMDL
MODEL 3
REMARK VINA RESULT:      -8.1      1.082      1.146
REMARK  Name = 
REMARK  5 active torsions:
REMARK  status: ('A' for Active; 'I' for Inactive)
REMARK    1  A    between atoms: N_1  and  C_2
REMARK    2  A    between atoms: C_5  and  C_6
REMARK    3  A    between atoms: C_6  and  N_7
REMARK    4  A    between atoms: C_19  and  C_20
REMARK    5  A    between atoms: C_20  and  C_22
REMARK                            x       y       z     vdW  Elec       q    Type
REMARK                         _______ _______ _______ _____ _____    ______ ____
ROOT
ATOM      1  C   UNL     1       4.190   3.034  19.626  0.00  0.00    +0.000 A 
ATOM      2  S   UNL     1       2.586   3.074  20.210  0.00  0.00    +0.000 S 
ATOM      3  C   UNL     1       2.275   4.561  19.459  0.00  0.00    +0.000 A 
ATOM      4  C   UNL     1       3.337   5.027  18.704  0.00  0.00    +0.000 A 
ATOM      5  C   UNL     1       4.512   4.174  18.898  0.00  0.00    +0.000 A 
ENDROOT
BRANCH   1   6
ATOM      6  N   UNL     1       4.962   1.972  19.939  0.00  0.00    +0.000 N 
ATOM      7  H   UNL     1       5.462   1.477  19.204  0.00  0.00    +0.000 HD
ATOM      8  H   UNL     1       5.260   1.744  20.881  0.00  0.00    +0.000 HD
ENDBRANCH   1   6
BRANCH   5   9
ATOM      9  C   UNL     1       5.851   4.464  18.367  0.00  0.00    +0.000 C 
ATOM     10  O   UNL     1       6.810   4.650  19.114  0.00  0.00    +0.000 OA
BRANCH   9  11
ATOM     11  C   UNL     1       6.107   4.485  16.888  0.00  0.00    +0.000 A 
ATOM     12  C   UNL     1       5.346   3.748  15.967  0.00  0.00    +0.000 A 
ATOM     13  C   UNL     1       5.667   3.770  14.603  0.00  0.00    +0.000 A 
ATOM     14  C   UNL     1       6.761   4.506  14.156  0.00  0.00    +0.000 A 
ATOM     15 CL   UNL     1       7.185   4.487  12.490  0.00  0.00    +0.000 Cl
ATOM     16  C   UNL     1       7.526   5.242  15.059  0.00  0.00    +0.000 A 
ATOM     17  C   UNL     1       7.198   5.234  16.417  0.00  0.00    +0.000 A 
ENDBRANCH   9  11
ENDBRANCH   5   9
BRANCH   4  18
ATOM     18  C   UNL     1       3.280   6.327  17.937  0.00  0.00    +0.000 C 
BRANCH  18  19
ATOM     19  N   UNL     1       2.285   7.298  18.398  0.00  0.00    +0.000 NA
ATOM     20  C   UNL     1       2.191   8.566  17.652  0.00  0.00    +0.000 C 
ATOM     21  C   UNL     1       0.961   9.414  18.090  0.00  0.00    +0.000 C 
ATOM     22  N   UNL     1       1.067   9.663  19.539  0.00  0.00    +0.000 N 
ATOM     23  C   UNL     1       0.162  10.588  20.073  0.00  0.00    +0.000 A 
ATOM     24  C   UNL     1       0.525  11.225  21.266  0.00  0.00    +0.000 A 
ATOM     25  C   UNL     1      -0.319  12.164  21.843  0.00  0.00    +0.000 A 
ATOM     26  C   UNL     1      -1.523  12.451  21.223  0.00  0.00    +0.000 A 
ATOM     27  C   UNL     1      -1.816  11.787  20.035  0.00  0.00    +0.000 A 
ATOM     28  N   UNL     1      -1.000  10.880  19.454  0.00  0.00    +0.000 NA
ATOM     29  C   UNL     1       1.101   8.399  20.300  0.00  0.00    +0.000 C 
ATOM     30  C   UNL     1       2.322   7.558  19.848  0.00  0.00    +0.000 C 
ENDBRANCH  18  19
ENDBRANCH   4  18
TORSDOF 5
ENDMDL
MODEL 4
REMARK VINA RESULT:      -8.1      1.753      1.983
REMARK  Name = 
REMARK  5 active torsions:
REMARK  status: ('A' for Active; 'I' for Inactive)
REMARK    1  A    between atoms: N_1  and  C_2
REMARK    2  A    between atoms: C_5  and  C_6
REMARK    3  A    between atoms: C_6  and  N_7
REMARK    4  A    between atoms: C_19  and  C_20
REMARK    5  A    between atoms: C_20  and  C_22
REMARK                            x       y       z     vdW  Elec       q    Type
REMARK                         _______ _______ _______ _____ _____    ______ ____
ROOT
ATOM      1  C   UNL     1       2.067   2.786  19.317  0.00  0.00    +0.000 A 
ATOM      2  S   UNL     1       1.291   2.967  20.827  0.00  0.00    +0.000 S 
ATOM      3  C   UNL     1       1.722   4.602  20.933  0.00  0.00    +0.000 A 
ATOM      4  C   UNL     1       2.397   5.065  19.816  0.00  0.00    +0.000 A 
ATOM      5  C   UNL     1       2.700   3.956  18.909  0.00  0.00    +0.000 A 
ENDROOT
BRANCH   1   6
ATOM      6  N   UNL     1       2.024   1.580  18.713  0.00  0.00    +0.000 N 
ATOM      7  H   UNL     1       1.215   0.978  18.845  0.00  0.00    +0.000 HD
ATOM      8  H   UNL     1       2.641   1.300  17.958  0.00  0.00    +0.000 HD
ENDBRANCH   1   6
BRANCH   5   9
ATOM      9  C   UNL     1       3.535   4.065  17.705  0.00  0.00    +0.000 C 
ATOM     10  O   UNL     1       3.266   3.440  16.681  0.00  0.00    +0.000 OA
BRANCH   9  11
ATOM     11  C   UNL     1       4.716   4.990  17.666  0.00  0.00    +0.000 A 
ATOM     12  C   UNL     1       5.842   4.832  18.489  0.00  0.00    +0.000 A 
ATOM     13  C   UNL     1       6.892   5.759  18.442  0.00  0.00    +0.000 A 
ATOM     14  C   UNL     1       6.811   6.860  17.593  0.00  0.00    +0.000 A 
ATOM     15 CL   UNL     1       8.076   8.025  17.578  0.00  0.00    +0.000 Cl
ATOM     16  C   UNL     1       5.699   7.031  16.771  0.00  0.00    +0.000 A 
ATOM     17  C   UNL     1       4.659   6.098  16.805  0.00  0.00    +0.000 A 
ENDBRANCH   9  11
ENDBRANCH   5   9
BRANCH   4  18
ATOM     18  C   UNL     1       2.868   6.494  19.686  0.00  0.00    +0.000 C 
BRANCH  18  19
ATOM     19  N   UNL     1       1.819   7.515  19.686  0.00  0.00    +0.000 NA
ATOM     20  C   UNL     1       1.934   8.595  18.689  0.00  0.00    +0.000 C 
ATOM     21  C   UNL     1       0.658   9.486  18.640  0.00  0.00    +0.000 C 
ATOM     22  N   UNL     1       0.431  10.038  19.987  0.00  0.00    +0.000 N 
ATOM     23  C   UNL     1      -0.550  11.033  20.088  0.00  0.00    +0.000 A 
ATOM     24  C   UNL     1      -0.458  11.916  21.171  0.00  0.00    +0.000 A 
ATOM     25  C   UNL     1      -1.388  12.934  21.323  0.00  0.00    +0.000 A 
ATOM     26  C   UNL     1      -2.407  13.055  20.394  0.00  0.00    +0.000 A 
ATOM     27  C   UNL     1      -2.433  12.148  19.339  0.00  0.00    +0.000 A 
ATOM     28  N   UNL     1      -1.527  11.159  19.168  0.00  0.00    +0.000 NA
ATOM     29  C   UNL     1       0.254   8.964  20.984  0.00  0.00    +0.000 C 
ATOM     30  C   UNL     1       1.524   8.077  21.017  0.00  0.00    +0.000 C 
ENDBRANCH  18  19
ENDBRANCH   4  18
TORSDOF 5
ENDMDL
MODEL 5
REMARK VINA RESULT:      -7.8      1.207      1.915
REMARK  Name = 
REMARK  5 active torsions:
REMARK  status: ('A' for Active; 'I' for Inactive)
REMARK    1  A    between atoms: N_1  and  C_2
REMARK    2  A    between atoms: C_5  and  C_6
REMARK    3  A    between atoms: C_6  and  N_7
REMARK    4  A    between atoms: C_19  and  C_20
REMARK    5  A    between atoms: C_20  and  C_22
REMARK                            x       y       z     vdW  Elec       q    Type
REMARK                         _______ _______ _______ _____ _____    ______ ____
ROOT
ATOM      1  C   UNL     1       4.107   3.223  19.738  0.00  0.00    +0.000 A 
ATOM      2  S   UNL     1       2.485   3.250  20.270  0.00  0.00    +0.000 S 
ATOM      3  C   UNL     1       2.189   4.740  19.518  0.00  0.00    +0.000 A 
ATOM      4  C   UNL     1       3.273   5.216  18.800  0.00  0.00    +0.000 A 
ATOM      5  C   UNL     1       4.446   4.370  19.028  0.00  0.00    +0.000 A 
ENDROOT
BRANCH   1   6
ATOM      6  N   UNL     1       4.875   2.163  20.070  0.00  0.00    +0.000 N 
ATOM      7  H   UNL     1       4.516   1.220  19.943  0.00  0.00    +0.000 HD
ATOM      8  H   UNL     1       5.873   2.217  20.244  0.00  0.00    +0.000 HD
ENDBRANCH   1   6
BRANCH   5   9
ATOM      9  C   UNL     1       5.800   4.669  18.542  0.00  0.00    +0.000 C 
ATOM     10  O   UNL     1       6.704   4.977  19.316  0.00  0.00    +0.000 OA
BRANCH   9  11
ATOM     11  C   UNL     1       6.140   4.555  17.085  0.00  0.00    +0.000 A 
ATOM     12  C   UNL     1       7.229   5.217  16.497  0.00  0.00    +0.000 A 
ATOM     13  C   UNL     1       7.465   5.110  15.120  0.00  0.00    +0.000 A 
ATOM     14  C   UNL     1       6.603   4.365  14.321  0.00  0.00    +0.000 A 
ATOM     15 CL   UNL     1       6.864   4.281  12.623  0.00  0.00    +0.000 Cl
ATOM     16  C   UNL     1       5.517   3.702  14.890  0.00  0.00    +0.000 A 
ATOM     17  C   UNL     1       5.290   3.795  16.265  0.00  0.00    +0.000 A 
ENDBRANCH   9  11
ENDBRANCH   5   9
BRANCH   4  18
ATOM     18  C   UNL     1       3.233   6.520  18.040  0.00  0.00    +0.000 C 
BRANCH  18  19
ATOM     19  N   UNL     1       2.611   7.648  18.736  0.00  0.00    +0.000 NA
ATOM     20  C   UNL     1       1.864   7.345  19.970  0.00  0.00    +0.000 C 
ATOM     21  C   UNL     1       1.442   8.635  20.733  0.00  0.00    +0.000 C 
ATOM     22  N   UNL     1       0.636   9.465  19.821  0.00  0.00    +0.000 N 
ATOM     23  C   UNL     1      -0.010  10.566  20.398  0.00  0.00    +0.000 A 
ATOM     24  C   UNL     1      -1.142  11.063  19.741  0.00  0.00    +0.000 A 
ATOM     25  C   UNL     1      -1.838  12.142  20.266  0.00  0.00    +0.000 A 
ATOM     26  C   UNL     1      -1.389  12.720  21.441  0.00  0.00    +0.000 A 
ATOM     27  C   UNL     1      -0.263  12.170  22.046  0.00  0.00    +0.000 A 
ATOM     28  N   UNL     1       0.419  11.111  21.555  0.00  0.00    +0.000 NA
ATOM     29  C   UNL     1       1.396   9.826  18.608  0.00  0.00    +0.000 C 
ATOM     30  C   UNL     1       1.820   8.534  17.864  0.00  0.00    +0.000 C 
ENDBRANCH  18  19
ENDBRANCH   4  18
TORSDOF 5
ENDMDL
MODEL 6
REMARK VINA RESULT:      -7.8      4.913     10.188
REMARK  Name = 
REMARK  5 active torsions:
REMARK  status: ('A' for Active; 'I' for Inactive)
REMARK    1  A    between atoms: N_1  and  C_2
REMARK    2  A    between atoms: C_5  and  C_6
REMARK    3  A    between atoms: C_6  and  N_7
REMARK    4  A    between atoms: C_19  and  C_20
REMARK    5  A    between atoms: C_20  and  C_22
REMARK                            x       y       z     vdW  Elec       q    Type
REMARK                         _______ _______ _______ _____ _____    ______ ____
ROOT
ATOM      1  C   UNL     1      -2.972  11.471  17.895  0.00  0.00    +0.000 A 
ATOM      2  S   UNL     1      -2.799  10.195  16.774  0.00  0.00    +0.000 S 
ATOM      3  C   UNL     1      -1.243   9.822  17.332  0.00  0.00    +0.000 A 
ATOM      4  C   UNL     1      -0.845  10.598  18.408  0.00  0.00    +0.000 A 
ATOM      5  C   UNL     1      -1.828  11.653  18.666  0.00  0.00    +0.000 A 
ENDROOT
BRANCH   1   6
ATOM      6  N   UNL     1      -4.128  12.169  17.902  0.00  0.00    +0.000 N 
ATOM      7  H   UNL     1      -4.148  13.108  18.290  0.00  0.00    +0.000 HD
ATOM      8  H   UNL     1      -4.947  11.918  17.357  0.00  0.00    +0.000 HD
ENDBRANCH   1   6
BRANCH   5   9
ATOM      9  C   UNL     1      -1.650  12.742  19.634  0.00  0.00    +0.000 C 
ATOM     10  O   UNL     1      -1.033  13.765  19.341  0.00  0.00    +0.000 OA
BRANCH   9  11
ATOM     11  C   UNL     1      -2.265  12.668  21.002  0.00  0.00    +0.000 A 
ATOM     12  C   UNL     1      -1.680  11.969  22.069  0.00  0.00    +0.000 A 
ATOM     13  C   UNL     1      -2.329  11.894  23.309  0.00  0.00    +0.000 A 
ATOM     14  C   UNL     1      -3.574  12.493  23.481  0.00  0.00    +0.000 A 
ATOM     15 CL   UNL     1      -4.393  12.353  24.987  0.00  0.00    +0.000 Cl
ATOM     16  C   UNL     1      -4.168  13.190  22.430  0.00  0.00    +0.000 A 
ATOM     17  C   UNL     1      -3.514  13.279  21.198  0.00  0.00    +0.000 A 
ENDBRANCH   9  11
ENDBRANCH   5   9
BRANCH   4  18
ATOM     18  C   UNL     1       0.499  10.432  19.075  0.00  0.00    +0.000 C 
BRANCH  18  19
ATOM     19  N   UNL     1       1.005   9.061  19.163  0.00  0.00    +0.000 NA
ATOM     20  C   UNL     1       1.345   8.557  20.506  0.00  0.00    +0.000 C 
ATOM     21  C   UNL     1       1.656   7.031  20.499  0.00  0.00    +0.000 C 
ATOM     22  N   UNL     1       2.760   6.792  19.552  0.00  0.00    +0.000 N 
ATOM     23  C   UNL     1       3.318   5.508  19.569  0.00  0.00    +0.000 A 
ATOM     24  C   UNL     1       4.631   5.373  19.099  0.00  0.00    +0.000 A 
ATOM     25  C   UNL     1       5.251   4.132  19.102  0.00  0.00    +0.000 A 
ATOM     26  C   UNL     1       4.548   3.033  19.567  0.00  0.00    +0.000 A 
ATOM     27  C   UNL     1       3.251   3.241  20.028  0.00  0.00    +0.000 A 
ATOM     28  N   UNL     1       2.637   4.446  20.044  0.00  0.00    +0.000 NA
ATOM     29  C   UNL     1       2.406   7.238  18.190  0.00  0.00    +0.000 C 
ATOM     30  C   UNL     1       2.088   8.754  18.212  0.00  0.00    +0.000 C 
ENDBRANCH  18  19
ENDBRANCH   4  18
TORSDOF 5
ENDMDL
MODEL 7
REMARK VINA RESULT:      -7.8      4.364      9.285
REMARK  Name = 
REMARK  5 active torsions:
REMARK  status: ('A' for Active; 'I' for Inactive)
REMARK    1  A    between atoms: N_1  and  C_2
REMARK    2  A    between atoms: C_5  and  C_6
REMARK    3  A    between atoms: C_6  and  N_7
REMARK    4  A    between atoms: C_19  and  C_20
REMARK    5  A    between atoms: C_20  and  C_22
REMARK                            x       y       z     vdW  Elec       q    Type
REMARK                         _______ _______ _______ _____ _____    ______ ____
ROOT
ATOM      1  C   UNL     1      -0.212  13.641  19.472  0.00  0.00    +0.000 A 
ATOM      2  S   UNL     1       1.402  13.755  20.017  0.00  0.00    +0.000 S 
ATOM      3  C   UNL     1       1.377  12.178  20.638  0.00  0.00    +0.000 A 
ATOM      4  C   UNL     1       0.189  11.511  20.394  0.00  0.00    +0.000 A 
ATOM      5  C   UNL     1      -0.794  12.422  19.803  0.00  0.00    +0.000 A 
ENDROOT
BRANCH   1   6
ATOM      6  N   UNL     1      -0.752  14.703  18.837  0.00  0.00    +0.000 N 
ATOM      7  H   UNL     1      -1.525  15.208  19.265  0.00  0.00    +0.000 HD
ATOM      8  H   UNL     1      -0.316  15.180  18.055  0.00  0.00    +0.000 HD
ENDBRANCH   1   6
BRANCH   5   9
ATOM      9  C   UNL     1      -2.202  12.086  19.557  0.00  0.00    +0.000 C 
ATOM     10  O   UNL     1      -3.075  12.339  20.386  0.00  0.00    +0.000 OA
BRANCH   9  11
ATOM     11  C   UNL     1      -2.634  11.471  18.258  0.00  0.00    +0.000 A 
ATOM     12  C   UNL     1      -1.803  10.643  17.487  0.00  0.00    +0.000 A 
ATOM     13  C   UNL     1      -2.247  10.140  16.256  0.00  0.00    +0.000 A 
ATOM     14  C   UNL     1      -3.509  10.482  15.779  0.00  0.00    +0.000 A 
ATOM     15 CL   UNL     1      -4.029   9.907  14.243  0.00  0.00    +0.000 Cl
ATOM     16  C   UNL     1      -4.345  11.303  16.532  0.00  0.00    +0.000 A 
ATOM     17  C   UNL     1      -3.910  11.792  17.767  0.00  0.00    +0.000 A 
ENDBRANCH   9  11
ENDBRANCH   5   9
BRANCH   4  18
ATOM     18  C   UNL     1      -0.052  10.090  20.846  0.00  0.00    +0.000 C 
BRANCH  18  19
ATOM     19  N   UNL     1       0.641   9.050  20.083  0.00  0.00    +0.000 NA
ATOM     20  C   UNL     1       1.566   8.177  20.828  0.00  0.00    +0.000 C 
ATOM     21  C   UNL     1       2.068   6.982  19.965  0.00  0.00    +0.000 C 
ATOM     22  N   UNL     1       2.715   7.526  18.758  0.00  0.00    +0.000 N 
ATOM     23  C   UNL     1       3.415   6.607  17.966  0.00  0.00    +0.000 A 
ATOM     24  C   UNL     1       4.428   7.111  17.142  0.00  0.00    +0.000 A 
ATOM     25  C   UNL     1       5.171   6.254  16.343  0.00  0.00    +0.000 A 
ATOM     26  C   UNL     1       4.887   4.899  16.369  0.00  0.00    +0.000 A 
ATOM     27  C   UNL     1       3.872   4.466  17.218  0.00  0.00    +0.000 A 
ATOM     28  N   UNL     1       3.148   5.286  18.013  0.00  0.00    +0.000 NA
ATOM     29  C   UNL     1       1.779   8.354  17.973  0.00  0.00    +0.000 C 
ATOM     30  C   UNL     1       1.278   9.533  18.845  0.00  0.00    +0.000 C 
ENDBRANCH  18  19
ENDBRANCH   4  18
TORSDOF 5
ENDMDL
MODEL 8
REMARK VINA RESULT:      -7.7      3.153      4.411
REMARK  Name = 
REMARK  5 active torsions:
REMARK  status: ('A' for Active; 'I' for Inactive)
REMARK    1  A    between atoms: N_1  and  C_2
REMARK    2  A    between atoms: C_5  and  C_6
REMARK    3  A    between atoms: C_6  and  N_7
REMARK    4  A    between atoms: C_19  and  C_20
REMARK    5  A    between atoms: C_20  and  C_22
REMARK                            x       y       z     vdW  Elec       q    Type
REMARK                         _______ _______ _______ _____ _____    ______ ____
ROOT
ATOM      1  C   UNL     1       7.010   5.368  17.826  0.00  0.00    +0.000 A 
ATOM      2  S   UNL     1       7.639   6.955  17.812  0.00  0.00    +0.000 S 
ATOM      3  C   UNL     1       6.131   7.625  17.425  0.00  0.00    +0.000 A 
ATOM      4  C   UNL     1       5.114   6.687  17.362  0.00  0.00    +0.000 A 
ATOM      5  C   UNL     1       5.661   5.334  17.488  0.00  0.00    +0.000 A 
ENDROOT
BRANCH   1   6
ATOM      6  N   UNL     1       7.846   4.348  18.114  0.00  0.00    +0.000 N 
ATOM      7  H   UNL     1       7.675   3.770  18.933  0.00  0.00    +0.000 HD
ATOM      8  H   UNL     1       8.523   3.966  17.461  0.00  0.00    +0.000 HD
ENDBRANCH   1   6
BRANCH   5   9
ATOM      9  C   UNL     1       4.884   4.099  17.314  0.00  0.00    +0.000 C 
ATOM     10  O   UNL     1       5.033   3.383  16.326  0.00  0.00    +0.000 OA
BRANCH   9  11
ATOM     11  C   UNL     1       3.921   3.639  18.369  0.00  0.00    +0.000 A 
ATOM     12  C   UNL     1       2.530   3.789  18.256  0.00  0.00    +0.000 A 
ATOM     13  C   UNL     1       1.685   3.385  19.298  0.00  0.00    +0.000 A 
ATOM     14  C   UNL     1       2.225   2.853  20.466  0.00  0.00    +0.000 A 
ATOM     15 CL   UNL     1       1.189   2.408  21.764  0.00  0.00    +0.000 Cl
ATOM     16  C   UNL     1       3.604   2.698  20.593  0.00  0.00    +0.000 A 
ATOM     17  C   UNL     1       4.446   3.086  19.548  0.00  0.00    +0.000 A 
ENDBRANCH   9  11
ENDBRANCH   5   9
BRANCH   4  18
ATOM     18  C   UNL     1       3.685   7.058  17.045  0.00  0.00    +0.000 C 
BRANCH  18  19
ATOM     19  N   UNL     1       3.013   7.910  18.028  0.00  0.00    +0.000 NA
ATOM     20  C   UNL     1       2.226   7.233  19.075  0.00  0.00    +0.000 C 
ATOM     21  C   UNL     1       1.747   8.220  20.180  0.00  0.00    +0.000 C 
ATOM     22  N   UNL     1       0.958   9.284  19.535  0.00  0.00    +0.000 N 
ATOM     23  C   UNL     1       0.267  10.147  20.395  0.00  0.00    +0.000 A 
ATOM     24  C   UNL     1      -0.850  10.812  19.875  0.00  0.00    +0.000 A 
ATOM     25  C   UNL     1      -1.589  11.670  20.677  0.00  0.00    +0.000 A 
ATOM     26  C   UNL     1      -1.198  11.861  21.992  0.00  0.00    +0.000 A 
ATOM     27  C   UNL     1      -0.084  11.161  22.445  0.00  0.00    +0.000 A 
ATOM     28  N   UNL     1       0.639  10.311  21.681  0.00  0.00    +0.000 NA
ATOM     29  C   UNL     1       1.756  10.009  18.526  0.00  0.00    +0.000 C 
ATOM     30  C   UNL     1       2.236   9.015  17.439  0.00  0.00    +0.000 C 
ENDBRANCH  18  19
ENDBRANCH   4  18
TORSDOF 5
ENDMDL
MODEL 9
REMARK VINA RESULT:      -7.7      1.760      2.042
REMARK  Name = 
REMARK  5 active torsions:
REMARK  status: ('A' for Active; 'I' for Inactive)
REMARK    1  A    between atoms: N_1  and  C_2
REMARK    2  A    between atoms: C_5  and  C_6
REMARK    3  A    between atoms: C_6  and  N_7
REMARK    4  A    between atoms: C_19  and  C_20
REMARK    5  A    between atoms: C_20  and  C_22
REMARK                            x       y       z     vdW  Elec       q    Type
REMARK                         _______ _______ _______ _____ _____    ______ ____
ROOT
ATOM      1  C   UNL     1       2.464   2.495  18.607  0.00  0.00    +0.000 A 
ATOM      2  S   UNL     1       0.774   2.714  18.705  0.00  0.00    +0.000 S 
ATOM      3  C   UNL     1       0.940   4.160  19.574  0.00  0.00    +0.000 A 
ATOM      4  C   UNL     1       2.259   4.544  19.752  0.00  0.00    +0.000 A 
ATOM      5  C   UNL     1       3.163   3.494  19.277  0.00  0.00    +0.000 A 
ENDROOT
BRANCH   1   6
ATOM      6  N   UNL     1       2.936   1.412  17.954  0.00  0.00    +0.000 N 
ATOM      7  H   UNL     1       3.119   0.553  18.467  0.00  0.00    +0.000 HD
ATOM      8  H   UNL     1       2.927   1.309  16.945  0.00  0.00    +0.000 HD
ENDBRANCH   1   6
BRANCH   5   9
ATOM      9  C   UNL     1       4.621   3.506  19.452  0.00  0.00    +0.000 C 
ATOM     10  O   UNL     1       5.204   2.591  20.031  0.00  0.00    +0.000 OA
BRANCH   9  11
ATOM     11  C   UNL     1       5.459   4.612  18.879  0.00  0.00    +0.000 A 
ATOM     12  C   UNL     1       6.696   4.996  19.418  0.00  0.00    +0.000 A 
ATOM     13  C   UNL     1       7.408   6.070  18.868  0.00  0.00    +0.000 A 
ATOM     14  C   UNL     1       6.876   6.782  17.796  0.00  0.00    +0.000 A 
ATOM     15 CL   UNL     1       7.726   8.135  17.158  0.00  0.00    +0.000 Cl
ATOM     16  C   UNL     1       5.647   6.414  17.251  0.00  0.00    +0.000 A 
ATOM     17  C   UNL     1       4.945   5.332  17.788  0.00  0.00    +0.000 A 
ENDBRANCH   9  11
ENDBRANCH   5   9
BRANCH   4  18
ATOM     18  C   UNL     1       2.644   5.805  20.487  0.00  0.00    +0.000 C 
BRANCH  18  19
ATOM     19  N   UNL     1       1.885   7.008  20.136  0.00  0.00    +0.000 NA
ATOM     20  C   UNL     1       2.361   7.786  18.978  0.00  0.00    +0.000 C 
ATOM     21  C   UNL     1       1.357   8.903  18.569  0.00  0.00    +0.000 C 
ATOM     22  N   UNL     1       1.141   9.776  19.737  0.00  0.00    +0.000 N 
ATOM     23  C   UNL     1       0.431  10.960  19.498  0.00  0.00    +0.000 A 
ATOM     24  C   UNL     1       0.631  12.019  20.392  0.00  0.00    +0.000 A 
ATOM     25  C   UNL     1      -0.029  13.225  20.207  0.00  0.00    +0.000 A 
ATOM     26  C   UNL     1      -0.890  13.359  19.131  0.00  0.00    +0.000 A 
ATOM     27  C   UNL     1      -1.034  12.269  18.277  0.00  0.00    +0.000 A 
ATOM     28  N   UNL     1      -0.389  11.091  18.436  0.00  0.00    +0.000 NA
ATOM     29  C   UNL     1       0.607   9.017  20.884  0.00  0.00    +0.000 C 
ATOM     30  C   UNL     1       1.609   7.901  21.274  0.00  0.00    +0.000 C 
ENDBRANCH  18  19
ENDBRANCH   4  18
TORSDOF 5
ENDMDL
