MODEL 1
REMARK VINA RESULT:      -6.4      0.000      0.000
REMARK  Name = 
REMARK  9 active torsions:
REMARK  status: ('A' for Active; 'I' for Inactive)
REMARK    1  A    between atoms: C_1  and  O_2
REMARK    2  A    between atoms: O_2  and  C_3
REMARK    3  A    between atoms: C_10  and  O_11
REMARK    4  A    between atoms: O_11  and  C_12
REMARK    5  A    between atoms: C_13  and  O_14
REMARK    6  A    between atoms: O_14  and  C_15
REMARK    7  A    between atoms: C_20  and  O_21
REMARK    8  A    between atoms: O_21  and  C_22
REMARK    9  A    between atoms: C_23  and  O_24
REMARK                            x       y       z     vdW  Elec       q    Type
REMARK                         _______ _______ _______ _____ _____    ______ ____
ROOT
ATOM      1  C   UNL     1       0.484  10.886  18.864  0.00  0.00    +0.000 A 
ATOM      2  C   UNL     1      -0.666  10.223  19.275  0.00  0.00    +0.000 A 
ATOM      3  C   UNL     1      -1.887  10.978  19.542  0.00  0.00    +0.000 A 
ATOM      4  C   UNL     1      -2.253  11.805  20.716  0.00  0.00    +0.000 A 
ATOM      5  C   UNL     1      -3.327  12.783  20.676  0.00  0.00    +0.000 A 
ATOM      6  C   UNL     1      -4.140  12.845  19.576  0.00  0.00    +0.000 A 
ATOM      7  C   UNL     1      -5.462  13.216  19.785  0.00  0.00    +0.000 A 
ATOM      8  C   UNL     1      -6.204  12.082  19.995  0.00  0.00    +0.000 A 
ATOM      9  C   UNL     1      -6.207  11.259  18.901  0.00  0.00    +0.000 A 
ATOM     10  C   UNL     1      -4.958  11.194  18.176  0.00  0.00    +0.000 A 
ATOM     11  C   UNL     1      -3.766  11.994  18.549  0.00  0.00    +0.000 A 
ATOM     12  C   UNL     1      -2.260  11.742  18.504  0.00  0.00    +0.000 A 
ATOM     13  C   UNL     1      -1.051  12.602  18.294  0.00  0.00    +0.000 A 
ATOM     14  C   UNL     1       0.264  12.222  18.779  0.00  0.00    +0.000 A 
ATOM     15  C   UNL     1      -3.683  13.626  21.885  0.00  0.00    +0.000 C 
ATOM     16  C   UNL     1      -3.063  12.948  23.126  0.00  0.00    +0.000 C 
ATOM     17  C   UNL     1      -3.503  13.586  24.427  0.00  0.00    +0.000 C 
ATOM     18  C   UNL     1      -2.712  14.797  24.882  0.00  0.00    +0.000 C 
ATOM     19  C   UNL     1      -1.346  15.022  24.245  0.00  0.00    +0.000 C 
ATOM     20  C   UNL     1      -0.979  14.159  23.040  0.00  0.00    +0.000 C 
ATOM     21  N   UNL     1      -1.611  12.823  23.042  0.00  0.00    +0.000 NA
ATOM     22  C   UNL     1      -1.243  12.046  21.834  0.00  0.00    +0.000 C 
ENDROOT
BRANCH   1  24
ATOM     23  C   UNL     1       1.753   9.116  17.830  0.00  0.00    +0.000 C 
ATOM     24  O   UNL     1       1.690  10.264  18.711  0.00  0.00    +0.000 OA
ENDBRANCH   1  24
BRANCH   8  25
ATOM     25  O   UNL     1      -6.281  11.634  21.306  0.00  0.00    +0.000 OA
ATOM     26  C   UNL     1      -7.455  11.972  22.066  0.00  0.00    +0.000 C 
ENDBRANCH   8  25
BRANCH   9  27
ATOM     27  O   UNL     1      -7.155  10.281  18.780  0.00  0.00    +0.000 OA
ATOM     28  C   UNL     1      -6.817   9.068  19.468  0.00  0.00    +0.000 C 
ENDBRANCH   9  27
BRANCH  14  29
ATOM     29  O   UNL     1       1.055  13.069  19.561  0.00  0.00    +0.000 OA
ATOM     30  C   UNL     1       0.610  14.481  19.622  0.00  0.00    +0.000 C 
ENDBRANCH  14  29
BRANCH  15  31
ATOM     31  O   UNL     1      -3.357  14.984  21.666  0.00  0.00    +0.000 OA
ATOM     32  H   UNL     1      -3.938  15.532  22.256  0.00  0.00    +0.000 HD
ENDBRANCH  15  31
TORSDOF 5
ENDMDL
MODEL 2
REMARK VINA RESULT:      -6.0      1.166      1.388
REMARK  Name = 
REMARK  9 active torsions:
REMARK  status: ('A' for Active; 'I' for Inactive)
REMARK    1  A    between atoms: C_1  and  O_2
REMARK    2  A    between atoms: O_2  and  C_3
REMARK    3  A    between atoms: C_10  and  O_11
REMARK    4  A    between atoms: O_11  and  C_12
REMARK    5  A    between atoms: C_13  and  O_14
REMARK    6  A    between atoms: O_14  and  C_15
REMARK    7  A    between atoms: C_20  and  O_21
REMARK    8  A    between atoms: O_21  and  C_22
REMARK    9  A    between atoms: C_23  and  O_24
REMARK                            x       y       z     vdW  Elec       q    Type
REMARK                         _______ _______ _______ _____ _____    ______ ____
ROOT
ATOM      1  C   UNL     1       0.402  11.343  19.147  0.00  0.00    +0.000 A 
ATOM      2  C   UNL     1      -0.611  10.780  19.913  0.00  0.00    +0.000 A 
ATOM      3  C   UNL     1      -1.749  11.594  20.331  0.00  0.00    +0.000 A 
ATOM      4  C   UNL     1      -1.845  12.605  21.410  0.00  0.00    +0.000 A 
ATOM      5  C   UNL     1      -2.915  13.588  21.464  0.00  0.00    +0.000 A 
ATOM      6  C   UNL     1      -3.962  13.492  20.586  0.00  0.00    +0.000 A 
ATOM      7  C   UNL     1      -5.205  13.920  21.033  0.00  0.00    +0.000 A 
ATOM      8  C   UNL     1      -5.859  12.851  21.587  0.00  0.00    +0.000 A 
ATOM      9  C   UNL     1      -6.103  11.864  20.669  0.00  0.00    +0.000 A 
ATOM     10  C   UNL     1      -5.055  11.657  19.695  0.00  0.00    +0.000 A 
ATOM     11  C   UNL     1      -3.823  12.480  19.650  0.00  0.00    +0.000 A 
ATOM     12  C   UNL     1      -2.364  12.191  19.299  0.00  0.00    +0.000 A 
ATOM     13  C   UNL     1      -1.250  12.979  18.680  0.00  0.00    +0.000 A 
ATOM     14  C   UNL     1       0.148  12.653  18.902  0.00  0.00    +0.000 A 
ATOM     15  C   UNL     1      -2.994  14.621  22.571  0.00  0.00    +0.000 C 
ATOM     16  C   UNL     1      -2.093  14.135  23.727  0.00  0.00    +0.000 C 
ATOM     17  C   UNL     1      -2.229  14.981  24.975  0.00  0.00    +0.000 C 
ATOM     18  C   UNL     1      -1.373  16.232  25.035  0.00  0.00    +0.000 C 
ATOM     19  C   UNL     1      -0.196  16.322  24.072  0.00  0.00    +0.000 C 
ATOM     20  C   UNL     1      -0.105  15.270  22.969  0.00  0.00    +0.000 C 
ATOM     21  N   UNL     1      -0.698  13.966  23.330  0.00  0.00    +0.000 NA
ATOM     22  C   UNL     1      -0.608  12.999  22.211  0.00  0.00    +0.000 C 
ENDROOT
BRANCH   1  24
ATOM     23  C   UNL     1       1.465   9.248  18.603  0.00  0.00    +0.000 C 
ATOM     24  O   UNL     1       1.549  10.678  18.821  0.00  0.00    +0.000 OA
ENDBRANCH   1  24
BRANCH   8  25
ATOM     25  O   UNL     1      -5.624  12.619  22.935  0.00  0.00    +0.000 OA
ATOM     26  C   UNL     1      -6.650  12.990  23.872  0.00  0.00    +0.000 C 
ENDBRANCH   8  25
BRANCH   9  27
ATOM     27  O   UNL     1      -7.039  10.900  20.929  0.00  0.00    +0.000 OA
ATOM     28  C   UNL     1      -7.195   9.953  19.863  0.00  0.00    +0.000 C 
ENDBRANCH   9  27
BRANCH  14  29
ATOM     29  O   UNL     1       1.085  13.596  19.334  0.00  0.00    +0.000 OA
ATOM     30  C   UNL     1       0.648  15.010  19.259  0.00  0.00    +0.000 C 
ENDBRANCH  14  29
BRANCH  15  31
ATOM     31  O   UNL     1      -2.749  15.918  22.068  0.00  0.00    +0.000 OA
ATOM     32  H   UNL     1      -2.083  15.837  21.336  0.00  0.00    +0.000 HD
ENDBRANCH  15  31
TORSDOF 5
ENDMDL
MODEL 3
REMARK VINA RESULT:      -5.8      2.896      5.309
REMARK  Name = 
REMARK  9 active torsions:
REMARK  status: ('A' for Active; 'I' for Inactive)
REMARK    1  A    between atoms: C_1  and  O_2
REMARK    2  A    between atoms: O_2  and  C_3
REMARK    3  A    between atoms: C_10  and  O_11
REMARK    4  A    between atoms: O_11  and  C_12
REMARK    5  A    between atoms: C_13  and  O_14
REMARK    6  A    between atoms: O_14  and  C_15
REMARK    7  A    between atoms: C_20  and  O_21
REMARK    8  A    between atoms: O_21  and  C_22
REMARK    9  A    between atoms: C_23  and  O_24
REMARK                            x       y       z     vdW  Elec       q    Type
REMARK                         _______ _______ _______ _____ _____    ______ ____
ROOT
ATOM      1  C   UNL     1       2.843  15.798  20.159  0.00  0.00    +0.000 A 
ATOM      2  C   UNL     1       3.044  14.490  20.579  0.00  0.00    +0.000 A 
ATOM      3  C   UNL     1       2.034  13.471  20.305  0.00  0.00    +0.000 A 
ATOM      4  C   UNL     1       0.738  13.216  20.975  0.00  0.00    +0.000 A 
ATOM      5  C   UNL     1      -0.314  12.422  20.363  0.00  0.00    +0.000 A 
ATOM      6  C   UNL     1      -0.058  11.750  19.198  0.00  0.00    +0.000 A 
ATOM      7  C   UNL     1      -0.722  10.545  19.002  0.00  0.00    +0.000 A 
ATOM      8  C   UNL     1       0.058   9.534  19.499  0.00  0.00    +0.000 A 
ATOM      9  C   UNL     1       1.250   9.426  18.831  0.00  0.00    +0.000 A 
ATOM     10  C   UNL     1       1.845  10.681  18.429  0.00  0.00    +0.000 A 
ATOM     11  C   UNL     1       1.199  11.994  18.671  0.00  0.00    +0.000 A 
ATOM     12  C   UNL     1       1.723  13.391  19.002  0.00  0.00    +0.000 A 
ATOM     13  C   UNL     1       1.274  14.786  18.697  0.00  0.00    +0.000 A 
ATOM     14  C   UNL     1       1.652  15.921  19.522  0.00  0.00    +0.000 A 
ATOM     15  C   UNL     1      -1.639  12.178  21.061  0.00  0.00    +0.000 C 
ATOM     16  C   UNL     1      -1.443  12.501  22.558  0.00  0.00    +0.000 C 
ATOM     17  C   UNL     1      -2.639  12.116  23.403  0.00  0.00    +0.000 C 
ATOM     18  C   UNL     1      -3.758  13.137  23.485  0.00  0.00    +0.000 C 
ATOM     19  C   UNL     1      -3.435  14.567  23.072  0.00  0.00    +0.000 C 
ATOM     20  C   UNL     1      -2.093  14.817  22.387  0.00  0.00    +0.000 C 
ATOM     21  N   UNL     1      -1.026  13.880  22.795  0.00  0.00    +0.000 NA
ATOM     22  C   UNL     1       0.241  14.151  22.074  0.00  0.00    +0.000 C 
ENDROOT
BRANCH   1  24
ATOM     23  C   UNL     1       5.001  16.837  19.879  0.00  0.00    +0.000 C 
ATOM     24  O   UNL     1       3.684  16.824  20.483  0.00  0.00    +0.000 OA
ENDBRANCH   1  24
BRANCH   8  25
ATOM     25  O   UNL     1      -0.110   9.233  20.843  0.00  0.00    +0.000 OA
ATOM     26  C   UNL     1       1.027   9.379  21.713  0.00  0.00    +0.000 C 
ENDBRANCH   8  25
BRANCH   9  27
ATOM     27  O   UNL     1       1.992   8.281  18.931  0.00  0.00    +0.000 OA
ATOM     28  C   UNL     1       2.880   8.078  17.823  0.00  0.00    +0.000 C 
ENDBRANCH   9  27
BRANCH  14  29
ATOM     29  O   UNL     1       0.718  16.823  20.041  0.00  0.00    +0.000 OA
ATOM     30  C   UNL     1      -0.652  16.713  19.486  0.00  0.00    +0.000 C 
ENDBRANCH  14  29
BRANCH  15  31
ATOM     31  O   UNL     1      -2.690  12.844  20.392  0.00  0.00    +0.000 OA
ATOM     32  H   UNL     1      -3.148  12.180  19.813  0.00  0.00    +0.000 HD
ENDBRANCH  15  31
TORSDOF 5
ENDMDL
MODEL 4
REMARK VINA RESULT:      -5.8     10.106     12.736
REMARK  Name = 
REMARK  9 active torsions:
REMARK  status: ('A' for Active; 'I' for Inactive)
REMARK    1  A    between atoms: C_1  and  O_2
REMARK    2  A    between atoms: O_2  and  C_3
REMARK    3  A    between atoms: C_10  and  O_11
REMARK    4  A    between atoms: O_11  and  C_12
REMARK    5  A    between atoms: C_13  and  O_14
REMARK    6  A    between atoms: O_14  and  C_15
REMARK    7  A    between atoms: C_20  and  O_21
REMARK    8  A    between atoms: O_21  and  C_22
REMARK    9  A    between atoms: C_23  and  O_24
REMARK                            x       y       z     vdW  Elec       q    Type
REMARK                         _______ _______ _______ _____ _____    ______ ____
ROOT
ATOM      1  C   UNL     1       6.260  12.202  24.845  0.00  0.00    +0.000 A 
ATOM      2  C   UNL     1       6.148  12.133  23.463  0.00  0.00    +0.000 A 
ATOM      3  C   UNL     1       7.295  12.457  22.620  0.00  0.00    +0.000 A 
ATOM      4  C   UNL     1       7.859  13.777  22.252  0.00  0.00    +0.000 A 
ATOM      5  C   UNL     1       9.203  13.930  21.722  0.00  0.00    +0.000 A 
ATOM      6  C   UNL     1       9.931  12.816  21.400  0.00  0.00    +0.000 A 
ATOM      7  C   UNL     1      10.820  12.925  20.338  0.00  0.00    +0.000 A 
ATOM      8  C   UNL     1      10.169  12.564  19.187  0.00  0.00    +0.000 A 
ATOM      9  C   UNL     1       9.765  11.255  19.213  0.00  0.00    +0.000 A 
ATOM     10  C   UNL     1       9.301  10.780  20.497  0.00  0.00    +0.000 A 
ATOM     11  C   UNL     1       9.305  11.622  21.718  0.00  0.00    +0.000 A 
ATOM     12  C   UNL     1       8.385  11.739  22.932  0.00  0.00    +0.000 A 
ATOM     13  C   UNL     1       8.582  12.074  24.379  0.00  0.00    +0.000 A 
ATOM     14  C   UNL     1       7.507  12.592  25.208  0.00  0.00    +0.000 A 
ATOM     15  C   UNL     1       9.767  15.290  21.358  0.00  0.00    +0.000 C 
ATOM     16  C   UNL     1       8.579  16.268  21.228  0.00  0.00    +0.000 C 
ATOM     17  C   UNL     1       8.987  17.620  20.681  0.00  0.00    +0.000 C 
ATOM     18  C   UNL     1       9.506  18.624  21.692  0.00  0.00    +0.000 C 
ATOM     19  C   UNL     1       9.206  18.358  23.161  0.00  0.00    +0.000 C 
ATOM     20  C   UNL     1       8.620  16.996  23.527  0.00  0.00    +0.000 C 
ATOM     21  N   UNL     1       7.801  16.387  22.457  0.00  0.00    +0.000 NA
ATOM     22  C   UNL     1       7.287  15.056  22.858  0.00  0.00    +0.000 C 
ENDROOT
BRANCH   1  24
ATOM     23  C   UNL     1       5.373  12.410  27.078  0.00  0.00    +0.000 C 
ATOM     24  O   UNL     1       5.201  12.030  25.690  0.00  0.00    +0.000 OA
ENDBRANCH   1  24
BRANCH   8  25
ATOM     25  O   UNL     1       9.490  13.575  18.523  0.00  0.00    +0.000 OA
ATOM     26  C   UNL     1      10.264  14.525  17.769  0.00  0.00    +0.000 C 
ENDBRANCH   8  25
BRANCH   9  27
ATOM     27  O   UNL     1       9.430  10.617  18.051  0.00  0.00    +0.000 OA
ATOM     28  C   UNL     1       8.544   9.505  18.244  0.00  0.00    +0.000 C 
ENDBRANCH   9  27
BRANCH  14  29
ATOM     29  O   UNL     1       7.636  13.757  25.970  0.00  0.00    +0.000 OA
ATOM     30  C   UNL     1       9.018  14.271  26.123  0.00  0.00    +0.000 C 
ENDBRANCH  14  29
BRANCH  15  31
ATOM     31  O   UNL     1      10.807  15.658  22.242  0.00  0.00    +0.000 OA
ATOM     32  H   UNL     1      11.640  15.221  21.925  0.00  0.00    +0.000 HD
ENDBRANCH  15  31
TORSDOF 5
ENDMDL
MODEL 5
REMARK VINA RESULT:      -5.7      9.976     12.017
REMARK  Name = 
REMARK  9 active torsions:
REMARK  status: ('A' for Active; 'I' for Inactive)
REMARK    1  A    between atoms: C_1  and  O_2
REMARK    2  A    between atoms: O_2  and  C_3
REMARK    3  A    between atoms: C_10  and  O_11
REMARK    4  A    between atoms: O_11  and  C_12
REMARK    5  A    between atoms: C_13  and  O_14
REMARK    6  A    between atoms: O_14  and  C_15
REMARK    7  A    between atoms: C_20  and  O_21
REMARK    8  A    between atoms: O_21  and  C_22
REMARK    9  A    between atoms: C_23  and  O_24
REMARK                            x       y       z     vdW  Elec       q    Type
REMARK                         _______ _______ _______ _____ _____    ______ ____
ROOT
ATOM      1  C   UNL     1       6.053  11.651  25.418  0.00  0.00    +0.000 A 
ATOM      2  C   UNL     1       6.003  11.451  24.044  0.00  0.00    +0.000 A 
ATOM      3  C   UNL     1       6.913  12.182  23.166  0.00  0.00    +0.000 A 
ATOM      4  C   UNL     1       6.859  13.588  22.705  0.00  0.00    +0.000 A 
ATOM      5  C   UNL     1       8.015  14.271  22.148  0.00  0.00    +0.000 A 
ATOM      6  C   UNL     1       9.157  13.560  21.888  0.00  0.00    +0.000 A 
ATOM      7  C   UNL     1       9.929  13.971  20.810  0.00  0.00    +0.000 A 
ATOM      8  C   UNL     1       9.515  13.291  19.694  0.00  0.00    +0.000 A 
ATOM      9  C   UNL     1       9.713  11.940  19.812  0.00  0.00    +0.000 A 
ATOM     10  C   UNL     1       9.479  11.397  21.131  0.00  0.00    +0.000 A 
ATOM     11  C   UNL     1       9.101  12.236  22.293  0.00  0.00    +0.000 A 
ATOM     12  C   UNL     1       8.201  12.024  23.510  0.00  0.00    +0.000 A 
ATOM     13  C   UNL     1       8.211  12.505  24.928  0.00  0.00    +0.000 A 
ATOM     14  C   UNL     1       7.005  12.563  25.736  0.00  0.00    +0.000 A 
ATOM     15  C   UNL     1       7.944  15.714  21.687  0.00  0.00    +0.000 C 
ATOM     16  C   UNL     1       6.453  16.074  21.509  0.00  0.00    +0.000 C 
ATOM     17  C   UNL     1       6.248  17.431  20.869  0.00  0.00    +0.000 C 
ATOM     18  C   UNL     1       6.268  18.624  21.804  0.00  0.00    +0.000 C 
ATOM     19  C   UNL     1       6.089  18.352  23.292  0.00  0.00    +0.000 C 
ATOM     20  C   UNL     1       6.140  16.897  23.754  0.00  0.00    +0.000 C 
ATOM     21  N   UNL     1       5.680  15.927  22.739  0.00  0.00    +0.000 NA
ATOM     22  C   UNL     1       5.784  14.533  23.233  0.00  0.00    +0.000 C 
ENDROOT
BRANCH   1  24
ATOM     23  C   UNL     1       5.671  10.535  27.520  0.00  0.00    +0.000 C 
ATOM     24  O   UNL     1       5.158  11.096  26.287  0.00  0.00    +0.000 OA
ENDBRANCH   1  24
BRANCH   8  25
ATOM     25  O   UNL     1       8.477  13.865  18.975  0.00  0.00    +0.000 OA
ATOM     26  C   UNL     1       8.786  14.981  18.120  0.00  0.00    +0.000 C 
ENDBRANCH   8  25
BRANCH   9  27
ATOM     27  O   UNL     1       9.704  11.145  18.699  0.00  0.00    +0.000 OA
ATOM     28  C   UNL     1      10.685  11.519  17.722  0.00  0.00    +0.000 C 
ENDBRANCH   9  27
BRANCH  14  29
ATOM     29  O   UNL     1       6.608  13.717  26.419  0.00  0.00    +0.000 OA
ATOM     30  C   UNL     1       7.624  14.794  26.497  0.00  0.00    +0.000 C 
ENDBRANCH  14  29
BRANCH  15  31
ATOM     31  O   UNL     1       8.710  16.550  22.530  0.00  0.00    +0.000 OA
ATOM     32  H   UNL     1       8.080  17.053  23.110  0.00  0.00    +0.000 HD
ENDBRANCH  15  31
TORSDOF 5
ENDMDL
MODEL 6
REMARK VINA RESULT:      -5.7      2.854      4.871
REMARK  Name = 
REMARK  9 active torsions:
REMARK  status: ('A' for Active; 'I' for Inactive)
REMARK    1  A    between atoms: C_1  and  O_2
REMARK    2  A    between atoms: O_2  and  C_3
REMARK    3  A    between atoms: C_10  and  O_11
REMARK    4  A    between atoms: O_11  and  C_12
REMARK    5  A    between atoms: C_13  and  O_14
REMARK    6  A    between atoms: O_14  and  C_15
REMARK    7  A    between atoms: C_20  and  O_21
REMARK    8  A    between atoms: O_21  and  C_22
REMARK    9  A    between atoms: C_23  and  O_24
REMARK                            x       y       z     vdW  Elec       q    Type
REMARK                         _______ _______ _______ _____ _____    ______ ____
ROOT
ATOM      1  C   UNL     1       0.223  10.924  19.024  0.00  0.00    +0.000 A 
ATOM      2  C   UNL     1      -0.533  11.889  18.373  0.00  0.00    +0.000 A 
ATOM      3  C   UNL     1      -0.805  13.167  19.025  0.00  0.00    +0.000 A 
ATOM      4  C   UNL     1      -1.773  13.498  20.096  0.00  0.00    +0.000 A 
ATOM      5  C   UNL     1      -1.670  14.708  20.894  0.00  0.00    +0.000 A 
ATOM      6  C   UNL     1      -0.746  15.661  20.556  0.00  0.00    +0.000 A 
ATOM      7  C   UNL     1      -1.077  16.985  20.815  0.00  0.00    +0.000 A 
ATOM      8  C   UNL     1      -1.692  17.504  19.706  0.00  0.00    +0.000 A 
ATOM      9  C   UNL     1      -0.861  17.524  18.617  0.00  0.00    +0.000 A 
ATOM     10  C   UNL     1       0.026  16.388  18.500  0.00  0.00    +0.000 A 
ATOM     11  C   UNL     1       0.078  15.298  19.504  0.00  0.00    +0.000 A 
ATOM     12  C   UNL     1       0.315  13.791  19.425  0.00  0.00    +0.000 A 
ATOM     13  C   UNL     1       0.940  12.771  20.327  0.00  0.00    +0.000 A 
ATOM     14  C   UNL     1       0.607  11.359  20.250  0.00  0.00    +0.000 A 
ATOM     15  C   UNL     1      -2.667  15.027  21.992  0.00  0.00    +0.000 C 
ATOM     16  C   UNL     1      -3.915  14.148  21.759  0.00  0.00    +0.000 C 
ATOM     17  C   UNL     1      -5.065  14.505  22.676  0.00  0.00    +0.000 C 
ATOM     18  C   UNL     1      -5.054  13.860  24.049  0.00  0.00    +0.000 C 
ATOM     19  C   UNL     1      -4.158  12.644  24.245  0.00  0.00    +0.000 C 
ATOM     20  C   UNL     1      -3.168  12.311  23.132  0.00  0.00    +0.000 C 
ATOM     21  N   UNL     1      -3.618  12.719  21.784  0.00  0.00    +0.000 NA
ATOM     22  C   UNL     1      -2.604  12.398  20.752  0.00  0.00    +0.000 C 
ENDROOT
BRANCH   1  24
ATOM     23  C   UNL     1       1.706   9.360  17.942  0.00  0.00    +0.000 C 
ATOM     24  O   UNL     1       0.416   9.666  18.528  0.00  0.00    +0.000 OA
ENDBRANCH   1  24
BRANCH   8  25
ATOM     25  O   UNL     1      -3.068  17.334  19.631  0.00  0.00    +0.000 OA
ATOM     26  C   UNL     1      -3.897  18.197  20.429  0.00  0.00    +0.000 C 
ENDBRANCH   8  25
BRANCH   9  27
ATOM     27  O   UNL     1      -1.157  18.315  17.541  0.00  0.00    +0.000 OA
ATOM     28  C   UNL     1      -0.040  18.536  16.670  0.00  0.00    +0.000 C 
ENDBRANCH   9  27
BRANCH  14  29
ATOM     29  O   UNL     1       0.214  10.614  21.366  0.00  0.00    +0.000 OA
ATOM     30  C   UNL     1       1.168   9.568  21.803  0.00  0.00    +0.000 C 
ENDBRANCH  14  29
BRANCH  15  31
ATOM     31  O   UNL     1      -2.056  14.951  23.265  0.00  0.00    +0.000 OA
ATOM     32  H   UNL     1      -1.136  15.314  23.180  0.00  0.00    +0.000 HD
ENDBRANCH  15  31
TORSDOF 5
ENDMDL
MODEL 7
REMARK VINA RESULT:      -5.7      2.122      5.448
REMARK  Name = 
REMARK  9 active torsions:
REMARK  status: ('A' for Active; 'I' for Inactive)
REMARK    1  A    between atoms: C_1  and  O_2
REMARK    2  A    between atoms: O_2  and  C_3
REMARK    3  A    between atoms: C_10  and  O_11
REMARK    4  A    between atoms: O_11  and  C_12
REMARK    5  A    between atoms: C_13  and  O_14
REMARK    6  A    between atoms: O_14  and  C_15
REMARK    7  A    between atoms: C_20  and  O_21
REMARK    8  A    between atoms: O_21  and  C_22
REMARK    9  A    between atoms: C_23  and  O_24
REMARK                            x       y       z     vdW  Elec       q    Type
REMARK                         _______ _______ _______ _____ _____    ______ ____
ROOT
ATOM      1  C   UNL     1       0.189  12.197  21.580  0.00  0.00    +0.000 A 
ATOM      2  C   UNL     1      -0.396  13.455  21.644  0.00  0.00    +0.000 A 
ATOM      3  C   UNL     1      -1.791  13.592  22.056  0.00  0.00    +0.000 A 
ATOM      4  C   UNL     1      -3.034  13.335  21.293  0.00  0.00    +0.000 A 
ATOM      5  C   UNL     1      -4.323  13.156  21.940  0.00  0.00    +0.000 A 
ATOM      6  C   UNL     1      -4.438  13.384  23.286  0.00  0.00    +0.000 A 
ATOM      7  C   UNL     1      -5.654  13.877  23.743  0.00  0.00    +0.000 A 
ATOM      8  C   UNL     1      -5.597  15.246  23.740  0.00  0.00    +0.000 A 
ATOM      9  C   UNL     1      -4.643  15.724  24.599  0.00  0.00    +0.000 A 
ATOM     10  C   UNL     1      -3.431  14.940  24.670  0.00  0.00    +0.000 A 
ATOM     11  C   UNL     1      -3.239  13.680  23.912  0.00  0.00    +0.000 A 
ATOM     12  C   UNL     1      -2.038  13.015  23.242  0.00  0.00    +0.000 A 
ATOM     13  C   UNL     1      -1.614  11.599  23.000  0.00  0.00    +0.000 A 
ATOM     14  C   UNL     1      -0.700  11.235  21.931  0.00  0.00    +0.000 A 
ATOM     15  C   UNL     1      -5.585  12.886  21.144  0.00  0.00    +0.000 C 
ATOM     16  C   UNL     1      -5.307  13.286  19.679  0.00  0.00    +0.000 C 
ATOM     17  C   UNL     1      -6.547  13.245  18.812  0.00  0.00    +0.000 C 
ATOM     18  C   UNL     1      -6.905  11.897  18.216  0.00  0.00    +0.000 C 
ATOM     19  C   UNL     1      -5.819  10.829  18.195  0.00  0.00    +0.000 C 
ATOM     20  C   UNL     1      -4.539  11.109  18.981  0.00  0.00    +0.000 C 
ATOM     21  N   UNL     1      -4.199  12.544  19.085  0.00  0.00    +0.000 NA
ATOM     22  C   UNL     1      -2.968  12.753  19.884  0.00  0.00    +0.000 C 
ENDROOT
BRANCH   1  24
ATOM     23  C   UNL     1       2.070  13.048  20.334  0.00  0.00    +0.000 C 
ATOM     24  O   UNL     1       1.445  11.982  21.091  0.00  0.00    +0.000 OA
ENDBRANCH   1  24
BRANCH   8  25
ATOM     25  O   UNL     1      -5.962  15.872  22.556  0.00  0.00    +0.000 OA
ATOM     26  C   UNL     1      -7.364  15.967  22.249  0.00  0.00    +0.000 C 
ENDBRANCH   8  25
BRANCH   9  27
ATOM     27  O   UNL     1      -4.675  17.031  25.001  0.00  0.00    +0.000 OA
ATOM     28  C   UNL     1      -3.377  17.638  25.076  0.00  0.00    +0.000 C 
ENDBRANCH   9  27
BRANCH  14  29
ATOM     29  O   UNL     1      -0.990  10.235  20.997  0.00  0.00    +0.000 OA
ATOM     30  C   UNL     1      -0.329   8.930  21.235  0.00  0.00    +0.000 C 
ENDBRANCH  14  29
BRANCH  15  31
ATOM     31  O   UNL     1      -6.053  11.572  21.372  0.00  0.00    +0.000 OA
ATOM     32  H   UNL     1      -6.927  11.478  20.909  0.00  0.00    +0.000 HD
ENDBRANCH  15  31
TORSDOF 5
ENDMDL
MODEL 8
REMARK VINA RESULT:      -5.7      2.965      6.094
REMARK  Name = 
REMARK  9 active torsions:
REMARK  status: ('A' for Active; 'I' for Inactive)
REMARK    1  A    between atoms: C_1  and  O_2
REMARK    2  A    between atoms: O_2  and  C_3
REMARK    3  A    between atoms: C_10  and  O_11
REMARK    4  A    between atoms: O_11  and  C_12
REMARK    5  A    between atoms: C_13  and  O_14
REMARK    6  A    between atoms: O_14  and  C_15
REMARK    7  A    between atoms: C_20  and  O_21
REMARK    8  A    between atoms: O_21  and  C_22
REMARK    9  A    between atoms: C_23  and  O_24
REMARK                            x       y       z     vdW  Elec       q    Type
REMARK                         _______ _______ _______ _____ _____    ______ ____
ROOT
ATOM      1  C   UNL     1       1.405  17.453  18.201  0.00  0.00    +0.000 A 
ATOM      2  C   UNL     1       0.077  17.251  18.556  0.00  0.00    +0.000 A 
ATOM      3  C   UNL     1      -0.254  16.369  19.672  0.00  0.00    +0.000 A 
ATOM      4  C   UNL     1      -0.277  14.889  19.737  0.00  0.00    +0.000 A 
ATOM      5  C   UNL     1      -0.260  14.163  20.996  0.00  0.00    +0.000 A 
ATOM      6  C   UNL     1      -0.383  14.853  22.172  0.00  0.00    +0.000 A 
ATOM      7  C   UNL     1      -1.029  14.209  23.220  0.00  0.00    +0.000 A 
ATOM      8  C   UNL     1      -2.365  14.512  23.158  0.00  0.00    +0.000 A 
ATOM      9  C   UNL     1      -2.598  15.851  23.331  0.00  0.00    +0.000 A 
ATOM     10  C   UNL     1      -1.619  16.728  22.730  0.00  0.00    +0.000 A 
ATOM     11  C   UNL     1      -0.417  16.229  22.018  0.00  0.00    +0.000 A 
ATOM     12  C   UNL     1       0.378  16.712  20.806  0.00  0.00    +0.000 A 
ATOM     13  C   UNL     1       1.817  16.656  20.397  0.00  0.00    +0.000 A 
ATOM     14  C   UNL     1       2.232  16.742  19.007  0.00  0.00    +0.000 A 
ATOM     15  C   UNL     1      -0.277  12.647  21.043  0.00  0.00    +0.000 C 
ATOM     16  C   UNL     1      -0.754  12.143  19.664  0.00  0.00    +0.000 C 
ATOM     17  C   UNL     1      -0.999  10.649  19.636  0.00  0.00    +0.000 C 
ATOM     18  C   UNL     1       0.212   9.776  19.367  0.00  0.00    +0.000 C 
ATOM     19  C   UNL     1       1.440  10.447  18.766  0.00  0.00    +0.000 C 
ATOM     20  C   UNL     1       1.450  11.972  18.699  0.00  0.00    +0.000 C 
ATOM     21  N   UNL     1       0.107  12.577  18.568  0.00  0.00    +0.000 NA
ATOM     22  C   UNL     1       0.179  14.057  18.542  0.00  0.00    +0.000 C 
ENDROOT
BRANCH   1  24
ATOM     23  C   UNL     1       0.752  18.556  16.159  0.00  0.00    +0.000 C 
ATOM     24  O   UNL     1       1.783  18.166  17.099  0.00  0.00    +0.000 OA
ENDBRANCH   1  24
BRANCH   8  25
ATOM     25  O   UNL     1      -3.146  13.682  22.367  0.00  0.00    +0.000 OA
ATOM     26  C   UNL     1      -4.032  12.761  23.027  0.00  0.00    +0.000 C 
ENDBRANCH   8  25
BRANCH   9  27
ATOM     27  O   UNL     1      -3.851  16.293  23.657  0.00  0.00    +0.000 OA
ATOM     28  C   UNL     1      -4.022  16.539  25.060  0.00  0.00    +0.000 C 
ENDBRANCH   9  27
BRANCH  14  29
ATOM     29  O   UNL     1       3.082  15.804  18.413  0.00  0.00    +0.000 OA
ATOM     30  C   UNL     1       3.739  14.857  19.345  0.00  0.00    +0.000 C 
ENDBRANCH  14  29
BRANCH  15  31
ATOM     31  O   UNL     1       0.955  12.144  21.519  0.00  0.00    +0.000 OA
ATOM     32  H   UNL     1       1.675  12.736  21.176  0.00  0.00    +0.000 HD
ENDBRANCH  15  31
TORSDOF 5
ENDMDL
MODEL 9
REMARK VINA RESULT:      -5.7      2.897      5.576
REMARK  Name = 
REMARK  9 active torsions:
REMARK  status: ('A' for Active; 'I' for Inactive)
REMARK    1  A    between atoms: C_1  and  O_2
REMARK    2  A    between atoms: O_2  and  C_3
REMARK    3  A    between atoms: C_10  and  O_11
REMARK    4  A    between atoms: O_11  and  C_12
REMARK    5  A    between atoms: C_13  and  O_14
REMARK    6  A    between atoms: O_14  and  C_15
REMARK    7  A    between atoms: C_20  and  O_21
REMARK    8  A    between atoms: O_21  and  C_22
REMARK    9  A    between atoms: C_23  and  O_24
REMARK                            x       y       z     vdW  Elec       q    Type
REMARK                         _______ _______ _______ _____ _____    ______ ____
ROOT
ATOM      1  C   UNL     1      -0.710  10.982  18.212  0.00  0.00    +0.000 A 
ATOM      2  C   UNL     1      -0.967  12.306  17.880  0.00  0.00    +0.000 A 
ATOM      3  C   UNL     1      -0.571  13.377  18.790  0.00  0.00    +0.000 A 
ATOM      4  C   UNL     1      -1.206  13.837  20.047  0.00  0.00    +0.000 A 
ATOM      5  C   UNL     1      -0.502  14.649  21.025  0.00  0.00    +0.000 A 
ATOM      6  C   UNL     1       0.737  15.147  20.721  0.00  0.00    +0.000 A 
ATOM      7  C   UNL     1       1.078  16.377  21.267  0.00  0.00    +0.000 A 
ATOM      8  C   UNL     1       0.709  17.361  20.387  0.00  0.00    +0.000 A 
ATOM      9  C   UNL     1       1.386  17.270  19.200  0.00  0.00    +0.000 A 
ATOM     10  C   UNL     1       1.632  15.924  18.734  0.00  0.00    +0.000 A 
ATOM     11  C   UNL     1       1.231  14.719  19.500  0.00  0.00    +0.000 A 
ATOM     12  C   UNL     1       0.732  13.328  19.109  0.00  0.00    +0.000 A 
ATOM     13  C   UNL     1       0.864  11.956  19.695  0.00  0.00    +0.000 A 
ATOM     14  C   UNL     1      -0.093  10.899  19.417  0.00  0.00    +0.000 A 
ATOM     15  C   UNL     1      -1.166  15.104  22.311  0.00  0.00    +0.000 C 
ATOM     16  C   UNL     1      -2.692  14.949  22.128  0.00  0.00    +0.000 C 
ATOM     17  C   UNL     1      -3.485  15.547  23.270  0.00  0.00    +0.000 C 
ATOM     18  C   UNL     1      -3.692  14.659  24.482  0.00  0.00    +0.000 C 
ATOM     19  C   UNL     1      -3.456  13.164  24.303  0.00  0.00    +0.000 C 
ATOM     20  C   UNL     1      -2.806  12.703  23.001  0.00  0.00    +0.000 C 
ATOM     21  N   UNL     1      -3.095  13.575  21.843  0.00  0.00    +0.000 NA
ATOM     22  C   UNL     1      -2.412  13.095  20.618  0.00  0.00    +0.000 C 
ENDROOT
BRANCH   1  24
ATOM     23  C   UNL     1      -2.400  10.085  16.745  0.00  0.00    +0.000 C 
ATOM     24  O   UNL     1      -1.156   9.926  17.470  0.00  0.00    +0.000 OA
ENDBRANCH   1  24
BRANCH   8  25
ATOM     25  O   UNL     1      -0.588  17.838  20.508  0.00  0.00    +0.000 OA
ATOM     26  C   UNL     1      -1.479  17.657  19.393  0.00  0.00    +0.000 C 
ENDBRANCH   8  25
BRANCH   9  27
ATOM     27  O   UNL     1       1.428  18.341  18.349  0.00  0.00    +0.000 OA
ATOM     28  C   UNL     1       1.443  17.969  16.964  0.00  0.00    +0.000 C 
ENDBRANCH   9  27
BRANCH  14  29
ATOM     29  O   UNL     1      -0.720  10.163  20.427  0.00  0.00    +0.000 OA
ATOM     30  C   UNL     1      -0.164  10.345  21.789  0.00  0.00    +0.000 C 
ENDBRANCH  14  29
BRANCH  15  31
ATOM     31  O   UNL     1      -0.586  14.467  23.431  0.00  0.00    +0.000 OA
ATOM     32  H   UNL     1      -0.806  13.501  23.375  0.00  0.00    +0.000 HD
ENDBRANCH  15  31
TORSDOF 5
ENDMDL
