MODEL 1
REMARK VINA RESULT:      -9.0      0.000      0.000
REMARK  Name = 
REMARK  3 active torsions:
REMARK  status: ('A' for Active; 'I' for Inactive)
REMARK    1  A    between atoms: S_2  and  C_4
REMARK    2  A    between atoms: S_2  and  C_10
REMARK    3  A    between atoms: C_13  and  N_14
REMARK                            x       y       z     vdW  Elec       q    Type
REMARK                         _______ _______ _______ _____ _____    ______ ____
ROOT
ATOM      1  C   UNL     1       5.702   4.803  17.171  0.00  0.00    +0.000 A 
ATOM      2  C   UNL     1       4.988   5.541  18.088  0.00  0.00    +0.000 A 
ATOM      3  C   UNL     1       3.670   5.019  18.151  0.00  0.00    +0.000 A 
ATOM      4  C   UNL     1       2.458   5.539  18.668  0.00  0.00    +0.000 A 
ATOM      5  C   UNL     1       1.400   4.617  18.781  0.00  0.00    +0.000 A 
ATOM      6  C   UNL     1       1.495   3.311  18.285  0.00  0.00    +0.000 A 
ATOM      7  C   UNL     1       2.635   2.878  17.600  0.00  0.00    +0.000 A 
ATOM      8  C   UNL     1       3.715   3.770  17.542  0.00  0.00    +0.000 A 
ATOM      9  N   UNL     1       4.931   3.692  16.889  0.00  0.00    +0.000 N 
ATOM     10  H   UNL     1       5.202   2.961  16.243  0.00  0.00    +0.000 HD
ENDROOT
BRANCH   4  11
ATOM     11  N   UNL     1       2.271   6.889  18.900  0.00  0.00    +0.000 N 
ATOM     12  C   UNL     1       2.592   7.875  17.853  0.00  0.00    +0.000 C 
ATOM     13  C   UNL     1       1.530   8.987  17.839  0.00  0.00    +0.000 C 
ATOM     14  N   UNL     1       1.370   9.644  19.150  0.00  0.00    +0.000 NA
ATOM     15  C   UNL     1       1.079   8.618  20.177  0.00  0.00    +0.000 C 
ATOM     16  C   UNL     1       2.107   7.459  20.236  0.00  0.00    +0.000 C 
ATOM     17  H   UNL     1       0.583  10.288  19.094  0.00  0.00    +0.000 HD
ENDBRANCH   4  11
BRANCH   1  19
ATOM     18  O   UNL     1       8.163   4.151  16.993  0.00  0.00    +0.000 OA
ATOM     19  S   UNL     1       7.264   5.127  16.408  0.00  0.00    +0.000 S 
ATOM     20  O   UNL     1       7.454   6.552  16.563  0.00  0.00    +0.000 OA
BRANCH  19  21
ATOM     21  C   UNL     1       7.032   4.760  14.680  0.00  0.00    +0.000 A 
ATOM     22  C   UNL     1       6.084   3.804  14.305  0.00  0.00    +0.000 A 
ATOM     23  C   UNL     1       5.930   3.480  12.957  0.00  0.00    +0.000 A 
ATOM     24  C   UNL     1       6.720   4.103  11.988  0.00  0.00    +0.000 A 
ATOM     25  C   UNL     1       7.668   5.053  12.365  0.00  0.00    +0.000 A 
ATOM     26  C   UNL     1       7.832   5.384  13.714  0.00  0.00    +0.000 A 
ENDBRANCH  19  21
ENDBRANCH   1  19
TORSDOF 3
ENDMDL
MODEL 2
REMARK VINA RESULT:      -8.8      1.471      1.828
REMARK  Name = 
REMARK  3 active torsions:
REMARK  status: ('A' for Active; 'I' for Inactive)
REMARK    1  A    between atoms: S_2  and  C_4
REMARK    2  A    between atoms: S_2  and  C_10
REMARK    3  A    between atoms: C_13  and  N_14
REMARK                            x       y       z     vdW  Elec       q    Type
REMARK                         _______ _______ _______ _____ _____    ______ ____
ROOT
ATOM      1  C   UNL     1       6.028   4.719  18.510  0.00  0.00    +0.000 A 
ATOM      2  C   UNL     1       5.148   5.579  19.127  0.00  0.00    +0.000 A 
ATOM      3  C   UNL     1       4.063   4.819  19.636  0.00  0.00    +0.000 A 
ATOM      4  C   UNL     1       2.767   5.178  20.080  0.00  0.00    +0.000 A 
ATOM      5  C   UNL     1       2.057   4.171  20.762  0.00  0.00    +0.000 A 
ATOM      6  C   UNL     1       2.542   2.863  20.872  0.00  0.00    +0.000 A 
ATOM      7  C   UNL     1       3.738   2.480  20.255  0.00  0.00    +0.000 A 
ATOM      8  C   UNL     1       4.480   3.493  19.630  0.00  0.00    +0.000 A 
ATOM      9  N   UNL     1       5.637   3.445  18.875  0.00  0.00    +0.000 N 
ATOM     10  H   UNL     1       6.103   2.599  18.572  0.00  0.00    +0.000 HD
ENDROOT
BRANCH   4  11
ATOM     11  N   UNL     1       2.172   6.377  19.734  0.00  0.00    +0.000 N 
ATOM     12  C   UNL     1       1.286   7.071  20.686  0.00  0.00    +0.000 C 
ATOM     13  C   UNL     1       1.531   8.588  20.617  0.00  0.00    +0.000 C 
ATOM     14  N   UNL     1       1.372   9.133  19.256  0.00  0.00    +0.000 NA
ATOM     15  C   UNL     1       2.255   8.391  18.327  0.00  0.00    +0.000 C 
ATOM     16  C   UNL     1       2.067   6.852  18.355  0.00  0.00    +0.000 C 
ATOM     17  H   UNL     1       1.653  10.113  19.267  0.00  0.00    +0.000 HD
ENDBRANCH   4  11
BRANCH   1  19
ATOM     18  O   UNL     1       8.395   4.084  17.801  0.00  0.00    +0.000 OA
ATOM     19  S   UNL     1       7.382   5.051  17.424  0.00  0.00    +0.000 S 
ATOM     20  O   UNL     1       7.591   6.478  17.530  0.00  0.00    +0.000 OA
BRANCH  19  21
ATOM     21  C   UNL     1       6.782   4.676  15.789  0.00  0.00    +0.000 A 
ATOM     22  C   UNL     1       5.563   4.007  15.645  0.00  0.00    +0.000 A 
ATOM     23  C   UNL     1       5.110   3.670  14.369  0.00  0.00    +0.000 A 
ATOM     24  C   UNL     1       5.870   3.994  13.243  0.00  0.00    +0.000 A 
ATOM     25  C   UNL     1       7.088   4.657  13.390  0.00  0.00    +0.000 A 
ATOM     26  C   UNL     1       7.552   4.998  14.665  0.00  0.00    +0.000 A 
ENDBRANCH  19  21
ENDBRANCH   1  19
TORSDOF 3
ENDMDL
MODEL 3
REMARK VINA RESULT:      -8.4      1.738      3.339
REMARK  Name = 
REMARK  3 active torsions:
REMARK  status: ('A' for Active; 'I' for Inactive)
REMARK    1  A    between atoms: S_2  and  C_4
REMARK    2  A    between atoms: S_2  and  C_10
REMARK    3  A    between atoms: C_13  and  N_14
REMARK                            x       y       z     vdW  Elec       q    Type
REMARK                         _______ _______ _______ _____ _____    ______ ____
ROOT
ATOM      1  C   UNL     1       5.525   5.884  16.721  0.00  0.00    +0.000 A 
ATOM      2  C   UNL     1       4.437   5.145  17.128  0.00  0.00    +0.000 A 
ATOM      3  C   UNL     1       3.510   6.022  17.749  0.00  0.00    +0.000 A 
ATOM      4  C   UNL     1       2.396   5.795  18.596  0.00  0.00    +0.000 A 
ATOM      5  C   UNL     1       1.558   6.906  18.806  0.00  0.00    +0.000 A 
ATOM      6  C   UNL     1       1.877   8.182  18.327  0.00  0.00    +0.000 A 
ATOM      7  C   UNL     1       3.083   8.424  17.660  0.00  0.00    +0.000 A 
ATOM      8  C   UNL     1       3.891   7.310  17.391  0.00  0.00    +0.000 A 
ATOM      9  N   UNL     1       5.153   7.209  16.836  0.00  0.00    +0.000 N 
ATOM     10  H   UNL     1       5.754   7.990  16.603  0.00  0.00    +0.000 HD
ENDROOT
BRANCH   4  11
ATOM     11  N   UNL     1       2.227   4.615  19.294  0.00  0.00    +0.000 N 
ATOM     12  C   UNL     1       3.012   4.352  20.513  0.00  0.00    +0.000 C 
ATOM     13  C   UNL     1       2.127   3.667  21.568  0.00  0.00    +0.000 C 
ATOM     14  N   UNL     1       1.497   2.429  21.071  0.00  0.00    +0.000 NA
ATOM     15  C   UNL     1       0.744   2.730  19.832  0.00  0.00    +0.000 C 
ATOM     16  C   UNL     1       1.576   3.434  18.729  0.00  0.00    +0.000 C 
ATOM     17  H   UNL     1       0.846   2.092  21.779  0.00  0.00    +0.000 HD
ENDBRANCH   4  11
BRANCH   1  19
ATOM     18  O   UNL     1       7.441   4.227  17.032  0.00  0.00    +0.000 OA
ATOM     19  S   UNL     1       7.127   5.362  16.185  0.00  0.00    +0.000 S 
ATOM     20  O   UNL     1       7.919   6.572  16.181  0.00  0.00    +0.000 OA
BRANCH  19  21
ATOM     21  C   UNL     1       6.910   4.808  14.506  0.00  0.00    +0.000 A 
ATOM     22  C   UNL     1       5.933   3.849  14.224  0.00  0.00    +0.000 A 
ATOM     23  C   UNL     1       5.788   3.379  12.918  0.00  0.00    +0.000 A 
ATOM     24  C   UNL     1       6.615   3.858  11.901  0.00  0.00    +0.000 A 
ATOM     25  C   UNL     1       7.592   4.812  12.186  0.00  0.00    +0.000 A 
ATOM     26  C   UNL     1       7.747   5.289  13.491  0.00  0.00    +0.000 A 
ENDBRANCH  19  21
ENDBRANCH   1  19
TORSDOF 3
ENDMDL
MODEL 4
REMARK VINA RESULT:      -8.4      1.098      1.506
REMARK  Name = 
REMARK  3 active torsions:
REMARK  status: ('A' for Active; 'I' for Inactive)
REMARK    1  A    between atoms: S_2  and  C_4
REMARK    2  A    between atoms: S_2  and  C_10
REMARK    3  A    between atoms: C_13  and  N_14
REMARK                            x       y       z     vdW  Elec       q    Type
REMARK                         _______ _______ _______ _____ _____    ______ ____
ROOT
ATOM      1  C   UNL     1       5.887   4.895  18.261  0.00  0.00    +0.000 A 
ATOM      2  C   UNL     1       5.145   5.830  18.946  0.00  0.00    +0.000 A 
ATOM      3  C   UNL     1       3.906   5.240  19.305  0.00  0.00    +0.000 A 
ATOM      4  C   UNL     1       2.673   5.788  19.737  0.00  0.00    +0.000 A 
ATOM      5  C   UNL     1       1.744   4.864  20.251  0.00  0.00    +0.000 A 
ATOM      6  C   UNL     1       1.967   3.483  20.211  0.00  0.00    +0.000 A 
ATOM      7  C   UNL     1       3.108   2.952  19.601  0.00  0.00    +0.000 A 
ATOM      8  C   UNL     1       4.066   3.868  19.145  0.00  0.00    +0.000 A 
ATOM      9  N   UNL     1       5.241   3.687  18.440  0.00  0.00    +0.000 N 
ATOM     10  H   UNL     1       5.560   2.809  18.050  0.00  0.00    +0.000 HD
ENDROOT
BRANCH   4  11
ATOM     11  N   UNL     1       2.338   7.112  19.524  0.00  0.00    +0.000 N 
ATOM     12  C   UNL     1       2.730   7.788  18.274  0.00  0.00    +0.000 C 
ATOM     13  C   UNL     1       1.591   8.704  17.795  0.00  0.00    +0.000 C 
ATOM     14  N   UNL     1       1.176   9.685  18.816  0.00  0.00    +0.000 NA
ATOM     15  C   UNL     1       0.820   8.969  20.063  0.00  0.00    +0.000 C 
ATOM     16  C   UNL     1       1.922   8.017  20.594  0.00  0.00    +0.000 C 
ATOM     17  H   UNL     1       0.354  10.179  18.473  0.00  0.00    +0.000 HD
ENDBRANCH   4  11
BRANCH   1  19
ATOM     18  O   UNL     1       8.267   4.091  17.809  0.00  0.00    +0.000 OA
ATOM     19  S   UNL     1       7.349   5.085  17.285  0.00  0.00    +0.000 S 
ATOM     20  O   UNL     1       7.631   6.503  17.327  0.00  0.00    +0.000 OA
BRANCH  19  21
ATOM     21  C   UNL     1       6.875   4.639  15.627  0.00  0.00    +0.000 A 
ATOM     22  C   UNL     1       7.641   5.094  14.550  0.00  0.00    +0.000 A 
ATOM     23  C   UNL     1       7.249   4.785  13.247  0.00  0.00    +0.000 A 
ATOM     24  C   UNL     1       6.096   4.031  13.019  0.00  0.00    +0.000 A 
ATOM     25  C   UNL     1       5.331   3.582  14.095  0.00  0.00    +0.000 A 
ATOM     26  C   UNL     1       5.714   3.887  15.405  0.00  0.00    +0.000 A 
ENDBRANCH  19  21
ENDBRANCH   1  19
TORSDOF 3
ENDMDL
MODEL 5
REMARK VINA RESULT:      -8.3      1.949      3.455
REMARK  Name = 
REMARK  3 active torsions:
REMARK  status: ('A' for Active; 'I' for Inactive)
REMARK    1  A    between atoms: S_2  and  C_4
REMARK    2  A    between atoms: S_2  and  C_10
REMARK    3  A    between atoms: C_13  and  N_14
REMARK                            x       y       z     vdW  Elec       q    Type
REMARK                         _______ _______ _______ _____ _____    ______ ____
ROOT
ATOM      1  C   UNL     1       5.665   5.758  16.777  0.00  0.00    +0.000 A 
ATOM      2  C   UNL     1       4.779   4.994  17.502  0.00  0.00    +0.000 A 
ATOM      3  C   UNL     1       3.834   5.861  18.109  0.00  0.00    +0.000 A 
ATOM      4  C   UNL     1       2.912   5.681  19.169  0.00  0.00    +0.000 A 
ATOM      5  C   UNL     1       1.953   6.701  19.320  0.00  0.00    +0.000 A 
ATOM      6  C   UNL     1       1.995   7.880  18.566  0.00  0.00    +0.000 A 
ATOM      7  C   UNL     1       3.033   8.122  17.660  0.00  0.00    +0.000 A 
ATOM      8  C   UNL     1       3.952   7.084  17.458  0.00  0.00    +0.000 A 
ATOM      9  N   UNL     1       5.114   7.024  16.712  0.00  0.00    +0.000 N 
ATOM     10  H   UNL     1       5.545   7.807  16.235  0.00  0.00    +0.000 HD
ENDROOT
BRANCH   4  11
ATOM     11  N   UNL     1       3.035   4.659  20.091  0.00  0.00    +0.000 N 
ATOM     12  C   UNL     1       2.177   4.629  21.289  0.00  0.00    +0.000 C 
ATOM     13  C   UNL     1       1.742   3.184  21.585  0.00  0.00    +0.000 C 
ATOM     14  N   UNL     1       2.884   2.261  21.732  0.00  0.00    +0.000 NA
ATOM     15  C   UNL     1       3.736   2.343  20.524  0.00  0.00    +0.000 C 
ATOM     16  C   UNL     1       4.199   3.777  20.162  0.00  0.00    +0.000 C 
ATOM     17  H   UNL     1       2.522   1.312  21.817  0.00  0.00    +0.000 HD
ENDBRANCH   4  11
BRANCH   1  19
ATOM     18  O   UNL     1       7.710   4.236  16.879  0.00  0.00    +0.000 OA
ATOM     19  S   UNL     1       7.227   5.336  16.065  0.00  0.00    +0.000 S 
ATOM     20  O   UNL     1       7.931   6.595  15.963  0.00  0.00    +0.000 OA
BRANCH  19  21
ATOM     21  C   UNL     1       6.859   4.745  14.426  0.00  0.00    +0.000 A 
ATOM     22  C   UNL     1       5.765   3.896  14.235  0.00  0.00    +0.000 A 
ATOM     23  C   UNL     1       5.497   3.395  12.961  0.00  0.00    +0.000 A 
ATOM     24  C   UNL     1       6.319   3.733  11.884  0.00  0.00    +0.000 A 
ATOM     25  C   UNL     1       7.413   4.576  12.078  0.00  0.00    +0.000 A 
ATOM     26  C   UNL     1       7.690   5.083  13.351  0.00  0.00    +0.000 A 
ENDBRANCH  19  21
ENDBRANCH   1  19
TORSDOF 3
ENDMDL
MODEL 6
REMARK VINA RESULT:      -8.3      0.782      1.310
REMARK  Name = 
REMARK  3 active torsions:
REMARK  status: ('A' for Active; 'I' for Inactive)
REMARK    1  A    between atoms: S_2  and  C_4
REMARK    2  A    between atoms: S_2  and  C_10
REMARK    3  A    between atoms: C_13  and  N_14
REMARK                            x       y       z     vdW  Elec       q    Type
REMARK                         _______ _______ _______ _____ _____    ______ ____
ROOT
ATOM      1  C   UNL     1       5.693   4.466  17.271  0.00  0.00    +0.000 A 
ATOM      2  C   UNL     1       4.894   5.082  18.207  0.00  0.00    +0.000 A 
ATOM      3  C   UNL     1       3.714   4.310  18.365  0.00  0.00    +0.000 A 
ATOM      4  C   UNL     1       2.451   4.597  18.939  0.00  0.00    +0.000 A 
ATOM      5  C   UNL     1       1.610   3.486  19.143  0.00  0.00    +0.000 A 
ATOM      6  C   UNL     1       1.942   2.207  18.682  0.00  0.00    +0.000 A 
ATOM      7  C   UNL     1       3.108   1.983  17.943  0.00  0.00    +0.000 A 
ATOM      8  C   UNL     1       3.979   3.071  17.792  0.00  0.00    +0.000 A 
ATOM      9  N   UNL     1       5.149   3.212  17.070  0.00  0.00    +0.000 N 
ATOM     10  H   UNL     1       5.528   2.524  16.430  0.00  0.00    +0.000 HD
ENDROOT
BRANCH   4  11
ATOM     11  N   UNL     1       2.007   5.890  19.141  0.00  0.00    +0.000 N 
ATOM     12  C   UNL     1       1.334   6.258  20.400  0.00  0.00    +0.000 C 
ATOM     13  C   UNL     1       1.791   7.657  20.846  0.00  0.00    +0.000 C 
ATOM     14  N   UNL     1       1.576   8.688  19.813  0.00  0.00    +0.000 NA
ATOM     15  C   UNL     1       2.240   8.266  18.558  0.00  0.00    +0.000 C 
ATOM     16  C   UNL     1       1.832   6.857  18.058  0.00  0.00    +0.000 C 
ATOM     17  H   UNL     1       1.997   9.558  20.133  0.00  0.00    +0.000 HD
ENDBRANCH   4  11
BRANCH   1  19
ATOM     18  O   UNL     1       8.212   4.269  16.917  0.00  0.00    +0.000 OA
ATOM     19  S   UNL     1       7.113   5.065  16.405  0.00  0.00    +0.000 S 
ATOM     20  O   UNL     1       7.054   6.501  16.562  0.00  0.00    +0.000 OA
BRANCH  19  21
ATOM     21  C   UNL     1       6.831   4.659  14.694  0.00  0.00    +0.000 A 
ATOM     22  C   UNL     1       5.752   3.838  14.354  0.00  0.00    +0.000 A 
ATOM     23  C   UNL     1       5.552   3.480  13.021  0.00  0.00    +0.000 A 
ATOM     24  C   UNL     1       6.427   3.933  12.031  0.00  0.00    +0.000 A 
ATOM     25  C   UNL     1       7.506   4.748  12.373  0.00  0.00    +0.000 A 
ATOM     26  C   UNL     1       7.716   5.112  13.707  0.00  0.00    +0.000 A 
ENDBRANCH  19  21
ENDBRANCH   1  19
TORSDOF 3
ENDMDL
MODEL 7
REMARK VINA RESULT:      -8.3      4.175      7.997
REMARK  Name = 
REMARK  3 active torsions:
REMARK  status: ('A' for Active; 'I' for Inactive)
REMARK    1  A    between atoms: S_2  and  C_4
REMARK    2  A    between atoms: S_2  and  C_10
REMARK    3  A    between atoms: C_13  and  N_14
REMARK                            x       y       z     vdW  Elec       q    Type
REMARK                         _______ _______ _______ _____ _____    ______ ____
ROOT
ATOM      1  C   UNL     1       1.805   8.881  18.621  0.00  0.00    +0.000 A 
ATOM      2  C   UNL     1       2.017   7.785  19.427  0.00  0.00    +0.000 A 
ATOM      3  C   UNL     1       2.850   6.873  18.729  0.00  0.00    +0.000 A 
ATOM      4  C   UNL     1       3.142   5.500  18.925  0.00  0.00    +0.000 A 
ATOM      5  C   UNL     1       4.223   4.996  18.177  0.00  0.00    +0.000 A 
ATOM      6  C   UNL     1       4.874   5.761  17.202  0.00  0.00    +0.000 A 
ATOM      7  C   UNL     1       4.440   7.052  16.886  0.00  0.00    +0.000 A 
ATOM      8  C   UNL     1       3.407   7.583  17.672  0.00  0.00    +0.000 A 
ATOM      9  N   UNL     1       2.705   8.769  17.578  0.00  0.00    +0.000 N 
ATOM     10  H   UNL     1       2.784   9.438  16.822  0.00  0.00    +0.000 HD
ENDROOT
BRANCH   4  11
ATOM     11  N   UNL     1       2.330   4.671  19.676  0.00  0.00    +0.000 N 
ATOM     12  C   UNL     1       1.242   3.913  19.033  0.00  0.00    +0.000 C 
ATOM     13  C   UNL     1       1.156   2.504  19.643  0.00  0.00    +0.000 C 
ATOM     14  N   UNL     1       0.990   2.522  21.108  0.00  0.00    +0.000 NA
ATOM     15  C   UNL     1       2.083   3.317  21.713  0.00  0.00    +0.000 C 
ATOM     16  C   UNL     1       2.234   4.747  21.133  0.00  0.00    +0.000 C 
ATOM     17  H   UNL     1       1.049   1.564  21.451  0.00  0.00    +0.000 HD
ENDBRANCH   4  11
BRANCH   1  19
ATOM     18  O   UNL     1      -0.455   9.806  17.879  0.00  0.00    +0.000 OA
ATOM     19  S   UNL     1       0.630  10.195  18.760  0.00  0.00    +0.000 S 
ATOM     20  O   UNL     1       1.406  11.397  18.554  0.00  0.00    +0.000 OA
BRANCH  19  21
ATOM     21  C   UNL     1       0.068  10.152  20.450  0.00  0.00    +0.000 A 
ATOM     22  C   UNL     1      -0.186  11.354  21.116  0.00  0.00    +0.000 A 
ATOM     23  C   UNL     1      -0.584  11.328  22.454  0.00  0.00    +0.000 A 
ATOM     24  C   UNL     1      -0.722  10.111  23.124  0.00  0.00    +0.000 A 
ATOM     25  C   UNL     1      -0.462   8.913  22.458  0.00  0.00    +0.000 A 
ATOM     26  C   UNL     1      -0.062   8.928  21.118  0.00  0.00    +0.000 A 
ENDBRANCH  19  21
ENDBRANCH   1  19
TORSDOF 3
ENDMDL
MODEL 8
REMARK VINA RESULT:      -8.2      1.683      3.315
REMARK  Name = 
REMARK  3 active torsions:
REMARK  status: ('A' for Active; 'I' for Inactive)
REMARK    1  A    between atoms: S_2  and  C_4
REMARK    2  A    between atoms: S_2  and  C_10
REMARK    3  A    between atoms: C_13  and  N_14
REMARK                            x       y       z     vdW  Elec       q    Type
REMARK                         _______ _______ _______ _____ _____    ______ ____
ROOT
ATOM      1  C   UNL     1       5.421   5.933  16.801  0.00  0.00    +0.000 A 
ATOM      2  C   UNL     1       4.290   5.242  17.172  0.00  0.00    +0.000 A 
ATOM      3  C   UNL     1       3.384   6.156  17.767  0.00  0.00    +0.000 A 
ATOM      4  C   UNL     1       2.235   5.977  18.578  0.00  0.00    +0.000 A 
ATOM      5  C   UNL     1       1.439   7.122  18.765  0.00  0.00    +0.000 A 
ATOM      6  C   UNL     1       1.828   8.384  18.300  0.00  0.00    +0.000 A 
ATOM      7  C   UNL     1       3.063   8.574  17.672  0.00  0.00    +0.000 A 
ATOM      8  C   UNL     1       3.830   7.427  17.425  0.00  0.00    +0.000 A 
ATOM      9  N   UNL     1       5.103   7.273  16.908  0.00  0.00    +0.000 N 
ATOM     10  H   UNL     1       5.744   8.028  16.696  0.00  0.00    +0.000 HD
ENDROOT
BRANCH   4  11
ATOM     11  N   UNL     1       1.993   4.804  19.268  0.00  0.00    +0.000 N 
ATOM     12  C   UNL     1       1.423   3.635  18.573  0.00  0.00    +0.000 C 
ATOM     13  C   UNL     1       2.096   2.348  19.078  0.00  0.00    +0.000 C 
ATOM     14  N   UNL     1       2.001   2.188  20.542  0.00  0.00    +0.000 NA
ATOM     15  C   UNL     1       2.555   3.393  21.200  0.00  0.00    +0.000 C 
ATOM     16  C   UNL     1       1.928   4.729  20.726  0.00  0.00    +0.000 C 
ATOM     17  H   UNL     1       2.557   1.378  20.814  0.00  0.00    +0.000 HD
ENDBRANCH   4  11
BRANCH   1  19
ATOM     18  O   UNL     1       7.254   4.195  17.167  0.00  0.00    +0.000 OA
ATOM     19  S   UNL     1       7.015   5.344  16.314  0.00  0.00    +0.000 S 
ATOM     20  O   UNL     1       7.858   6.518  16.338  0.00  0.00    +0.000 OA
BRANCH  19  21
ATOM     21  C   UNL     1       6.827   4.803  14.628  0.00  0.00    +0.000 A 
ATOM     22  C   UNL     1       5.836   3.866  14.317  0.00  0.00    +0.000 A 
ATOM     23  C   UNL     1       5.712   3.405  13.006  0.00  0.00    +0.000 A 
ATOM     24  C   UNL     1       6.575   3.871  12.011  0.00  0.00    +0.000 A 
ATOM     25  C   UNL     1       7.565   4.801  12.325  0.00  0.00    +0.000 A 
ATOM     26  C   UNL     1       7.699   5.269  13.636  0.00  0.00    +0.000 A 
ENDBRANCH  19  21
ENDBRANCH   1  19
TORSDOF 3
ENDMDL
MODEL 9
REMARK VINA RESULT:      -8.2      0.882      1.672
REMARK  Name = 
REMARK  3 active torsions:
REMARK  status: ('A' for Active; 'I' for Inactive)
REMARK    1  A    between atoms: S_2  and  C_4
REMARK    2  A    between atoms: S_2  and  C_10
REMARK    3  A    between atoms: C_13  and  N_14
REMARK                            x       y       z     vdW  Elec       q    Type
REMARK                         _______ _______ _______ _____ _____    ______ ____
ROOT
ATOM      1  C   UNL     1       5.644   4.497  17.266  0.00  0.00    +0.000 A 
ATOM      2  C   UNL     1       4.873   5.129  18.215  0.00  0.00    +0.000 A 
ATOM      3  C   UNL     1       3.728   4.330  18.464  0.00  0.00    +0.000 A 
ATOM      4  C   UNL     1       2.487   4.604  19.090  0.00  0.00    +0.000 A 
ATOM      5  C   UNL     1       1.692   3.479  19.383  0.00  0.00    +0.000 A 
ATOM      6  C   UNL     1       2.041   2.191  18.959  0.00  0.00    +0.000 A 
ATOM      7  C   UNL     1       3.175   1.970  18.171  0.00  0.00    +0.000 A 
ATOM      8  C   UNL     1       4.004   3.076  17.931  0.00  0.00    +0.000 A 
ATOM      9  N   UNL     1       5.131   3.219  17.145  0.00  0.00    +0.000 N 
ATOM     10  H   UNL     1       5.500   2.516  16.516  0.00  0.00    +0.000 HD
ENDROOT
BRANCH   4  11
ATOM     11  N   UNL     1       2.012   5.891  19.260  0.00  0.00    +0.000 N 
ATOM     12  C   UNL     1       1.309   6.267  20.499  0.00  0.00    +0.000 C 
ATOM     13  C   UNL     1       1.729   7.683  20.929  0.00  0.00    +0.000 C 
ATOM     14  N   UNL     1       1.512   8.690  19.873  0.00  0.00    +0.000 NA
ATOM     15  C   UNL     1       2.208   8.261  18.639  0.00  0.00    +0.000 C 
ATOM     16  C   UNL     1       1.839   6.835  18.157  0.00  0.00    +0.000 C 
ATOM     17  H   UNL     1       1.909   9.575  20.186  0.00  0.00    +0.000 HD
ENDBRANCH   4  11
BRANCH   1  19
ATOM     18  O   UNL     1       8.154   4.387  16.818  0.00  0.00    +0.000 OA
ATOM     19  S   UNL     1       7.000   5.099  16.304  0.00  0.00    +0.000 S 
ATOM     20  O   UNL     1       6.880   6.539  16.371  0.00  0.00    +0.000 OA
BRANCH  19  21
ATOM     21  C   UNL     1       6.670   4.570  14.635  0.00  0.00    +0.000 A 
ATOM     22  C   UNL     1       7.601   4.853  13.632  0.00  0.00    +0.000 A 
ATOM     23  C   UNL     1       7.328   4.480  12.315  0.00  0.00    +0.000 A 
ATOM     24  C   UNL     1       6.131   3.833  12.000  0.00  0.00    +0.000 A 
ATOM     25  C   UNL     1       5.202   3.556  13.002  0.00  0.00    +0.000 A 
ATOM     26  C   UNL     1       5.465   3.927  14.325  0.00  0.00    +0.000 A 
ENDBRANCH  19  21
ENDBRANCH   1  19
TORSDOF 3
ENDMDL
