MODEL 1
REMARK VINA RESULT:      -7.0      0.000      0.000
REMARK  Name = 
REMARK  3 active torsions:
REMARK  status: ('A' for Active; 'I' for Inactive)
REMARK    1  A    between atoms: C_2  and  C_3
REMARK    2  A    between atoms: C_3  and  C_4
REMARK    3  A    between atoms: C_3  and  C_11
REMARK                            x       y       z     vdW  Elec       q    Type
REMARK                         _______ _______ _______ _____ _____    ______ ____
ROOT
ATOM      1  C   UNL     1       5.098   5.542  16.306  0.00  0.00    +0.000 C 
ENDROOT
BRANCH   1   2
ATOM      2  C   UNL     1       4.012   4.839  17.117  0.00  0.00    +0.000 A 
ATOM      3  C   UNL     1       3.837   3.444  17.074  0.00  0.00    +0.000 A 
ATOM      4  C   UNL     1       2.826   2.824  17.815  0.00  0.00    +0.000 A 
ATOM      5  C   UNL     1       1.964   3.593  18.591  0.00  0.00    +0.000 A 
ATOM      6 CL   UNL     1       0.726   2.828  19.507  0.00  0.00    +0.000 Cl
ATOM      7  C   UNL     1       2.099   4.978  18.624  0.00  0.00    +0.000 A 
ATOM      8  C   UNL     1       3.115   5.599  17.889  0.00  0.00    +0.000 A 
ENDBRANCH   1   2
BRANCH   1   9
ATOM      9  C   UNL     1       6.261   6.094  17.143  0.00  0.00    +0.000 A 
ATOM     10  C   UNL     1       6.792   5.372  18.208  0.00  0.00    +0.000 A 
ATOM     11  C   UNL     1       7.798   5.954  18.982  0.00  0.00    +0.000 A 
ATOM     12  C   UNL     1       8.254   7.232  18.676  0.00  0.00    +0.000 A 
ATOM     13  C   UNL     1       7.706   7.872  17.585  0.00  0.00    +0.000 A 
ATOM     14  N   UNL     1       6.744   7.325  16.814  0.00  0.00    +0.000 NA
ENDBRANCH   1   9
BRANCH   1  16
ATOM     15  N   UNL     1       6.176   3.844  14.385  0.00  0.00    +0.000 NA
ATOM     16  C   UNL     1       5.687   4.614  15.256  0.00  0.00    +0.000 C 
ENDBRANCH   1  16
TORSDOF 3
ENDMDL
MODEL 2
REMARK VINA RESULT:      -7.0      0.047      1.208
REMARK  Name = 
REMARK  3 active torsions:
REMARK  status: ('A' for Active; 'I' for Inactive)
REMARK    1  A    between atoms: C_2  and  C_3
REMARK    2  A    between atoms: C_3  and  C_4
REMARK    3  A    between atoms: C_3  and  C_11
REMARK                            x       y       z     vdW  Elec       q    Type
REMARK                         _______ _______ _______ _____ _____    ______ ____
ROOT
ATOM      1  C   UNL     1       5.109   5.551  16.255  0.00  0.00    +0.000 C 
ENDROOT
BRANCH   1   2
ATOM      2  C   UNL     1       3.995   4.886  17.060  0.00  0.00    +0.000 A 
ATOM      3  C   UNL     1       3.133   5.627  17.890  0.00  0.00    +0.000 A 
ATOM      4  C   UNL     1       2.130   4.994  18.630  0.00  0.00    +0.000 A 
ATOM      5  C   UNL     1       1.988   3.612  18.566  0.00  0.00    +0.000 A 
ATOM      6 CL   UNL     1       0.748   2.836  19.470  0.00  0.00    +0.000 Cl
ATOM      7  C   UNL     1       2.849   2.855  17.776  0.00  0.00    +0.000 A 
ATOM      8  C   UNL     1       3.850   3.488  17.029  0.00  0.00    +0.000 A 
ENDBRANCH   1   2
BRANCH   1   9
ATOM      9  C   UNL     1       6.264   6.104  17.102  0.00  0.00    +0.000 A 
ATOM     10  C   UNL     1       6.806   5.370  18.154  0.00  0.00    +0.000 A 
ATOM     11  C   UNL     1       7.803   5.951  18.939  0.00  0.00    +0.000 A 
ATOM     12  C   UNL     1       8.243   7.240  18.656  0.00  0.00    +0.000 A 
ATOM     13  C   UNL     1       7.686   7.893  17.576  0.00  0.00    +0.000 A 
ATOM     14  N   UNL     1       6.730   7.347  16.795  0.00  0.00    +0.000 NA
ENDBRANCH   1   9
BRANCH   1  16
ATOM     15  N   UNL     1       6.195   3.789  14.397  0.00  0.00    +0.000 NA
ATOM     16  C   UNL     1       5.703   4.588  15.240  0.00  0.00    +0.000 C 
ENDBRANCH   1  16
TORSDOF 3
ENDMDL
MODEL 3
REMARK VINA RESULT:      -6.7      1.750      3.776
REMARK  Name = 
REMARK  3 active torsions:
REMARK  status: ('A' for Active; 'I' for Inactive)
REMARK    1  A    between atoms: C_2  and  C_3
REMARK    2  A    between atoms: C_3  and  C_4
REMARK    3  A    between atoms: C_3  and  C_11
REMARK                            x       y       z     vdW  Elec       q    Type
REMARK                         _______ _______ _______ _____ _____    ______ ____
ROOT
ATOM      1  C   UNL     1       6.642   4.870  16.385  0.00  0.00    +0.000 C 
ENDROOT
BRANCH   1   2
ATOM      2  C   UNL     1       5.237   4.605  16.921  0.00  0.00    +0.000 A 
ATOM      3  C   UNL     1       4.350   5.652  17.234  0.00  0.00    +0.000 A 
ATOM      4  C   UNL     1       3.073   5.385  17.738  0.00  0.00    +0.000 A 
ATOM      5  C   UNL     1       2.674   4.070  17.954  0.00  0.00    +0.000 A 
ATOM      6 CL   UNL     1       1.101   3.743  18.566  0.00  0.00    +0.000 Cl
ATOM      7  C   UNL     1       3.546   3.020  17.681  0.00  0.00    +0.000 A 
ATOM      8  C   UNL     1       4.822   3.285  17.170  0.00  0.00    +0.000 A 
ENDBRANCH   1   2
BRANCH   1   9
ATOM      9  C   UNL     1       6.783   4.713  14.864  0.00  0.00    +0.000 A 
ATOM     10  C   UNL     1       5.960   3.849  14.146  0.00  0.00    +0.000 A 
ATOM     11  C   UNL     1       6.181   3.689  12.778  0.00  0.00    +0.000 A 
ATOM     12  C   UNL     1       7.206   4.395  12.155  0.00  0.00    +0.000 A 
ATOM     13  C   UNL     1       7.957   5.260  12.923  0.00  0.00    +0.000 A 
ATOM     14  N   UNL     1       7.753   5.441  14.244  0.00  0.00    +0.000 NA
ENDBRANCH   1   9
BRANCH   1  16
ATOM     15  N   UNL     1       7.507   7.428  17.052  0.00  0.00    +0.000 NA
ATOM     16  C   UNL     1       7.115   6.268  16.749  0.00  0.00    +0.000 C 
ENDBRANCH   1  16
TORSDOF 3
ENDMDL
MODEL 4
REMARK VINA RESULT:      -6.6      0.763      1.220
REMARK  Name = 
REMARK  3 active torsions:
REMARK  status: ('A' for Active; 'I' for Inactive)
REMARK    1  A    between atoms: C_2  and  C_3
REMARK    2  A    between atoms: C_3  and  C_4
REMARK    3  A    between atoms: C_3  and  C_11
REMARK                            x       y       z     vdW  Elec       q    Type
REMARK                         _______ _______ _______ _____ _____    ______ ____
ROOT
ATOM      1  C   UNL     1       4.976   5.475  16.399  0.00  0.00    +0.000 C 
ENDROOT
BRANCH   1   2
ATOM      2  C   UNL     1       3.880   4.721  17.148  0.00  0.00    +0.000 A 
ATOM      3  C   UNL     1       3.746   3.323  17.061  0.00  0.00    +0.000 A 
ATOM      4  C   UNL     1       2.725   2.656  17.745  0.00  0.00    +0.000 A 
ATOM      5  C   UNL     1       1.813   3.378  18.507  0.00  0.00    +0.000 A 
ATOM      6 CL   UNL     1       0.563   2.555  19.353  0.00  0.00    +0.000 Cl
ATOM      7  C   UNL     1       1.907   4.765  18.582  0.00  0.00    +0.000 A 
ATOM      8  C   UNL     1       2.933   5.434  17.904  0.00  0.00    +0.000 A 
ENDBRANCH   1   2
BRANCH   1   9
ATOM      9  C   UNL     1       6.104   6.011  17.292  0.00  0.00    +0.000 A 
ATOM     10  C   UNL     1       6.689   7.252  17.055  0.00  0.00    +0.000 A 
ATOM     11  C   UNL     1       7.760   7.657  17.852  0.00  0.00    +0.000 A 
ATOM     12  C   UNL     1       8.219   6.824  18.868  0.00  0.00    +0.000 A 
ATOM     13  C   UNL     1       7.568   5.625  19.068  0.00  0.00    +0.000 A 
ATOM     14  N   UNL     1       6.522   5.219  18.319  0.00  0.00    +0.000 NA
ENDBRANCH   1   9
BRANCH   1  16
ATOM     15  N   UNL     1       6.139   3.878  14.442  0.00  0.00    +0.000 NA
ATOM     16  C   UNL     1       5.611   4.602  15.329  0.00  0.00    +0.000 C 
ENDBRANCH   1  16
TORSDOF 3
ENDMDL
MODEL 5
REMARK VINA RESULT:      -6.6      1.753      3.587
REMARK  Name = 
REMARK  3 active torsions:
REMARK  status: ('A' for Active; 'I' for Inactive)
REMARK    1  A    between atoms: C_2  and  C_3
REMARK    2  A    between atoms: C_3  and  C_4
REMARK    3  A    between atoms: C_3  and  C_11
REMARK                            x       y       z     vdW  Elec       q    Type
REMARK                         _______ _______ _______ _____ _____    ______ ____
ROOT
ATOM      1  C   UNL     1       6.712   4.923  16.436  0.00  0.00    +0.000 C 
ENDROOT
BRANCH   1   2
ATOM      2  C   UNL     1       5.322   4.654  17.009  0.00  0.00    +0.000 A 
ATOM      3  C   UNL     1       4.882   3.353  17.315  0.00  0.00    +0.000 A 
ATOM      4  C   UNL     1       3.599   3.131  17.825  0.00  0.00    +0.000 A 
ATOM      5  C   UNL     1       2.733   4.203  18.015  0.00  0.00    +0.000 A 
ATOM      6 CL   UNL     1       1.158   3.928  18.650  0.00  0.00    +0.000 Cl
ATOM      7  C   UNL     1       3.136   5.495  17.690  0.00  0.00    +0.000 A 
ATOM      8  C   UNL     1       4.422   5.720  17.187  0.00  0.00    +0.000 A 
ENDBRANCH   1   2
BRANCH   1   9
ATOM      9  C   UNL     1       6.817   4.750  14.914  0.00  0.00    +0.000 A 
ATOM     10  C   UNL     1       5.984   3.872  14.225  0.00  0.00    +0.000 A 
ATOM     11  C   UNL     1       6.173   3.699  12.854  0.00  0.00    +0.000 A 
ATOM     12  C   UNL     1       7.177   4.404  12.199  0.00  0.00    +0.000 A 
ATOM     13  C   UNL     1       7.940   5.284  12.939  0.00  0.00    +0.000 A 
ATOM     14  N   UNL     1       7.767   5.478  14.263  0.00  0.00    +0.000 NA
ENDBRANCH   1   9
BRANCH   1  16
ATOM     15  N   UNL     1       7.574   7.493  17.053  0.00  0.00    +0.000 NA
ATOM     16  C   UNL     1       7.183   6.328  16.773  0.00  0.00    +0.000 C 
ENDBRANCH   1  16
TORSDOF 3
ENDMDL
MODEL 6
REMARK VINA RESULT:      -6.6      0.758      1.713
REMARK  Name = 
REMARK  3 active torsions:
REMARK  status: ('A' for Active; 'I' for Inactive)
REMARK    1  A    between atoms: C_2  and  C_3
REMARK    2  A    between atoms: C_3  and  C_4
REMARK    3  A    between atoms: C_3  and  C_11
REMARK                            x       y       z     vdW  Elec       q    Type
REMARK                         _______ _______ _______ _____ _____    ______ ____
ROOT
ATOM      1  C   UNL     1       4.969   5.509  16.378  0.00  0.00    +0.000 C 
ENDROOT
BRANCH   1   2
ATOM      2  C   UNL     1       3.857   4.774  17.124  0.00  0.00    +0.000 A 
ATOM      3  C   UNL     1       2.934   5.452  17.939  0.00  0.00    +0.000 A 
ATOM      4  C   UNL     1       1.933   4.755  18.624  0.00  0.00    +0.000 A 
ATOM      5  C   UNL     1       1.856   3.371  18.518  0.00  0.00    +0.000 A 
ATOM      6 CL   UNL     1       0.619   2.516  19.354  0.00  0.00    +0.000 Cl
ATOM      7  C   UNL     1       2.778   2.675  17.741  0.00  0.00    +0.000 A 
ATOM      8  C   UNL     1       3.776   3.371  17.050  0.00  0.00    +0.000 A 
ENDBRANCH   1   2
BRANCH   1   9
ATOM      9  C   UNL     1       6.096   6.037  17.278  0.00  0.00    +0.000 A 
ATOM     10  C   UNL     1       6.722   7.253  17.015  0.00  0.00    +0.000 A 
ATOM     11  C   UNL     1       7.791   7.649  17.821  0.00  0.00    +0.000 A 
ATOM     12  C   UNL     1       8.206   6.834  18.869  0.00  0.00    +0.000 A 
ATOM     13  C   UNL     1       7.516   5.661  19.092  0.00  0.00    +0.000 A 
ATOM     14  N   UNL     1       6.472   5.264  18.335  0.00  0.00    +0.000 NA
ENDBRANCH   1   9
BRANCH   1  16
ATOM     15  N   UNL     1       6.128   3.882  14.443  0.00  0.00    +0.000 NA
ATOM     16  C   UNL     1       5.603   4.620  15.321  0.00  0.00    +0.000 C 
ENDBRANCH   1  16
TORSDOF 3
ENDMDL
MODEL 7
REMARK VINA RESULT:      -6.6      1.704      3.659
REMARK  Name = 
REMARK  3 active torsions:
REMARK  status: ('A' for Active; 'I' for Inactive)
REMARK    1  A    between atoms: C_2  and  C_3
REMARK    2  A    between atoms: C_3  and  C_4
REMARK    3  A    between atoms: C_3  and  C_11
REMARK                            x       y       z     vdW  Elec       q    Type
REMARK                         _______ _______ _______ _____ _____    ______ ____
ROOT
ATOM      1  C   UNL     1       6.704   5.385  17.200  0.00  0.00    +0.000 C 
ENDROOT
BRANCH   1   2
ATOM      2  C   UNL     1       5.390   5.281  17.972  0.00  0.00    +0.000 A 
ATOM      3  C   UNL     1       4.386   6.261  17.868  0.00  0.00    +0.000 A 
ATOM      4  C   UNL     1       3.197   6.151  18.597  0.00  0.00    +0.000 A 
ATOM      5  C   UNL     1       3.006   5.071  19.452  0.00  0.00    +0.000 A 
ATOM      6 CL   UNL     1       1.540   4.933  20.340  0.00  0.00    +0.000 Cl
ATOM      7  C   UNL     1       3.998   4.105  19.594  0.00  0.00    +0.000 A 
ATOM      8  C   UNL     1       5.186   4.210  18.861  0.00  0.00    +0.000 A 
ENDBRANCH   1   2
BRANCH   1   9
ATOM      9  C   UNL     1       6.607   4.979  15.723  0.00  0.00    +0.000 A 
ATOM     10  C   UNL     1       5.562   4.187  15.256  0.00  0.00    +0.000 A 
ATOM     11  C   UNL     1       5.564   3.786  13.920  0.00  0.00    +0.000 A 
ATOM     12  C   UNL     1       6.598   4.185  13.079  0.00  0.00    +0.000 A 
ATOM     13  C   UNL     1       7.581   4.999  13.602  0.00  0.00    +0.000 A 
ATOM     14  N   UNL     1       7.593   5.411  14.887  0.00  0.00    +0.000 NA
ENDBRANCH   1   9
BRANCH   1  16
ATOM     15  N   UNL     1       7.724   7.971  17.298  0.00  0.00    +0.000 NA
ATOM     16  C   UNL     1       7.261   6.799  17.254  0.00  0.00    +0.000 C 
ENDBRANCH   1  16
TORSDOF 3
ENDMDL
MODEL 8
REMARK VINA RESULT:      -6.5      1.714      3.506
REMARK  Name = 
REMARK  3 active torsions:
REMARK  status: ('A' for Active; 'I' for Inactive)
REMARK    1  A    between atoms: C_2  and  C_3
REMARK    2  A    between atoms: C_3  and  C_4
REMARK    3  A    between atoms: C_3  and  C_11
REMARK                            x       y       z     vdW  Elec       q    Type
REMARK                         _______ _______ _______ _____ _____    ______ ____
ROOT
ATOM      1  C   UNL     1       6.727   5.450  17.258  0.00  0.00    +0.000 C 
ENDROOT
BRANCH   1   2
ATOM      2  C   UNL     1       5.432   5.323  18.057  0.00  0.00    +0.000 A 
ATOM      3  C   UNL     1       5.182   4.223  18.898  0.00  0.00    +0.000 A 
ATOM      4  C   UNL     1       3.982   4.122  19.609  0.00  0.00    +0.000 A 
ATOM      5  C   UNL     1       3.009   5.107  19.472  0.00  0.00    +0.000 A 
ATOM      6 CL   UNL     1       1.538   4.985  20.353  0.00  0.00    +0.000 Cl
ATOM      7  C   UNL     1       3.223   6.189  18.622  0.00  0.00    +0.000 A 
ATOM      8  C   UNL     1       4.426   6.295  17.915  0.00  0.00    +0.000 A 
ENDBRANCH   1   2
BRANCH   1   9
ATOM      9  C   UNL     1       6.611   5.025  15.786  0.00  0.00    +0.000 A 
ATOM     10  C   UNL     1       5.552   4.239  15.341  0.00  0.00    +0.000 A 
ATOM     11  C   UNL     1       5.535   3.821  14.010  0.00  0.00    +0.000 A 
ATOM     12  C   UNL     1       6.565   4.197  13.154  0.00  0.00    +0.000 A 
ATOM     13  C   UNL     1       7.563   5.007  13.656  0.00  0.00    +0.000 A 
ATOM     14  N   UNL     1       7.592   5.435  14.935  0.00  0.00    +0.000 NA
ENDBRANCH   1   9
BRANCH   1  16
ATOM     15  N   UNL     1       7.688   8.059  17.308  0.00  0.00    +0.000 NA
ATOM     16  C   UNL     1       7.253   6.876  17.285  0.00  0.00    +0.000 C 
ENDBRANCH   1  16
TORSDOF 3
ENDMDL
MODEL 9
REMARK VINA RESULT:      -6.5      3.213      5.302
REMARK  Name = 
REMARK  3 active torsions:
REMARK  status: ('A' for Active; 'I' for Inactive)
REMARK    1  A    between atoms: C_2  and  C_3
REMARK    2  A    between atoms: C_3  and  C_4
REMARK    3  A    between atoms: C_3  and  C_11
REMARK                            x       y       z     vdW  Elec       q    Type
REMARK                         _______ _______ _______ _____ _____    ______ ____
ROOT
ATOM      1  C   UNL     1       5.430   5.360  18.536  0.00  0.00    +0.000 C 
ENDROOT
BRANCH   1   2
ATOM      2  C   UNL     1       5.740   4.971  17.092  0.00  0.00    +0.000 A 
ATOM      3  C   UNL     1       6.968   5.289  16.483  0.00  0.00    +0.000 A 
ATOM      4  C   UNL     1       7.224   4.936  15.155  0.00  0.00    +0.000 A 
ATOM      5  C   UNL     1       6.248   4.278  14.412  0.00  0.00    +0.000 A 
ATOM      6 CL   UNL     1       6.568   3.836  12.781  0.00  0.00    +0.000 Cl
ATOM      7  C   UNL     1       5.015   3.980  14.984  0.00  0.00    +0.000 A 
ATOM      8  C   UNL     1       4.760   4.328  16.316  0.00  0.00    +0.000 A 
ENDBRANCH   1   2
BRANCH   1   9
ATOM      9  C   UNL     1       4.440   4.426  19.247  0.00  0.00    +0.000 A 
ATOM     10  C   UNL     1       3.135   4.826  19.520  0.00  0.00    +0.000 A 
ATOM     11  C   UNL     1       2.301   3.966  20.235  0.00  0.00    +0.000 A 
ATOM     12  C   UNL     1       2.780   2.729  20.655  0.00  0.00    +0.000 A 
ATOM     13  C   UNL     1       4.072   2.385  20.317  0.00  0.00    +0.000 A 
ATOM     14  N   UNL     1       4.892   3.195  19.615  0.00  0.00    +0.000 NA
ENDBRANCH   1   9
BRANCH   1  16
ATOM     15  N   UNL     1       7.747   5.459  20.070  0.00  0.00    +0.000 NA
ATOM     16  C   UNL     1       6.696   5.414  19.374  0.00  0.00    +0.000 C 
ENDBRANCH   1  16
TORSDOF 3
ENDMDL
