MODEL 1
REMARK VINA RESULT:      -7.3      0.000      0.000
REMARK  Name = 
REMARK  3 active torsions:
REMARK  status: ('A' for Active; 'I' for Inactive)
REMARK    1  A    between atoms: C_1  and  C_2
REMARK    2  A    between atoms: C_2  and  C_3
REMARK    3  A    between atoms: C_2  and  N_8
REMARK                            x       y       z     vdW  Elec       q    Type
REMARK                         _______ _______ _______ _____ _____    ______ ____
ROOT
ATOM      1  N   UNL     1       1.178  10.391  19.369  0.00  0.00    +0.000 N 
ATOM      2  N   UNL     1       0.712   9.825  20.566  0.00  0.00    +0.000 N 
ATOM      3  C   UNL     1       1.067   8.575  20.976  0.00  0.00    +0.000 A 
ATOM      4  O   UNL     1       0.753   8.131  22.077  0.00  0.00    +0.000 OA
ATOM      5  C   UNL     1       1.870   7.745  20.024  0.00  0.00    +0.000 A 
ATOM      6  N   UNL     1       2.237   6.488  20.476  0.00  0.00    +0.000 N 
ATOM      7  C   UNL     1       2.931   5.590  19.667  0.00  0.00    +0.000 A 
ATOM      8  C   UNL     1       3.261   4.305  20.110  0.00  0.00    +0.000 A 
ATOM      9  C   UNL     1       3.975   3.440  19.278  0.00  0.00    +0.000 A 
ATOM     10 CL   UNL     1       4.370   1.856  19.828  0.00  0.00    +0.000 Cl
ATOM     11  C   UNL     1       4.377   3.842  18.004  0.00  0.00    +0.000 A 
ATOM     12  C   UNL     1       4.061   5.123  17.556  0.00  0.00    +0.000 A 
ATOM     13  C   UNL     1       3.341   5.990  18.387  0.00  0.00    +0.000 A 
ATOM     14  C   UNL     1       3.004   7.361  17.923  0.00  0.00    +0.000 A 
ATOM     15  O   UNL     1       3.426   7.728  16.831  0.00  0.00    +0.000 OA
ATOM     16  C   UNL     1       2.185   8.238  18.814  0.00  0.00    +0.000 A 
ATOM     17  C   UNL     1       1.744   9.592  18.387  0.00  0.00    +0.000 A 
ATOM     18  O   UNL     1       1.884   9.989  17.233  0.00  0.00    +0.000 OA
ATOM     19  H   UNL     1       0.278  10.428  21.259  0.00  0.00    +0.000 HD
ATOM     20  H   UNL     1       1.875   6.213  21.387  0.00  0.00    +0.000 HD
ENDROOT
BRANCH   1  22
ATOM     21  C   UNL     1      -0.670  12.044  19.699  0.00  0.00    +0.000 C 
ATOM     22  C   UNL     1       0.664  11.728  19.019  0.00  0.00    +0.000 C 
BRANCH  22  23
ATOM     23  C   UNL     1       1.724  12.794  19.230  0.00  0.00    +0.000 A 
ATOM     24  C   UNL     1       2.546  13.392  18.211  0.00  0.00    +0.000 A 
ATOM     25  C   UNL     1       3.438  14.311  18.713  0.00  0.00    +0.000 A 
ATOM     26  S   UNL     1       3.300  14.477  20.406  0.00  0.00    +0.000 S 
ATOM     27  C   UNL     1       2.049  13.315  20.472  0.00  0.00    +0.000 A 
ENDBRANCH  22  23
ENDBRANCH   1  22
TORSDOF 2
ENDMDL
MODEL 2
REMARK VINA RESULT:      -7.1      3.635      5.051
REMARK  Name = 
REMARK  3 active torsions:
REMARK  status: ('A' for Active; 'I' for Inactive)
REMARK    1  A    between atoms: C_1  and  C_2
REMARK    2  A    between atoms: C_2  and  C_3
REMARK    3  A    between atoms: C_2  and  N_8
REMARK                            x       y       z     vdW  Elec       q    Type
REMARK                         _______ _______ _______ _____ _____    ______ ____
ROOT
ATOM      1  N   UNL     1      -1.868  12.370  22.064  0.00  0.00    +0.000 N 
ATOM      2  N   UNL     1      -1.567  11.459  23.089  0.00  0.00    +0.000 N 
ATOM      3  C   UNL     1      -0.702  10.420  22.919  0.00  0.00    +0.000 A 
ATOM      4  O   UNL     1      -0.352   9.697  23.849  0.00  0.00    +0.000 OA
ATOM      5  C   UNL     1      -0.179  10.183  21.537  0.00  0.00    +0.000 A 
ATOM      6  N   UNL     1       0.716   9.136  21.398  0.00  0.00    +0.000 N 
ATOM      7  C   UNL     1       1.230   8.768  20.156  0.00  0.00    +0.000 A 
ATOM      8  C   UNL     1       2.100   7.682  20.013  0.00  0.00    +0.000 A 
ATOM      9  C   UNL     1       2.611   7.355  18.754  0.00  0.00    +0.000 A 
ATOM     10 CL   UNL     1       3.674   6.011  18.585  0.00  0.00    +0.000 Cl
ATOM     11  C   UNL     1       2.273   8.107  17.629  0.00  0.00    +0.000 A 
ATOM     12  C   UNL     1       1.415   9.197  17.762  0.00  0.00    +0.000 A 
ATOM     13  C   UNL     1       0.898   9.522  19.022  0.00  0.00    +0.000 A 
ATOM     14  C   UNL     1      -0.013  10.686  19.178  0.00  0.00    +0.000 A 
ATOM     15  O   UNL     1      -0.243  11.383  18.195  0.00  0.00    +0.000 OA
ATOM     16  C   UNL     1      -0.591  10.969  20.527  0.00  0.00    +0.000 A 
ATOM     17  C   UNL     1      -1.568  12.067  20.744  0.00  0.00    +0.000 A 
ATOM     18  O   UNL     1      -2.073  12.684  19.810  0.00  0.00    +0.000 OA
ATOM     19  H   UNL     1      -1.821  11.693  24.044  0.00  0.00    +0.000 HD
ATOM     20  H   UNL     1       0.891   8.578  22.233  0.00  0.00    +0.000 HD
ENDROOT
BRANCH   1  22
ATOM     21  C   UNL     1      -4.287  12.846  22.484  0.00  0.00    +0.000 C 
ATOM     22  C   UNL     1      -2.869  13.409  22.368  0.00  0.00    +0.000 C 
BRANCH  22  23
ATOM     23  C   UNL     1      -2.444  14.244  23.562  0.00  0.00    +0.000 A 
ATOM     24  C   UNL     1      -3.212  14.472  24.758  0.00  0.00    +0.000 A 
ATOM     25  C   UNL     1      -2.574  15.298  25.656  0.00  0.00    +0.000 A 
ATOM     26  S   UNL     1      -1.048  15.805  25.084  0.00  0.00    +0.000 S 
ATOM     27  C   UNL     1      -1.239  14.925  23.632  0.00  0.00    +0.000 A 
ENDBRANCH  22  23
ENDBRANCH   1  22
TORSDOF 2
ENDMDL
MODEL 3
REMARK VINA RESULT:      -7.0      3.894      7.448
REMARK  Name = 
REMARK  3 active torsions:
REMARK  status: ('A' for Active; 'I' for Inactive)
REMARK    1  A    between atoms: C_1  and  C_2
REMARK    2  A    between atoms: C_2  and  C_3
REMARK    3  A    between atoms: C_2  and  N_8
REMARK                            x       y       z     vdW  Elec       q    Type
REMARK                         _______ _______ _______ _____ _____    ______ ____
ROOT
ATOM      1  N   UNL     1       2.551   6.850  19.082  0.00  0.00    +0.000 N 
ATOM      2  N   UNL     1       2.579   7.736  17.994  0.00  0.00    +0.000 N 
ATOM      3  C   UNL     1       2.113   9.014  18.074  0.00  0.00    +0.000 A 
ATOM      4  O   UNL     1       2.247   9.821  17.157  0.00  0.00    +0.000 OA
ATOM      5  C   UNL     1       1.420   9.412  19.340  0.00  0.00    +0.000 A 
ATOM      6  N   UNL     1       0.978  10.723  19.402  0.00  0.00    +0.000 N 
ATOM      7  C   UNL     1       0.263  11.206  20.497  0.00  0.00    +0.000 A 
ATOM      8  C   UNL     1      -0.221  12.518  20.538  0.00  0.00    +0.000 A 
ATOM      9  C   UNL     1      -0.916  12.972  21.662  0.00  0.00    +0.000 A 
ATOM     10 CL   UNL     1      -1.517  14.585  21.701  0.00  0.00    +0.000 Cl
ATOM     11  C   UNL     1      -1.130  12.135  22.757  0.00  0.00    +0.000 A 
ATOM     12  C   UNL     1      -0.643  10.829  22.730  0.00  0.00    +0.000 A 
ATOM     13  C   UNL     1       0.049  10.370  21.603  0.00  0.00    +0.000 A 
ATOM     14  C   UNL     1       0.579   8.983  21.565  0.00  0.00    +0.000 A 
ATOM     15  O   UNL     1       0.449   8.281  22.563  0.00  0.00    +0.000 OA
ATOM     16  C   UNL     1       1.262   8.510  20.323  0.00  0.00    +0.000 A 
ATOM     17  C   UNL     1       1.749   7.113  20.182  0.00  0.00    +0.000 A 
ATOM     18  O   UNL     1       1.469   6.240  21.000  0.00  0.00    +0.000 OA
ATOM     19  H   UNL     1       3.155   7.508  17.189  0.00  0.00    +0.000 HD
ATOM     20  H   UNL     1       1.103  11.282  18.560  0.00  0.00    +0.000 HD
ENDROOT
BRANCH   1  22
ATOM     21  C   UNL     1       2.097   4.679  17.925  0.00  0.00    +0.000 C 
ATOM     22  C   UNL     1       3.031   5.478  18.837  0.00  0.00    +0.000 C 
BRANCH  22  23
ATOM     23  C   UNL     1       4.478   5.479  18.376  0.00  0.00    +0.000 A 
ATOM     24  C   UNL     1       4.937   5.448  17.012  0.00  0.00    +0.000 A 
ATOM     25  C   UNL     1       6.310   5.429  16.909  0.00  0.00    +0.000 A 
ATOM     26  S   UNL     1       7.066   5.456  18.439  0.00  0.00    +0.000 S 
ATOM     27  C   UNL     1       5.559   5.487  19.243  0.00  0.00    +0.000 A 
ENDBRANCH  22  23
ENDBRANCH   1  22
TORSDOF 2
ENDMDL
MODEL 4
REMARK VINA RESULT:      -7.0      1.152      1.377
REMARK  Name = 
REMARK  3 active torsions:
REMARK  status: ('A' for Active; 'I' for Inactive)
REMARK    1  A    between atoms: C_1  and  C_2
REMARK    2  A    between atoms: C_2  and  C_3
REMARK    3  A    between atoms: C_2  and  N_8
REMARK                            x       y       z     vdW  Elec       q    Type
REMARK                         _______ _______ _______ _____ _____    ______ ____
ROOT
ATOM      1  N   UNL     1       0.818  11.242  20.050  0.00  0.00    +0.000 N 
ATOM      2  N   UNL     1       0.413  10.690  21.275  0.00  0.00    +0.000 N 
ATOM      3  C   UNL     1       0.690   9.404  21.630  0.00  0.00    +0.000 A 
ATOM      4  O   UNL     1       0.439   8.962  22.748  0.00  0.00    +0.000 OA
ATOM      5  C   UNL     1       1.326   8.530  20.594  0.00  0.00    +0.000 A 
ATOM      6  N   UNL     1       1.619   7.236  20.990  0.00  0.00    +0.000 N 
ATOM      7  C   UNL     1       2.154   6.300  20.106  0.00  0.00    +0.000 A 
ATOM      8  C   UNL     1       2.406   4.981  20.496  0.00  0.00    +0.000 A 
ATOM      9  C   UNL     1       2.962   4.077  19.587  0.00  0.00    +0.000 A 
ATOM     10 CL   UNL     1       3.262   2.452  20.073  0.00  0.00    +0.000 Cl
ATOM     11  C   UNL     1       3.281   4.473  18.288  0.00  0.00    +0.000 A 
ATOM     12  C   UNL     1       3.042   5.788  17.893  0.00  0.00    +0.000 A 
ATOM     13  C   UNL     1       2.480   6.694  18.801  0.00  0.00    +0.000 A 
ATOM     14  C   UNL     1       2.227   8.100  18.392  0.00  0.00    +0.000 A 
ATOM     15  O   UNL     1       2.580   8.455  17.272  0.00  0.00    +0.000 OA
ATOM     16  C   UNL     1       1.574   9.024  19.369  0.00  0.00    +0.000 A 
ATOM     17  C   UNL     1       1.219  10.421  19.007  0.00  0.00    +0.000 A 
ATOM     18  O   UNL     1       1.289  10.832  17.852  0.00  0.00    +0.000 OA
ATOM     19  H   UNL     1       0.099  11.311  22.014  0.00  0.00    +0.000 HD
ATOM     20  H   UNL     1       1.317   6.971  21.926  0.00  0.00    +0.000 HD
ENDROOT
BRANCH   1  22
ATOM     21  C   UNL     1      -0.763  13.082  20.660  0.00  0.00    +0.000 C 
ATOM     22  C   UNL     1       0.396  12.627  19.770  0.00  0.00    +0.000 C 
BRANCH  22  23
ATOM     23  C   UNL     1       1.583  13.573  19.784  0.00  0.00    +0.000 A 
ATOM     24  C   UNL     1       2.480  13.798  20.887  0.00  0.00    +0.000 A 
ATOM     25  C   UNL     1       3.447  14.737  20.608  0.00  0.00    +0.000 A 
ATOM     26  S   UNL     1       3.298  15.357  19.025  0.00  0.00    +0.000 S 
ATOM     27  C   UNL     1       1.937  14.373  18.709  0.00  0.00    +0.000 A 
ENDBRANCH  22  23
ENDBRANCH   1  22
TORSDOF 2
ENDMDL
MODEL 5
REMARK VINA RESULT:      -7.0      3.347      4.599
REMARK  Name = 
REMARK  3 active torsions:
REMARK  status: ('A' for Active; 'I' for Inactive)
REMARK    1  A    between atoms: C_1  and  C_2
REMARK    2  A    between atoms: C_2  and  C_3
REMARK    3  A    between atoms: C_2  and  N_8
REMARK                            x       y       z     vdW  Elec       q    Type
REMARK                         _______ _______ _______ _____ _____    ______ ____
ROOT
ATOM      1  N   UNL     1      -1.628  12.148  22.296  0.00  0.00    +0.000 N 
ATOM      2  N   UNL     1      -1.316  11.188  23.270  0.00  0.00    +0.000 N 
ATOM      3  C   UNL     1      -0.469  10.147  23.033  0.00  0.00    +0.000 A 
ATOM      4  O   UNL     1      -0.107   9.378  23.921  0.00  0.00    +0.000 OA
ATOM      5  C   UNL     1       0.017   9.966  21.629  0.00  0.00    +0.000 A 
ATOM      6  N   UNL     1       0.894   8.916  21.422  0.00  0.00    +0.000 N 
ATOM      7  C   UNL     1       1.374   8.598  20.152  0.00  0.00    +0.000 A 
ATOM      8  C   UNL     1       2.225   7.508  19.939  0.00  0.00    +0.000 A 
ATOM      9  C   UNL     1       2.701   7.233  18.655  0.00  0.00    +0.000 A 
ATOM     10 CL   UNL     1       3.741   5.884  18.399  0.00  0.00    +0.000 Cl
ATOM     11  C   UNL     1       2.347   8.039  17.573  0.00  0.00    +0.000 A 
ATOM     12  C   UNL     1       1.508   9.133  17.776  0.00  0.00    +0.000 A 
ATOM     13  C   UNL     1       1.025   9.407  19.062  0.00  0.00    +0.000 A 
ATOM     14  C   UNL     1       0.135  10.574  19.292  0.00  0.00    +0.000 A 
ATOM     15  O   UNL     1      -0.109  11.318  18.347  0.00  0.00    +0.000 OA
ATOM     16  C   UNL     1      -0.407  10.803  20.666  0.00  0.00    +0.000 A 
ATOM     17  C   UNL     1      -1.364  11.902  20.956  0.00  0.00    +0.000 A 
ATOM     18  O   UNL     1      -1.882  12.568  20.064  0.00  0.00    +0.000 OA
ATOM     19  H   UNL     1      -1.543  11.381  24.241  0.00  0.00    +0.000 HD
ATOM     20  H   UNL     1       1.081   8.318  22.225  0.00  0.00    +0.000 HD
ENDROOT
BRANCH   1  22
ATOM     21  C   UNL     1      -3.621  12.693  23.705  0.00  0.00    +0.000 C 
ATOM     22  C   UNL     1      -2.607  13.185  22.670  0.00  0.00    +0.000 C 
BRANCH  22  23
ATOM     23  C   UNL     1      -1.912  14.476  23.063  0.00  0.00    +0.000 A 
ATOM     24  C   UNL     1      -1.487  15.522  22.170  0.00  0.00    +0.000 A 
ATOM     25  C   UNL     1      -0.858  16.560  22.819  0.00  0.00    +0.000 A 
ATOM     26  S   UNL     1      -0.773  16.301  24.504  0.00  0.00    +0.000 S 
ATOM     27  C   UNL     1      -1.573  14.797  24.368  0.00  0.00    +0.000 A 
ENDBRANCH  22  23
ENDBRANCH   1  22
TORSDOF 2
ENDMDL
MODEL 6
REMARK VINA RESULT:      -6.9      3.943      6.109
REMARK  Name = 
REMARK  3 active torsions:
REMARK  status: ('A' for Active; 'I' for Inactive)
REMARK    1  A    between atoms: C_1  and  C_2
REMARK    2  A    between atoms: C_2  and  C_3
REMARK    3  A    between atoms: C_2  and  N_8
REMARK                            x       y       z     vdW  Elec       q    Type
REMARK                         _______ _______ _______ _____ _____    ______ ____
ROOT
ATOM      1  N   UNL     1      -2.252  12.873  21.212  0.00  0.00    +0.000 N 
ATOM      2  N   UNL     1      -1.851  13.378  19.965  0.00  0.00    +0.000 N 
ATOM      3  C   UNL     1      -1.034  12.688  19.121  0.00  0.00    +0.000 A 
ATOM      4  O   UNL     1      -0.781  13.080  17.984  0.00  0.00    +0.000 OA
ATOM      5  C   UNL     1      -0.444  11.410  19.631  0.00  0.00    +0.000 A 
ATOM      6  N   UNL     1       0.363  10.718  18.744  0.00  0.00    +0.000 N 
ATOM      7  C   UNL     1       1.025   9.547  19.110  0.00  0.00    +0.000 A 
ATOM      8  C   UNL     1       1.875   8.875  18.227  0.00  0.00    +0.000 A 
ATOM      9  C   UNL     1       2.505   7.693  18.624  0.00  0.00    +0.000 A 
ATOM     10 CL   UNL     1       3.556   6.876  17.532  0.00  0.00    +0.000 Cl
ATOM     11  C   UNL     1       2.292   7.162  19.896  0.00  0.00    +0.000 A 
ATOM     12  C   UNL     1       1.439   7.820  20.782  0.00  0.00    +0.000 A 
ATOM     13  C   UNL     1       0.811   9.007  20.387  0.00  0.00    +0.000 A 
ATOM     14  C   UNL     1      -0.105   9.713  21.320  0.00  0.00    +0.000 A 
ATOM     15  O   UNL     1      -0.341   9.198  22.407  0.00  0.00    +0.000 OA
ATOM     16  C   UNL     1      -0.713  11.008  20.885  0.00  0.00    +0.000 A 
ATOM     17  C   UNL     1      -1.576  11.809  21.791  0.00  0.00    +0.000 A 
ATOM     18  O   UNL     1      -1.698  11.539  22.983  0.00  0.00    +0.000 OA
ATOM     19  H   UNL     1      -2.345  14.174  19.575  0.00  0.00    +0.000 HD
ATOM     20  H   UNL     1       0.538  11.169  17.847  0.00  0.00    +0.000 HD
ENDROOT
BRANCH   1  22
ATOM     21  C   UNL     1      -2.946  15.230  21.678  0.00  0.00    +0.000 C 
ATOM     22  C   UNL     1      -3.087  13.753  22.050  0.00  0.00    +0.000 C 
BRANCH  22  23
ATOM     23  C   UNL     1      -4.525  13.268  22.087  0.00  0.00    +0.000 A 
ATOM     24  C   UNL     1      -5.249  12.665  20.998  0.00  0.00    +0.000 A 
ATOM     25  C   UNL     1      -6.549  12.354  21.326  0.00  0.00    +0.000 A 
ATOM     26  S   UNL     1      -6.919  12.772  22.939  0.00  0.00    +0.000 S 
ATOM     27  C   UNL     1      -5.342  13.375  23.202  0.00  0.00    +0.000 A 
ENDBRANCH  22  23
ENDBRANCH   1  22
TORSDOF 2
ENDMDL
MODEL 7
REMARK VINA RESULT:      -6.9      1.556      1.994
REMARK  Name = 
REMARK  3 active torsions:
REMARK  status: ('A' for Active; 'I' for Inactive)
REMARK    1  A    between atoms: C_1  and  C_2
REMARK    2  A    between atoms: C_2  and  C_3
REMARK    3  A    between atoms: C_2  and  N_8
REMARK                            x       y       z     vdW  Elec       q    Type
REMARK                         _______ _______ _______ _____ _____    ______ ____
ROOT
ATOM      1  N   UNL     1      -0.103  11.443  20.480  0.00  0.00    +0.000 N 
ATOM      2  N   UNL     1      -0.353  10.705  21.647  0.00  0.00    +0.000 N 
ATOM      3  C   UNL     1       0.184   9.472  21.867  0.00  0.00    +0.000 A 
ATOM      4  O   UNL     1       0.058   8.882  22.937  0.00  0.00    +0.000 OA
ATOM      5  C   UNL     1       0.950   8.849  20.742  0.00  0.00    +0.000 A 
ATOM      6  N   UNL     1       1.505   7.607  21.002  0.00  0.00    +0.000 N 
ATOM      7  C   UNL     1       2.189   6.888  20.023  0.00  0.00    +0.000 A 
ATOM      8  C   UNL     1       2.710   5.615  20.275  0.00  0.00    +0.000 A 
ATOM      9  C   UNL     1       3.407   4.933  19.274  0.00  0.00    +0.000 A 
ATOM     10 CL   UNL     1       4.038   3.362  19.590  0.00  0.00    +0.000 Cl
ATOM     11  C   UNL     1       3.603   5.510  18.019  0.00  0.00    +0.000 A 
ATOM     12  C   UNL     1       3.096   6.783  17.761  0.00  0.00    +0.000 A 
ATOM     13  C   UNL     1       2.392   7.465  18.761  0.00  0.00    +0.000 A 
ATOM     14  C   UNL     1       1.852   8.825  18.500  0.00  0.00    +0.000 A 
ATOM     15  O   UNL     1       2.095   9.350  17.418  0.00  0.00    +0.000 OA
ATOM     16  C   UNL     1       1.058   9.499  19.571  0.00  0.00    +0.000 A 
ATOM     17  C   UNL     1       0.422  10.825  19.356  0.00  0.00    +0.000 A 
ATOM     18  O   UNL     1       0.375  11.352  18.248  0.00  0.00    +0.000 OA
ATOM     19  H   UNL     1      -0.763  11.176  22.449  0.00  0.00    +0.000 HD
ATOM     20  H   UNL     1       1.290   7.198  21.910  0.00  0.00    +0.000 HD
ENDROOT
BRANCH   1  22
ATOM     21  C   UNL     1      -2.118  12.779  21.123  0.00  0.00    +0.000 C 
ATOM     22  C   UNL     1      -0.800  12.736  20.346  0.00  0.00    +0.000 C 
BRANCH  22  23
ATOM     23  C   UNL     1       0.131  13.893  20.660  0.00  0.00    +0.000 A 
ATOM     24  C   UNL     1       0.905  14.646  19.708  0.00  0.00    +0.000 A 
ATOM     25  C   UNL     1       1.679  15.620  20.297  0.00  0.00    +0.000 A 
ATOM     26  S   UNL     1       1.484  15.653  21.993  0.00  0.00    +0.000 S 
ATOM     27  C   UNL     1       0.368  14.360  21.943  0.00  0.00    +0.000 A 
ENDBRANCH  22  23
ENDBRANCH   1  22
TORSDOF 2
ENDMDL
MODEL 8
REMARK VINA RESULT:      -6.9      1.070      1.398
REMARK  Name = 
REMARK  3 active torsions:
REMARK  status: ('A' for Active; 'I' for Inactive)
REMARK    1  A    between atoms: C_1  and  C_2
REMARK    2  A    between atoms: C_2  and  C_3
REMARK    3  A    between atoms: C_2  and  N_8
REMARK                            x       y       z     vdW  Elec       q    Type
REMARK                         _______ _______ _______ _____ _____    ______ ____
ROOT
ATOM      1  N   UNL     1       1.029  10.939  19.452  0.00  0.00    +0.000 N 
ATOM      2  N   UNL     1       0.374  10.545  20.628  0.00  0.00    +0.000 N 
ATOM      3  C   UNL     1       0.527   9.306  21.176  0.00  0.00    +0.000 A 
ATOM      4  O   UNL     1       0.047   9.006  22.267  0.00  0.00    +0.000 OA
ATOM      5  C   UNL     1       1.317   8.304  20.394  0.00  0.00    +0.000 A 
ATOM      6  N   UNL     1       1.477   7.063  20.986  0.00  0.00    +0.000 N 
ATOM      7  C   UNL     1       2.137   6.019  20.338  0.00  0.00    +0.000 A 
ATOM      8  C   UNL     1       2.258   4.753  20.919  0.00  0.00    +0.000 A 
ATOM      9  C   UNL     1       2.944   3.738  20.249  0.00  0.00    +0.000 A 
ATOM     10 CL   UNL     1       3.081   2.179  20.967  0.00  0.00    +0.000 Cl
ATOM     11  C   UNL     1       3.524   3.970  19.001  0.00  0.00    +0.000 A 
ATOM     12  C   UNL     1       3.417   5.231  18.417  0.00  0.00    +0.000 A 
ATOM     13  C   UNL     1       2.725   6.249  19.086  0.00  0.00    +0.000 A 
ATOM     14  C   UNL     1       2.610   7.599  18.477  0.00  0.00    +0.000 A 
ATOM     15  O   UNL     1       3.187   7.811  17.415  0.00  0.00    +0.000 OA
ATOM     16  C   UNL     1       1.816   8.643  19.193  0.00  0.00    +0.000 A 
ATOM     17  C   UNL     1       1.592   9.992  18.609  0.00  0.00    +0.000 A 
ATOM     18  O   UNL     1       1.901  10.260  17.451  0.00  0.00    +0.000 OA
ATOM     19  H   UNL     1      -0.054  11.255  21.215  0.00  0.00    +0.000 HD
ATOM     20  H   UNL     1       0.991   6.918  21.868  0.00  0.00    +0.000 HD
ENDROOT
BRANCH   1  22
ATOM     21  C   UNL     1      -0.741  12.437  18.513  0.00  0.00    +0.000 C 
ATOM     22  C   UNL     1       0.722  12.286  18.936  0.00  0.00    +0.000 C 
BRANCH  22  23
ATOM     23  C   UNL     1       1.192  13.359  19.902  0.00  0.00    +0.000 A 
ATOM     24  C   UNL     1       0.351  14.235  20.676  0.00  0.00    +0.000 A 
ATOM     25  C   UNL     1       1.068  15.126  21.443  0.00  0.00    +0.000 A 
ATOM     26  S   UNL     1       2.751  14.923  21.252  0.00  0.00    +0.000 S 
ATOM     27  C   UNL     1       2.526  13.646  20.140  0.00  0.00    +0.000 A 
ENDBRANCH  22  23
ENDBRANCH   1  22
TORSDOF 2
ENDMDL
MODEL 9
REMARK VINA RESULT:      -6.9      2.238      3.161
REMARK  Name = 
REMARK  3 active torsions:
REMARK  status: ('A' for Active; 'I' for Inactive)
REMARK    1  A    between atoms: C_1  and  C_2
REMARK    2  A    between atoms: C_2  and  C_3
REMARK    3  A    between atoms: C_2  and  N_8
REMARK                            x       y       z     vdW  Elec       q    Type
REMARK                         _______ _______ _______ _____ _____    ______ ____
ROOT
ATOM      1  N   UNL     1      -0.553  11.288  20.432  0.00  0.00    +0.000 N 
ATOM      2  N   UNL     1      -0.760  10.454  21.541  0.00  0.00    +0.000 N 
ATOM      3  C   UNL     1      -0.080   9.286  21.719  0.00  0.00    +0.000 A 
ATOM      4  O   UNL     1      -0.178   8.619  22.747  0.00  0.00    +0.000 OA
ATOM      5  C   UNL     1       0.808   8.833  20.603  0.00  0.00    +0.000 A 
ATOM      6  N   UNL     1       1.505   7.657  20.821  0.00  0.00    +0.000 N 
ATOM      7  C   UNL     1       2.317   7.090  19.841  0.00  0.00    +0.000 A 
ATOM      8  C   UNL     1       2.984   5.878  20.048  0.00  0.00    +0.000 A 
ATOM      9  C   UNL     1       3.806   5.352  19.048  0.00  0.00    +0.000 A 
ATOM     10 CL   UNL     1       4.617   3.855  19.308  0.00  0.00    +0.000 Cl
ATOM     11  C   UNL     1       3.983   6.026  17.839  0.00  0.00    +0.000 A 
ATOM     12  C   UNL     1       3.330   7.239  17.627  0.00  0.00    +0.000 A 
ATOM     13  C   UNL     1       2.502   7.765  18.626  0.00  0.00    +0.000 A 
ATOM     14  C   UNL     1       1.806   9.061  18.413  0.00  0.00    +0.000 A 
ATOM     15  O   UNL     1       2.027   9.679  17.377  0.00  0.00    +0.000 OA
ATOM     16  C   UNL     1       0.885   9.563  19.478  0.00  0.00    +0.000 A 
ATOM     17  C   UNL     1       0.096  10.811  19.304  0.00  0.00    +0.000 A 
ATOM     18  O   UNL     1       0.032  11.396  18.226  0.00  0.00    +0.000 OA
ATOM     19  H   UNL     1      -1.261  10.819  22.345  0.00  0.00    +0.000 HD
ATOM     20  H   UNL     1       1.303   7.168  21.692  0.00  0.00    +0.000 HD
ENDROOT
BRANCH   1  22
ATOM     21  C   UNL     1      -2.712  12.228  19.587  0.00  0.00    +0.000 C 
ATOM     22  C   UNL     1      -1.402  12.490  20.334  0.00  0.00    +0.000 C 
BRANCH  22  23
ATOM     23  C   UNL     1      -1.596  13.134  21.695  0.00  0.00    +0.000 A 
ATOM     24  C   UNL     1      -2.769  13.039  22.524  0.00  0.00    +0.000 A 
ATOM     25  C   UNL     1      -2.659  13.756  23.694  0.00  0.00    +0.000 A 
ATOM     26  S   UNL     1      -1.151  14.545  23.819  0.00  0.00    +0.000 S 
ATOM     27  C   UNL     1      -0.644  13.934  22.307  0.00  0.00    +0.000 A 
ENDBRANCH  22  23
ENDBRANCH   1  22
TORSDOF 2
ENDMDL
