MODEL 1
REMARK VINA RESULT:      -8.4      0.000      0.000
REMARK  Name = 
REMARK  3 active torsions:
REMARK  status: ('A' for Active; 'I' for Inactive)
REMARK    1  A    between atoms: C_6  and  C_7
REMARK    2  A    between atoms: C_19  and  C_20
REMARK    3  A    between atoms: C_22  and  C_23
REMARK                            x       y       z     vdW  Elec       q    Type
REMARK                         _______ _______ _______ _____ _____    ______ ____
ROOT
ATOM      1  O   UNL     1       0.054  11.156  22.336  0.00  0.00    +0.000 OA
ATOM      2  C   UNL     1       0.583  10.276  21.662  0.00  0.00    +0.000 A 
ATOM      3  C   UNL     1       0.926   8.986  22.289  0.00  0.00    +0.000 A 
ATOM      4  C   UNL     1       1.426   8.023  21.512  0.00  0.00    +0.000 A 
ATOM      5  N   UNL     1       1.675   8.137  20.148  0.00  0.00    +0.000 N 
ATOM      6  C   UNL     1       2.169   7.068  19.356  0.00  0.00    +0.000 A 
ATOM      7  C   UNL     1       2.510   7.222  18.060  0.00  0.00    +0.000 A 
ATOM      8  C   UNL     1       2.351   8.510  17.433  0.00  0.00    +0.000 A 
ATOM      9  C   UNL     1       1.820   9.534  18.117  0.00  0.00    +0.000 A 
ATOM     10  C   UNL     1       1.436   9.407  19.534  0.00  0.00    +0.000 A 
ATOM     11  C   UNL     1       0.891  10.455  20.208  0.00  0.00    +0.000 A 
ENDROOT
BRANCH   6  12
ATOM     12  C   UNL     1       2.242   5.696  19.896  0.00  0.00    +0.000 A 
ATOM     13  C   UNL     1       1.060   5.043  20.284  0.00  0.00    +0.000 A 
ATOM     14  C   UNL     1       1.112   3.755  20.822  0.00  0.00    +0.000 A 
ATOM     15  C   UNL     1       2.342   3.121  20.965  0.00  0.00    +0.000 A 
ATOM     16  F   UNL     1       2.388   1.892  21.496  0.00  0.00    +0.000 F 
ATOM     17  C   UNL     1       3.521   3.740  20.572  0.00  0.00    +0.000 A 
ATOM     18  C   UNL     1       3.463   5.022  20.035  0.00  0.00    +0.000 A 
ATOM     19  F   UNL     1       4.608   5.615  19.668  0.00  0.00    +0.000 F 
ENDBRANCH   6  12
BRANCH  11  20
ATOM     20  C   UNL     1       0.572  11.753  19.584  0.00  0.00    +0.000 A 
ATOM     21  C   UNL     1       1.533  12.778  19.566  0.00  0.00    +0.000 A 
ATOM     22  C   UNL     1       1.217  14.054  19.067  0.00  0.00    +0.000 A 
ATOM     23  C   UNL     1      -0.069  14.271  18.545  0.00  0.00    +0.000 A 
ATOM     24  C   UNL     1      -1.021  13.249  18.536  0.00  0.00    +0.000 A 
ATOM     25  C   UNL     1      -0.698  12.002  19.058  0.00  0.00    +0.000 A 
ATOM     26  F   UNL     1      -1.642  11.051  19.090  0.00  0.00    +0.000 F 
BRANCH  22  27
ATOM     27  C   UNL     1       2.165  15.159  19.123  0.00  0.00    +0.000 A 
ATOM     28  N   UNL     1       2.382  16.133  18.259  0.00  0.00    +0.000 NA
ATOM     29  N   UNL     1       3.338  16.954  18.822  0.00  0.00    +0.000 NA
ATOM     30  C   UNL     1       3.633  16.421  19.983  0.00  0.00    +0.000 A 
ATOM     31  O   UNL     1       2.935  15.283  20.253  0.00  0.00    +0.000 OA
ENDBRANCH  22  27
ENDBRANCH  11  20
TORSDOF 3
ENDMDL
MODEL 2
REMARK VINA RESULT:      -8.3      1.997      2.235
REMARK  Name = 
REMARK  3 active torsions:
REMARK  status: ('A' for Active; 'I' for Inactive)
REMARK    1  A    between atoms: C_6  and  C_7
REMARK    2  A    between atoms: C_19  and  C_20
REMARK    3  A    between atoms: C_22  and  C_23
REMARK                            x       y       z     vdW  Elec       q    Type
REMARK                         _______ _______ _______ _____ _____    ______ ____
ROOT
ATOM      1  O   UNL     1      -0.451   9.204  22.093  0.00  0.00    +0.000 OA
ATOM      2  C   UNL     1       0.333   8.679  21.307  0.00  0.00    +0.000 A 
ATOM      3  C   UNL     1       0.813   7.309  21.565  0.00  0.00    +0.000 A 
ATOM      4  C   UNL     1       1.601   6.737  20.651  0.00  0.00    +0.000 A 
ATOM      5  N   UNL     1       2.032   7.336  19.471  0.00  0.00    +0.000 N 
ATOM      6  C   UNL     1       2.837   6.670  18.510  0.00  0.00    +0.000 A 
ATOM      7  C   UNL     1       3.338   7.294  17.425  0.00  0.00    +0.000 A 
ATOM      8  C   UNL     1       3.036   8.687  17.206  0.00  0.00    +0.000 A 
ATOM      9  C   UNL     1       2.221   9.343  18.045  0.00  0.00    +0.000 A 
ATOM     10  C   UNL     1       1.653   8.696  19.241  0.00  0.00    +0.000 A 
ATOM     11  C   UNL     1       0.822   9.376  20.076  0.00  0.00    +0.000 A 
ENDROOT
BRANCH   6  12
ATOM     12  C   UNL     1       3.084   5.218  18.606  0.00  0.00    +0.000 A 
ATOM     13  C   UNL     1       4.210   4.754  19.307  0.00  0.00    +0.000 A 
ATOM     14  C   UNL     1       4.475   3.384  19.385  0.00  0.00    +0.000 A 
ATOM     15  C   UNL     1       3.614   2.483  18.769  0.00  0.00    +0.000 A 
ATOM     16  F   UNL     1       3.881   1.172  18.833  0.00  0.00    +0.000 F 
ATOM     17  C   UNL     1       2.486   2.918  18.085  0.00  0.00    +0.000 A 
ATOM     18  C   UNL     1       2.226   4.283  18.012  0.00  0.00    +0.000 A 
ATOM     19  F   UNL     1       1.139   4.693  17.342  0.00  0.00    +0.000 F 
ENDBRANCH   6  12
BRANCH  11  20
ATOM     20  C   UNL     1       0.363  10.756  19.828  0.00  0.00    +0.000 A 
ATOM     21  C   UNL     1       1.009  11.834  20.455  0.00  0.00    +0.000 A 
ATOM     22  C   UNL     1       0.526  13.146  20.313  0.00  0.00    +0.000 A 
ATOM     23  C   UNL     1      -0.594  13.365  19.493  0.00  0.00    +0.000 A 
ATOM     24  C   UNL     1      -1.227  12.300  18.846  0.00  0.00    +0.000 A 
ATOM     25  C   UNL     1      -0.750  11.006  19.021  0.00  0.00    +0.000 A 
ATOM     26  F   UNL     1      -1.404   9.993  18.435  0.00  0.00    +0.000 F 
BRANCH  22  27
ATOM     27  C   UNL     1       1.122  14.269  21.027  0.00  0.00    +0.000 A 
ATOM     28  N   UNL     1       1.237  14.481  22.324  0.00  0.00    +0.000 NA
ATOM     29  N   UNL     1       1.940  15.660  22.469  0.00  0.00    +0.000 NA
ATOM     30  C   UNL     1       2.198  16.078  21.254  0.00  0.00    +0.000 A 
ATOM     31  O   UNL     1       1.718  15.255  20.281  0.00  0.00    +0.000 OA
ENDBRANCH  22  27
ENDBRANCH  11  20
TORSDOF 3
ENDMDL
MODEL 3
REMARK VINA RESULT:      -8.3      2.022      2.079
REMARK  Name = 
REMARK  3 active torsions:
REMARK  status: ('A' for Active; 'I' for Inactive)
REMARK    1  A    between atoms: C_6  and  C_7
REMARK    2  A    between atoms: C_19  and  C_20
REMARK    3  A    between atoms: C_22  and  C_23
REMARK                            x       y       z     vdW  Elec       q    Type
REMARK                         _______ _______ _______ _____ _____    ______ ____
ROOT
ATOM      1  O   UNL     1      -0.530   9.238  22.358  0.00  0.00    +0.000 OA
ATOM      2  C   UNL     1       0.223   8.760  21.514  0.00  0.00    +0.000 A 
ATOM      3  C   UNL     1       0.706   7.375  21.669  0.00  0.00    +0.000 A 
ATOM      4  C   UNL     1       1.458   6.859  20.695  0.00  0.00    +0.000 A 
ATOM      5  N   UNL     1       1.850   7.528  19.540  0.00  0.00    +0.000 N 
ATOM      6  C   UNL     1       2.618   6.920  18.512  0.00  0.00    +0.000 A 
ATOM      7  C   UNL     1       3.084   7.609  17.450  0.00  0.00    +0.000 A 
ATOM      8  C   UNL     1       2.781   9.013  17.328  0.00  0.00    +0.000 A 
ATOM      9  C   UNL     1       1.999   9.618  18.234  0.00  0.00    +0.000 A 
ATOM     10  C   UNL     1       1.471   8.900  19.408  0.00  0.00    +0.000 A 
ATOM     11  C   UNL     1       0.673   9.529  20.312  0.00  0.00    +0.000 A 
ENDROOT
BRANCH   6  12
ATOM     12  C   UNL     1       2.861   5.464  18.509  0.00  0.00    +0.000 A 
ATOM     13  C   UNL     1       1.941   4.611  17.876  0.00  0.00    +0.000 A 
ATOM     14  C   UNL     1       2.142   3.229  17.887  0.00  0.00    +0.000 A 
ATOM     15  C   UNL     1       3.262   2.703  18.522  0.00  0.00    +0.000 A 
ATOM     16  F   UNL     1       3.441   1.376  18.543  0.00  0.00    +0.000 F 
ATOM     17  C   UNL     1       4.193   3.528  19.139  0.00  0.00    +0.000 A 
ATOM     18  C   UNL     1       3.989   4.904  19.124  0.00  0.00    +0.000 A 
ATOM     19  F   UNL     1       4.889   5.691  19.730  0.00  0.00    +0.000 F 
ENDBRANCH   6  12
BRANCH  11  20
ATOM     20  C   UNL     1       0.212  10.924  20.165  0.00  0.00    +0.000 A 
ATOM     21  C   UNL     1       0.879  11.958  20.842  0.00  0.00    +0.000 A 
ATOM     22  C   UNL     1       0.397  13.278  20.798  0.00  0.00    +0.000 A 
ATOM     23  C   UNL     1      -0.744  13.550  20.026  0.00  0.00    +0.000 A 
ATOM     24  C   UNL     1      -1.399  12.530  19.330  0.00  0.00    +0.000 A 
ATOM     25  C   UNL     1      -0.922  11.227  19.408  0.00  0.00    +0.000 A 
ATOM     26  F   UNL     1      -1.595  10.255  18.777  0.00  0.00    +0.000 F 
BRANCH  22  27
ATOM     27  C   UNL     1       1.017  14.351  21.565  0.00  0.00    +0.000 A 
ATOM     28  N   UNL     1       2.237  14.442  22.059  0.00  0.00    +0.000 NA
ATOM     29  N   UNL     1       2.334  15.690  22.641  0.00  0.00    +0.000 NA
ATOM     30  C   UNL     1       1.169  16.264  22.460  0.00  0.00    +0.000 A 
ATOM     31  O   UNL     1       0.277  15.486  21.786  0.00  0.00    +0.000 OA
ENDBRANCH  22  27
ENDBRANCH  11  20
TORSDOF 3
ENDMDL
MODEL 4
REMARK VINA RESULT:      -8.0      2.443      2.662
REMARK  Name = 
REMARK  3 active torsions:
REMARK  status: ('A' for Active; 'I' for Inactive)
REMARK    1  A    between atoms: C_6  and  C_7
REMARK    2  A    between atoms: C_19  and  C_20
REMARK    3  A    between atoms: C_22  and  C_23
REMARK                            x       y       z     vdW  Elec       q    Type
REMARK                         _______ _______ _______ _____ _____    ______ ____
ROOT
ATOM      1  O   UNL     1      -0.734   9.265  22.596  0.00  0.00    +0.000 OA
ATOM      2  C   UNL     1       0.039   8.875  21.725  0.00  0.00    +0.000 A 
ATOM      3  C   UNL     1       0.667   7.547  21.850  0.00  0.00    +0.000 A 
ATOM      4  C   UNL     1       1.438   7.119  20.849  0.00  0.00    +0.000 A 
ATOM      5  N   UNL     1       1.723   7.834  19.689  0.00  0.00    +0.000 N 
ATOM      6  C   UNL     1       2.517   7.318  18.632  0.00  0.00    +0.000 A 
ATOM      7  C   UNL     1       2.875   8.060  17.565  0.00  0.00    +0.000 A 
ATOM      8  C   UNL     1       2.425   9.426  17.467  0.00  0.00    +0.000 A 
ATOM      9  C   UNL     1       1.613   9.939  18.403  0.00  0.00    +0.000 A 
ATOM     10  C   UNL     1       1.199   9.161  19.584  0.00  0.00    +0.000 A 
ATOM     11  C   UNL     1       0.368   9.697  20.518  0.00  0.00    +0.000 A 
ENDROOT
BRANCH   6  12
ATOM     12  C   UNL     1       2.910   5.896  18.606  0.00  0.00    +0.000 A 
ATOM     13  C   UNL     1       4.093   5.494  19.250  0.00  0.00    +0.000 A 
ATOM     14  C   UNL     1       4.495   4.156  19.212  0.00  0.00    +0.000 A 
ATOM     15  C   UNL     1       3.712   3.224  18.538  0.00  0.00    +0.000 A 
ATOM     16  F   UNL     1       4.110   1.946  18.492  0.00  0.00    +0.000 F 
ATOM     17  C   UNL     1       2.532   3.595  17.910  0.00  0.00    +0.000 A 
ATOM     18  C   UNL     1       2.135   4.928  17.952  0.00  0.00    +0.000 A 
ATOM     19  F   UNL     1       0.998   5.278  17.334  0.00  0.00    +0.000 F 
ENDBRANCH   6  12
BRANCH  11  20
ATOM     20  C   UNL     1      -0.239  11.036  20.401  0.00  0.00    +0.000 A 
ATOM     21  C   UNL     1       0.254  12.100  21.174  0.00  0.00    +0.000 A 
ATOM     22  C   UNL     1      -0.372  13.359  21.153  0.00  0.00    +0.000 A 
ATOM     23  C   UNL     1      -1.480  13.543  20.309  0.00  0.00    +0.000 A 
ATOM     24  C   UNL     1      -1.961  12.496  19.519  0.00  0.00    +0.000 A 
ATOM     25  C   UNL     1      -1.344  11.252  19.573  0.00  0.00    +0.000 A 
ATOM     26  F   UNL     1      -1.854  10.246  18.849  0.00  0.00    +0.000 F 
BRANCH  22  27
ATOM     27  C   UNL     1       0.063  14.451  22.014  0.00  0.00    +0.000 A 
ATOM     28  N   UNL     1       1.277  14.914  22.246  0.00  0.00    +0.000 NA
ATOM     29  N   UNL     1       1.131  15.999  23.086  0.00  0.00    +0.000 NA
ATOM     30  C   UNL     1      -0.156  16.116  23.305  0.00  0.00    +0.000 A 
ATOM     31  O   UNL     1      -0.905  15.177  22.663  0.00  0.00    +0.000 OA
ENDBRANCH  22  27
ENDBRANCH  11  20
TORSDOF 3
ENDMDL
MODEL 5
REMARK VINA RESULT:      -7.9      3.102      4.051
REMARK  Name = 
REMARK  3 active torsions:
REMARK  status: ('A' for Active; 'I' for Inactive)
REMARK    1  A    between atoms: C_6  and  C_7
REMARK    2  A    between atoms: C_19  and  C_20
REMARK    3  A    between atoms: C_22  and  C_23
REMARK                            x       y       z     vdW  Elec       q    Type
REMARK                         _______ _______ _______ _____ _____    ______ ____
ROOT
ATOM      1  O   UNL     1      -0.431   9.400  22.077  0.00  0.00    +0.000 OA
ATOM      2  C   UNL     1       0.381   8.852  21.336  0.00  0.00    +0.000 A 
ATOM      3  C   UNL     1       1.070   7.630  21.788  0.00  0.00    +0.000 A 
ATOM      4  C   UNL     1       1.886   7.014  20.929  0.00  0.00    +0.000 A 
ATOM      5  N   UNL     1       2.164   7.441  19.635  0.00  0.00    +0.000 N 
ATOM      6  C   UNL     1       3.008   6.728  18.745  0.00  0.00    +0.000 A 
ATOM      7  C   UNL     1       3.356   7.207  17.533  0.00  0.00    +0.000 A 
ATOM      8  C   UNL     1       2.842   8.483  17.101  0.00  0.00    +0.000 A 
ATOM      9  C   UNL     1       1.983   9.163  17.874  0.00  0.00    +0.000 A 
ATOM     10  C   UNL     1       1.578   8.673  19.204  0.00  0.00    +0.000 A 
ATOM     11  C   UNL     1       0.699   9.374  19.970  0.00  0.00    +0.000 A 
ENDROOT
BRANCH   6  12
ATOM     12  C   UNL     1       3.471   5.365  19.069  0.00  0.00    +0.000 A 
ATOM     13  C   UNL     1       4.835   5.140  19.320  0.00  0.00    +0.000 A 
ATOM     14  C   UNL     1       5.296   3.852  19.603  0.00  0.00    +0.000 A 
ATOM     15  C   UNL     1       4.393   2.794  19.640  0.00  0.00    +0.000 A 
ATOM     16  F   UNL     1       4.842   1.558  19.896  0.00  0.00    +0.000 F 
ATOM     17  C   UNL     1       3.039   2.995  19.413  0.00  0.00    +0.000 A 
ATOM     18  C   UNL     1       2.585   4.281  19.133  0.00  0.00    +0.000 A 
ATOM     19  F   UNL     1       1.276   4.463  18.906  0.00  0.00    +0.000 F 
ENDBRANCH   6  12
BRANCH  11  20
ATOM     20  C   UNL     1       0.030  10.611  19.523  0.00  0.00    +0.000 A 
ATOM     21  C   UNL     1      -1.186  10.538  18.824  0.00  0.00    +0.000 A 
ATOM     22  C   UNL     1      -1.789  11.695  18.302  0.00  0.00    +0.000 A 
ATOM     23  C   UNL     1      -1.172  12.936  18.532  0.00  0.00    +0.000 A 
ATOM     24  C   UNL     1       0.025  13.019  19.249  0.00  0.00    +0.000 A 
ATOM     25  C   UNL     1       0.620  11.860  19.733  0.00  0.00    +0.000 A 
ATOM     26  F   UNL     1       1.795  11.955  20.371  0.00  0.00    +0.000 F 
BRANCH  22  27
ATOM     27  C   UNL     1      -3.001  11.636  17.495  0.00  0.00    +0.000 A 
ATOM     28  N   UNL     1      -3.166  11.250  16.244  0.00  0.00    +0.000 NA
ATOM     29  N   UNL     1      -4.519  11.323  15.984  0.00  0.00    +0.000 NA
ATOM     30  C   UNL     1      -5.077  11.748  17.092  0.00  0.00    +0.000 A 
ATOM     31  O   UNL     1      -4.188  11.970  18.099  0.00  0.00    +0.000 OA
ENDBRANCH  22  27
ENDBRANCH  11  20
TORSDOF 3
ENDMDL
MODEL 6
REMARK VINA RESULT:      -7.8      1.184      1.289
REMARK  Name = 
REMARK  3 active torsions:
REMARK  status: ('A' for Active; 'I' for Inactive)
REMARK    1  A    between atoms: C_6  and  C_7
REMARK    2  A    between atoms: C_19  and  C_20
REMARK    3  A    between atoms: C_22  and  C_23
REMARK                            x       y       z     vdW  Elec       q    Type
REMARK                         _______ _______ _______ _____ _____    ______ ____
ROOT
ATOM      1  O   UNL     1      -0.429  10.917  21.983  0.00  0.00    +0.000 OA
ATOM      2  C   UNL     1       0.195  10.047  21.380  0.00  0.00    +0.000 A 
ATOM      3  C   UNL     1       0.346   8.710  21.983  0.00  0.00    +0.000 A 
ATOM      4  C   UNL     1       0.960   7.764  21.268  0.00  0.00    +0.000 A 
ATOM      5  N   UNL     1       1.495   7.936  19.996  0.00  0.00    +0.000 N 
ATOM      6  C   UNL     1       2.103   6.887  19.259  0.00  0.00    +0.000 A 
ATOM      7  C   UNL     1       2.715   7.090  18.075  0.00  0.00    +0.000 A 
ATOM      8  C   UNL     1       2.744   8.417  17.511  0.00  0.00    +0.000 A 
ATOM      9  C   UNL     1       2.122   9.430  18.132  0.00  0.00    +0.000 A 
ATOM     10  C   UNL     1       1.442   9.248  19.427  0.00  0.00    +0.000 A 
ATOM     11  C   UNL     1       0.810  10.286  20.037  0.00  0.00    +0.000 A 
ENDROOT
BRANCH   6  12
ATOM     12  C   UNL     1       2.005   5.486  19.715  0.00  0.00    +0.000 A 
ATOM     13  C   UNL     1       2.362   5.163  21.036  0.00  0.00    +0.000 A 
ATOM     14  C   UNL     1       2.301   3.839  21.477  0.00  0.00    +0.000 A 
ATOM     15  C   UNL     1       1.879   2.844  20.602  0.00  0.00    +0.000 A 
ATOM     16  F   UNL     1       1.838   1.574  21.025  0.00  0.00    +0.000 F 
ATOM     17  C   UNL     1       1.505   3.142  19.299  0.00  0.00    +0.000 A 
ATOM     18  C   UNL     1       1.566   4.463  18.865  0.00  0.00    +0.000 A 
ATOM     19  F   UNL     1       1.212   4.739  17.601  0.00  0.00    +0.000 F 
ENDBRANCH   6  12
BRANCH  11  20
ATOM     20  C   UNL     1       0.682  11.630  19.442  0.00  0.00    +0.000 A 
ATOM     21  C   UNL     1       1.697  12.582  19.635  0.00  0.00    +0.000 A 
ATOM     22  C   UNL     1       1.551  13.898  19.163  0.00  0.00    +0.000 A 
ATOM     23  C   UNL     1       0.384  14.232  18.455  0.00  0.00    +0.000 A 
ATOM     24  C   UNL     1      -0.618  13.283  18.238  0.00  0.00    +0.000 A 
ATOM     25  C   UNL     1      -0.467  11.994  18.735  0.00  0.00    +0.000 A 
ATOM     26  F   UNL     1      -1.463  11.114  18.563  0.00  0.00    +0.000 F 
BRANCH  22  27
ATOM     27  C   UNL     1       2.547  14.928  19.430  0.00  0.00    +0.000 A 
ATOM     28  N   UNL     1       3.278  15.138  20.509  0.00  0.00    +0.000 NA
ATOM     29  N   UNL     1       4.110  16.200  20.219  0.00  0.00    +0.000 NA
ATOM     30  C   UNL     1       3.825  16.558  18.990  0.00  0.00    +0.000 A 
ATOM     31  O   UNL     1       2.848  15.803  18.416  0.00  0.00    +0.000 OA
ENDBRANCH  22  27
ENDBRANCH  11  20
TORSDOF 3
ENDMDL
MODEL 7
REMARK VINA RESULT:      -7.7      3.102      3.939
REMARK  Name = 
REMARK  3 active torsions:
REMARK  status: ('A' for Active; 'I' for Inactive)
REMARK    1  A    between atoms: C_6  and  C_7
REMARK    2  A    between atoms: C_19  and  C_20
REMARK    3  A    between atoms: C_22  and  C_23
REMARK                            x       y       z     vdW  Elec       q    Type
REMARK                         _______ _______ _______ _____ _____    ______ ____
ROOT
ATOM      1  O   UNL     1      -0.483   9.073  22.010  0.00  0.00    +0.000 OA
ATOM      2  C   UNL     1       0.348   8.560  21.266  0.00  0.00    +0.000 A 
ATOM      3  C   UNL     1       1.016   7.310  21.672  0.00  0.00    +0.000 A 
ATOM      4  C   UNL     1       1.854   6.736  20.806  0.00  0.00    +0.000 A 
ATOM      5  N   UNL     1       2.173   7.230  19.545  0.00  0.00    +0.000 N 
ATOM      6  C   UNL     1       3.040   6.560  18.644  0.00  0.00    +0.000 A 
ATOM      7  C   UNL     1       3.428   7.101  17.471  0.00  0.00    +0.000 A 
ATOM      8  C   UNL     1       2.934   8.402  17.093  0.00  0.00    +0.000 A 
ATOM      9  C   UNL     1       2.056   9.046  17.875  0.00  0.00    +0.000 A 
ATOM     10  C   UNL     1       1.608   8.488  19.164  0.00  0.00    +0.000 A 
ATOM     11  C   UNL     1       0.710   9.152  19.940  0.00  0.00    +0.000 A 
ENDROOT
BRANCH   6  12
ATOM     12  C   UNL     1       3.486   5.178  18.908  0.00  0.00    +0.000 A 
ATOM     13  C   UNL     1       2.582   4.116  18.735  0.00  0.00    +0.000 A 
ATOM     14  C   UNL     1       2.978   2.804  19.006  0.00  0.00    +0.000 A 
ATOM     15  C   UNL     1       4.275   2.556  19.443  0.00  0.00    +0.000 A 
ATOM     16  F   UNL     1       4.645   1.298  19.717  0.00  0.00    +0.000 F 
ATOM     17  C   UNL     1       5.190   3.587  19.604  0.00  0.00    +0.000 A 
ATOM     18  C   UNL     1       4.791   4.892  19.331  0.00  0.00    +0.000 A 
ATOM     19  F   UNL     1       5.679   5.882  19.499  0.00  0.00    +0.000 F 
ENDBRANCH   6  12
BRANCH  11  20
ATOM     20  C   UNL     1       0.062  10.416  19.541  0.00  0.00    +0.000 A 
ATOM     21  C   UNL     1      -1.132  10.389  18.802  0.00  0.00    +0.000 A 
ATOM     22  C   UNL     1      -1.713  11.578  18.325  0.00  0.00    +0.000 A 
ATOM     23  C   UNL     1      -1.096  12.800  18.642  0.00  0.00    +0.000 A 
ATOM     24  C   UNL     1       0.078  12.836  19.399  0.00  0.00    +0.000 A 
ATOM     25  C   UNL     1       0.651  11.648  19.838  0.00  0.00    +0.000 A 
ATOM     26  F   UNL     1       1.806  11.701  20.516  0.00  0.00    +0.000 F 
BRANCH  22  27
ATOM     27  C   UNL     1      -2.899  11.571  17.478  0.00  0.00    +0.000 A 
ATOM     28  N   UNL     1      -3.031  11.227  16.211  0.00  0.00    +0.000 NA
ATOM     29  N   UNL     1      -4.374  11.339  15.911  0.00  0.00    +0.000 NA
ATOM     30  C   UNL     1      -4.958  11.742  17.014  0.00  0.00    +0.000 A 
ATOM     31  O   UNL     1      -4.097  11.913  18.055  0.00  0.00    +0.000 OA
ENDBRANCH  22  27
ENDBRANCH  11  20
TORSDOF 3
ENDMDL
MODEL 8
REMARK VINA RESULT:      -7.7      4.713      8.738
REMARK  Name = 
REMARK  3 active torsions:
REMARK  status: ('A' for Active; 'I' for Inactive)
REMARK    1  A    between atoms: C_6  and  C_7
REMARK    2  A    between atoms: C_19  and  C_20
REMARK    3  A    between atoms: C_22  and  C_23
REMARK                            x       y       z     vdW  Elec       q    Type
REMARK                         _______ _______ _______ _____ _____    ______ ____
ROOT
ATOM      1  O   UNL     1       4.111   3.492  19.794  0.00  0.00    +0.000 OA
ATOM      2  C   UNL     1       3.583   4.591  19.646  0.00  0.00    +0.000 A 
ATOM      3  C   UNL     1       2.466   4.986  20.525  0.00  0.00    +0.000 A 
ATOM      4  C   UNL     1       1.966   6.216  20.392  0.00  0.00    +0.000 A 
ATOM      5  N   UNL     1       2.398   7.165  19.470  0.00  0.00    +0.000 N 
ATOM      6  C   UNL     1       1.861   8.476  19.395  0.00  0.00    +0.000 A 
ATOM      7  C   UNL     1       2.209   9.350  18.429  0.00  0.00    +0.000 A 
ATOM      8  C   UNL     1       3.181   8.959  17.437  0.00  0.00    +0.000 A 
ATOM      9  C   UNL     1       3.771   7.758  17.506  0.00  0.00    +0.000 A 
ATOM     10  C   UNL     1       3.418   6.776  18.547  0.00  0.00    +0.000 A 
ATOM     11  C   UNL     1       4.035   5.565  18.604  0.00  0.00    +0.000 A 
ENDROOT
BRANCH   6  12
ATOM     12  C   UNL     1       0.956   8.985  20.445  0.00  0.00    +0.000 A 
ATOM     13  C   UNL     1       1.295   8.802  21.797  0.00  0.00    +0.000 A 
ATOM     14  C   UNL     1       0.438   9.253  22.804  0.00  0.00    +0.000 A 
ATOM     15  C   UNL     1      -0.750   9.891  22.459  0.00  0.00    +0.000 A 
ATOM     16  F   UNL     1      -1.575  10.307  23.428  0.00  0.00    +0.000 F 
ATOM     17  C   UNL     1      -1.096  10.098  21.131  0.00  0.00    +0.000 A 
ATOM     18  C   UNL     1      -0.238   9.648  20.132  0.00  0.00    +0.000 A 
ATOM     19  F   UNL     1      -0.586   9.845  18.852  0.00  0.00    +0.000 F 
ENDBRANCH   6  12
BRANCH  11  20
ATOM     20  C   UNL     1       5.135   5.163  17.707  0.00  0.00    +0.000 A 
ATOM     21  C   UNL     1       4.867   4.850  16.364  0.00  0.00    +0.000 A 
ATOM     22  C   UNL     1       5.882   4.369  15.519  0.00  0.00    +0.000 A 
ATOM     23  C   UNL     1       7.184   4.249  16.033  0.00  0.00    +0.000 A 
ATOM     24  C   UNL     1       7.462   4.582  17.361  0.00  0.00    +0.000 A 
ATOM     25  C   UNL     1       6.440   5.031  18.189  0.00  0.00    +0.000 A 
ATOM     26  F   UNL     1       6.717   5.294  19.474  0.00  0.00    +0.000 F 
BRANCH  22  27
ATOM     27  C   UNL     1       5.610   3.950  14.149  0.00  0.00    +0.000 A 
ATOM     28  N   UNL     1       4.473   3.927  13.481  0.00  0.00    +0.000 NA
ATOM     29  N   UNL     1       4.776   3.508  12.202  0.00  0.00    +0.000 NA
ATOM     30  C   UNL     1       6.071   3.306  12.185  0.00  0.00    +0.000 A 
ATOM     31  O   UNL     1       6.678   3.564  13.377  0.00  0.00    +0.000 OA
ENDBRANCH  22  27
ENDBRANCH  11  20
TORSDOF 3
ENDMDL
MODEL 9
REMARK VINA RESULT:      -7.7      3.274      4.110
REMARK  Name = 
REMARK  3 active torsions:
REMARK  status: ('A' for Active; 'I' for Inactive)
REMARK    1  A    between atoms: C_6  and  C_7
REMARK    2  A    between atoms: C_19  and  C_20
REMARK    3  A    between atoms: C_22  and  C_23
REMARK                            x       y       z     vdW  Elec       q    Type
REMARK                         _______ _______ _______ _____ _____    ______ ____
ROOT
ATOM      1  O   UNL     1      -0.628   9.299  22.680  0.00  0.00    +0.000 OA
ATOM      2  C   UNL     1       0.122   8.914  21.786  0.00  0.00    +0.000 A 
ATOM      3  C   UNL     1       0.813   7.619  21.923  0.00  0.00    +0.000 A 
ATOM      4  C   UNL     1       1.557   7.193  20.901  0.00  0.00    +0.000 A 
ATOM      5  N   UNL     1       1.757   7.881  19.708  0.00  0.00    +0.000 N 
ATOM      6  C   UNL     1       2.525   7.366  18.632  0.00  0.00    +0.000 A 
ATOM      7  C   UNL     1       2.803   8.087  17.527  0.00  0.00    +0.000 A 
ATOM      8  C   UNL     1       2.288   9.429  17.408  0.00  0.00    +0.000 A 
ATOM      9  C   UNL     1       1.497   9.937  18.364  0.00  0.00    +0.000 A 
ATOM     10  C   UNL     1       1.171   9.180  19.587  0.00  0.00    +0.000 A 
ATOM     11  C   UNL     1       0.360   9.710  20.542  0.00  0.00    +0.000 A 
ENDROOT
BRANCH   6  12
ATOM     12  C   UNL     1       2.980   5.962  18.631  0.00  0.00    +0.000 A 
ATOM     13  C   UNL     1       4.198   5.629  19.249  0.00  0.00    +0.000 A 
ATOM     14  C   UNL     1       4.657   4.310  19.234  0.00  0.00    +0.000 A 
ATOM     15  C   UNL     1       3.897   3.327  18.609  0.00  0.00    +0.000 A 
ATOM     16  F   UNL     1       4.350   2.066  18.583  0.00  0.00    +0.000 F 
ATOM     17  C   UNL     1       2.684   3.629  18.007  0.00  0.00    +0.000 A 
ATOM     18  C   UNL     1       2.230   4.944  18.026  0.00  0.00    +0.000 A 
ATOM     19  F   UNL     1       1.061   5.227  17.433  0.00  0.00    +0.000 F 
ENDBRANCH   6  12
BRANCH  11  20
ATOM     20  C   UNL     1      -0.312  11.017  20.412  0.00  0.00    +0.000 A 
ATOM     21  C   UNL     1      -1.667  11.077  20.047  0.00  0.00    +0.000 A 
ATOM     22  C   UNL     1      -2.299  12.312  19.820  0.00  0.00    +0.000 A 
ATOM     23  C   UNL     1      -1.557  13.491  20.008  0.00  0.00    +0.000 A 
ATOM     24  C   UNL     1      -0.216  13.439  20.395  0.00  0.00    +0.000 A 
ATOM     25  C   UNL     1       0.399  12.207  20.589  0.00  0.00    +0.000 A 
ATOM     26  F   UNL     1       1.700  12.178  20.908  0.00  0.00    +0.000 F 
BRANCH  22  27
ATOM     27  C   UNL     1      -3.676  12.399  19.351  0.00  0.00    +0.000 A 
ATOM     28  N   UNL     1      -4.703  13.055  19.857  0.00  0.00    +0.000 NA
ATOM     29  N   UNL     1      -5.760  12.859  18.992  0.00  0.00    +0.000 NA
ATOM     30  C   UNL     1      -5.301  12.100  18.027  0.00  0.00    +0.000 A 
ATOM     31  O   UNL     1      -3.990  11.764  18.175  0.00  0.00    +0.000 OA
ENDBRANCH  22  27
ENDBRANCH  11  20
TORSDOF 3
ENDMDL
