MODEL 1
REMARK VINA RESULT:      -7.3      0.000      0.000
REMARK  Name = 
REMARK  9 active torsions:
REMARK  status: ('A' for Active; 'I' for Inactive)
REMARK    1  A    between atoms: C_1  and  C_2
REMARK    2  A    between atoms: C_2  and  C_3
REMARK    3  A    between atoms: C_3  and  C_4
REMARK    4  A    between atoms: C_3  and  C_5
REMARK    5  A    between atoms: C_3  and  N_6
REMARK    6  A    between atoms: C_7  and  C_9
REMARK    7  A    between atoms: C_9  and  C_10
REMARK    8  A    between atoms: C_9  and  S_11
REMARK    9  A    between atoms: S_11  and  C_14
REMARK                            x       y       z     vdW  Elec       q    Type
REMARK                         _______ _______ _______ _____ _____    ______ ____
ROOT
ATOM      1  C   UNL     1       3.691   2.643  18.935  0.00  0.00    +0.000 C 
ATOM      2  C   UNL     1       3.967   1.248  18.401  0.00  0.00    +0.000 C 
ENDROOT
BRANCH   1   4
ATOM      3  N   UNL     1       5.026   3.733  17.164  0.00  0.00    +0.000 N 
ATOM      4  C   UNL     1       4.774   3.609  18.514  0.00  0.00    +0.000 C 
ATOM      5  O   UNL     1       5.457   4.156  19.380  0.00  0.00    +0.000 OA
ATOM      6  H   UNL     1       4.330   3.384  16.509  0.00  0.00    +0.000 HD
BRANCH   3   7
ATOM      7  C   UNL     1       6.108   4.573  16.597  0.00  0.00    +0.000 C 
ATOM      8  C   UNL     1       6.396   4.167  15.139  0.00  0.00    +0.000 C 
ATOM      9  C   UNL     1       7.399   4.435  17.431  0.00  0.00    +0.000 C 
BRANCH   7  11
ATOM     10  C   UNL     1       6.683   7.010  17.330  0.00  0.00    +0.000 C 
ATOM     11  C   UNL     1       5.690   6.073  16.647  0.00  0.00    +0.000 C 
ENDBRANCH   7  11
ENDBRANCH   3   7
ENDBRANCH   1   4
BRANCH   1  12
ATOM     12  S   UNL     1       2.109   3.286  18.474  0.00  0.00    +0.000 S 
ATOM     13  O   UNL     1       2.035   3.410  17.032  0.00  0.00    +0.000 OA
ATOM     14  O   UNL     1       1.098   2.530  19.199  0.00  0.00    +0.000 OA
BRANCH  12  15
ATOM     15  C   UNL     1       2.079   4.953  19.098  0.00  0.00    +0.000 A 
ATOM     16  C   UNL     1       1.737   5.211  20.428  0.00  0.00    +0.000 A 
ATOM     17  C   UNL     1       1.676   6.531  20.882  0.00  0.00    +0.000 A 
ATOM     18  C   UNL     1       1.951   7.586  20.007  0.00  0.00    +0.000 A 
ATOM     19  C   UNL     1       2.279   7.319  18.678  0.00  0.00    +0.000 A 
ATOM     20 CL   UNL     1       2.605   8.622  17.601  0.00  0.00    +0.000 Cl
ATOM     21  C   UNL     1       2.339   6.008  18.212  0.00  0.00    +0.000 A 
ENDBRANCH  12  15
ENDBRANCH   1  12
TORSDOF 5
ENDMDL
MODEL 2
REMARK VINA RESULT:      -7.1      0.399      1.002
REMARK  Name = 
REMARK  9 active torsions:
REMARK  status: ('A' for Active; 'I' for Inactive)
REMARK    1  A    between atoms: C_1  and  C_2
REMARK    2  A    between atoms: C_2  and  C_3
REMARK    3  A    between atoms: C_3  and  C_4
REMARK    4  A    between atoms: C_3  and  C_5
REMARK    5  A    between atoms: C_3  and  N_6
REMARK    6  A    between atoms: C_7  and  C_9
REMARK    7  A    between atoms: C_9  and  C_10
REMARK    8  A    between atoms: C_9  and  S_11
REMARK    9  A    between atoms: S_11  and  C_14
REMARK                            x       y       z     vdW  Elec       q    Type
REMARK                         _______ _______ _______ _____ _____    ______ ____
ROOT
ATOM      1  C   UNL     1       3.602   2.587  18.938  0.00  0.00    +0.000 C 
ATOM      2  C   UNL     1       3.876   1.208  18.361  0.00  0.00    +0.000 C 
ENDROOT
BRANCH   1   4
ATOM      3  N   UNL     1       4.924   3.778  17.225  0.00  0.00    +0.000 N 
ATOM      4  C   UNL     1       4.697   3.557  18.567  0.00  0.00    +0.000 C 
ATOM      5  O   UNL     1       5.410   4.023  19.456  0.00  0.00    +0.000 OA
ATOM      6  H   UNL     1       4.206   3.495  16.562  0.00  0.00    +0.000 HD
BRANCH   3   7
ATOM      7  C   UNL     1       6.013   4.635  16.698  0.00  0.00    +0.000 C 
ATOM      8  C   UNL     1       5.521   6.084  16.522  0.00  0.00    +0.000 C 
ATOM      9  C   UNL     1       6.522   4.099  15.343  0.00  0.00    +0.000 C 
BRANCH   7  11
ATOM     10  C   UNL     1       7.707   5.977  18.161  0.00  0.00    +0.000 C 
ATOM     11  C   UNL     1       7.222   4.612  17.681  0.00  0.00    +0.000 C 
ENDBRANCH   7  11
ENDBRANCH   3   7
ENDBRANCH   1   4
BRANCH   1  12
ATOM     12  S   UNL     1       2.031   3.256  18.477  0.00  0.00    +0.000 S 
ATOM     13  O   UNL     1       1.962   3.385  17.034  0.00  0.00    +0.000 OA
ATOM     14  O   UNL     1       1.007   2.516  19.198  0.00  0.00    +0.000 OA
BRANCH  12  15
ATOM     15  C   UNL     1       2.027   4.922  19.104  0.00  0.00    +0.000 A 
ATOM     16  C   UNL     1       1.713   5.181  20.441  0.00  0.00    +0.000 A 
ATOM     17  C   UNL     1       1.673   6.500  20.898  0.00  0.00    +0.000 A 
ATOM     18  C   UNL     1       1.941   7.555  20.021  0.00  0.00    +0.000 A 
ATOM     19  C   UNL     1       2.241   7.287  18.685  0.00  0.00    +0.000 A 
ATOM     20 CL   UNL     1       2.558   8.589  17.605  0.00  0.00    +0.000 Cl
ATOM     21  C   UNL     1       2.281   5.977  18.216  0.00  0.00    +0.000 A 
ENDBRANCH  12  15
ENDBRANCH   1  12
TORSDOF 5
ENDMDL
MODEL 3
REMARK VINA RESULT:      -7.0      1.291      1.713
REMARK  Name = 
REMARK  9 active torsions:
REMARK  status: ('A' for Active; 'I' for Inactive)
REMARK    1  A    between atoms: C_1  and  C_2
REMARK    2  A    between atoms: C_2  and  C_3
REMARK    3  A    between atoms: C_3  and  C_4
REMARK    4  A    between atoms: C_3  and  C_5
REMARK    5  A    between atoms: C_3  and  N_6
REMARK    6  A    between atoms: C_7  and  C_9
REMARK    7  A    between atoms: C_9  and  C_10
REMARK    8  A    between atoms: C_9  and  S_11
REMARK    9  A    between atoms: S_11  and  C_14
REMARK                            x       y       z     vdW  Elec       q    Type
REMARK                         _______ _______ _______ _____ _____    ______ ____
ROOT
ATOM      1  C   UNL     1       3.976   3.579  19.774  0.00  0.00    +0.000 C 
ATOM      2  C   UNL     1       4.363   2.111  19.804  0.00  0.00    +0.000 C 
ENDROOT
BRANCH   1   4
ATOM      3  N   UNL     1       5.326   4.097  17.771  0.00  0.00    +0.000 N 
ATOM      4  C   UNL     1       5.035   4.405  19.083  0.00  0.00    +0.000 C 
ATOM      5  O   UNL     1       5.668   5.235  19.736  0.00  0.00    +0.000 OA
ATOM      6  H   UNL     1       4.665   3.523  17.252  0.00  0.00    +0.000 HD
BRANCH   3   7
ATOM      7  C   UNL     1       6.394   4.757  16.982  0.00  0.00    +0.000 C 
ATOM      8  C   UNL     1       6.422   4.203  15.544  0.00  0.00    +0.000 C 
ATOM      9  C   UNL     1       7.773   4.539  17.641  0.00  0.00    +0.000 C 
BRANCH   7  11
ATOM     10  C   UNL     1       7.316   7.163  17.393  0.00  0.00    +0.000 C 
ATOM     11  C   UNL     1       6.145   6.295  16.943  0.00  0.00    +0.000 C 
ENDBRANCH   7  11
ENDBRANCH   3   7
ENDBRANCH   1   4
BRANCH   1  12
ATOM     12  S   UNL     1       2.400   3.889  19.033  0.00  0.00    +0.000 S 
ATOM     13  O   UNL     1       2.436   3.505  17.635  0.00  0.00    +0.000 OA
ATOM     14  O   UNL     1       1.382   3.346  19.918  0.00  0.00    +0.000 OA
BRANCH  12  15
ATOM     15  C   UNL     1       2.220   5.660  19.034  0.00  0.00    +0.000 A 
ATOM     16  C   UNL     1       2.471   6.404  17.877  0.00  0.00    +0.000 A 
ATOM     17  C   UNL     1       2.367   7.797  17.915  0.00  0.00    +0.000 A 
ATOM     18  C   UNL     1       2.019   8.441  19.106  0.00  0.00    +0.000 A 
ATOM     19  C   UNL     1       1.782   7.691  20.258  0.00  0.00    +0.000 A 
ATOM     20 CL   UNL     1       1.366   8.490  21.725  0.00  0.00    +0.000 Cl
ATOM     21  C   UNL     1       1.887   6.303  20.235  0.00  0.00    +0.000 A 
ENDBRANCH  12  15
ENDBRANCH   1  12
TORSDOF 5
ENDMDL
MODEL 4
REMARK VINA RESULT:      -6.9      2.635      3.701
REMARK  Name = 
REMARK  9 active torsions:
REMARK  status: ('A' for Active; 'I' for Inactive)
REMARK    1  A    between atoms: C_1  and  C_2
REMARK    2  A    between atoms: C_2  and  C_3
REMARK    3  A    between atoms: C_3  and  C_4
REMARK    4  A    between atoms: C_3  and  C_5
REMARK    5  A    between atoms: C_3  and  N_6
REMARK    6  A    between atoms: C_7  and  C_9
REMARK    7  A    between atoms: C_9  and  C_10
REMARK    8  A    between atoms: C_9  and  S_11
REMARK    9  A    between atoms: S_11  and  C_14
REMARK                            x       y       z     vdW  Elec       q    Type
REMARK                         _______ _______ _______ _____ _____    ______ ____
ROOT
ATOM      1  C   UNL     1       3.086   6.001  17.904  0.00  0.00    +0.000 C 
ATOM      2  C   UNL     1       2.973   6.446  19.352  0.00  0.00    +0.000 C 
ENDROOT
BRANCH   1   4
ATOM      3  N   UNL     1       5.507   5.675  18.276  0.00  0.00    +0.000 N 
ATOM      4  C   UNL     1       4.513   6.096  17.418  0.00  0.00    +0.000 C 
ATOM      5  O   UNL     1       4.741   6.640  16.337  0.00  0.00    +0.000 OA
ATOM      6  H   UNL     1       5.245   5.096  19.070  0.00  0.00    +0.000 HD
BRANCH   3   7
ATOM      7  C   UNL     1       6.956   5.780  17.980  0.00  0.00    +0.000 C 
ATOM      8  C   UNL     1       7.407   4.616  17.078  0.00  0.00    +0.000 C 
ATOM      9  C   UNL     1       7.781   5.767  19.285  0.00  0.00    +0.000 C 
BRANCH   7  11
ATOM     10  C   UNL     1       8.097   8.125  18.062  0.00  0.00    +0.000 C 
ATOM     11  C   UNL     1       7.250   7.135  17.268  0.00  0.00    +0.000 C 
ENDBRANCH   7  11
ENDBRANCH   3   7
ENDBRANCH   1   4
BRANCH   1  12
ATOM     12  S   UNL     1       2.461   4.374  17.604  0.00  0.00    +0.000 S 
ATOM     13  O   UNL     1       1.067   4.452  17.215  0.00  0.00    +0.000 OA
ATOM     14  O   UNL     1       3.422   3.681  16.759  0.00  0.00    +0.000 OA
BRANCH  12  15
ATOM     15  C   UNL     1       2.467   3.568  19.192  0.00  0.00    +0.000 A 
ATOM     16  C   UNL     1       1.371   3.679  20.052  0.00  0.00    +0.000 A 
ATOM     17  C   UNL     1       1.418   3.075  21.311  0.00  0.00    +0.000 A 
ATOM     18  C   UNL     1       2.557   2.368  21.708  0.00  0.00    +0.000 A 
ATOM     19  C   UNL     1       3.650   2.273  20.847  0.00  0.00    +0.000 A 
ATOM     20 CL   UNL     1       5.055   1.413  21.344  0.00  0.00    +0.000 Cl
ATOM     21  C   UNL     1       3.618   2.874  19.591  0.00  0.00    +0.000 A 
ENDBRANCH  12  15
ENDBRANCH   1  12
TORSDOF 5
ENDMDL
MODEL 5
REMARK VINA RESULT:      -6.7      0.719      1.494
REMARK  Name = 
REMARK  9 active torsions:
REMARK  status: ('A' for Active; 'I' for Inactive)
REMARK    1  A    between atoms: C_1  and  C_2
REMARK    2  A    between atoms: C_2  and  C_3
REMARK    3  A    between atoms: C_3  and  C_4
REMARK    4  A    between atoms: C_3  and  C_5
REMARK    5  A    between atoms: C_3  and  N_6
REMARK    6  A    between atoms: C_7  and  C_9
REMARK    7  A    between atoms: C_9  and  C_10
REMARK    8  A    between atoms: C_9  and  S_11
REMARK    9  A    between atoms: S_11  and  C_14
REMARK                            x       y       z     vdW  Elec       q    Type
REMARK                         _______ _______ _______ _____ _____    ______ ____
ROOT
ATOM      1  C   UNL     1       3.917   3.349  19.527  0.00  0.00    +0.000 C 
ATOM      2  C   UNL     1       4.231   1.871  19.367  0.00  0.00    +0.000 C 
ENDROOT
BRANCH   1   4
ATOM      3  N   UNL     1       5.318   3.968  17.589  0.00  0.00    +0.000 N 
ATOM      4  C   UNL     1       4.999   4.203  18.910  0.00  0.00    +0.000 C 
ATOM      5  O   UNL     1       5.622   4.987  19.625  0.00  0.00    +0.000 OA
ATOM      6  H   UNL     1       4.666   3.432  17.023  0.00  0.00    +0.000 HD
BRANCH   3   7
ATOM      7  C   UNL     1       6.411   4.662  16.865  0.00  0.00    +0.000 C 
ATOM      8  C   UNL     1       7.724   4.580  17.666  0.00  0.00    +0.000 C 
ATOM      9  C   UNL     1       6.050   6.143  16.623  0.00  0.00    +0.000 C 
BRANCH   7  11
ATOM     10  C   UNL     1       5.653   4.475  14.375  0.00  0.00    +0.000 C 
ATOM     11  C   UNL     1       6.613   4.007  15.465  0.00  0.00    +0.000 C 
ENDBRANCH   7  11
ENDBRANCH   3   7
ENDBRANCH   1   4
BRANCH   1  12
ATOM     12  S   UNL     1       2.341   3.820  18.875  0.00  0.00    +0.000 S 
ATOM     13  O   UNL     1       2.399   3.837  17.426  0.00  0.00    +0.000 OA
ATOM     14  O   UNL     1       1.327   3.034  19.561  0.00  0.00    +0.000 OA
BRANCH  12  15
ATOM     15  C   UNL     1       2.121   5.519  19.361  0.00  0.00    +0.000 A 
ATOM     16  C   UNL     1       1.701   5.842  20.655  0.00  0.00    +0.000 A 
ATOM     17  C   UNL     1       1.491   7.180  20.999  0.00  0.00    +0.000 A 
ATOM     18  C   UNL     1       1.696   8.187  20.052  0.00  0.00    +0.000 A 
ATOM     19  C   UNL     1       2.103   7.854  18.760  0.00  0.00    +0.000 A 
ATOM     20 CL   UNL     1       2.341   9.097  17.593  0.00  0.00    +0.000 Cl
ATOM     21  C   UNL     1       2.311   6.524  18.403  0.00  0.00    +0.000 A 
ENDBRANCH  12  15
ENDBRANCH   1  12
TORSDOF 5
ENDMDL
MODEL 6
REMARK VINA RESULT:      -6.7      3.037      6.274
REMARK  Name = 
REMARK  9 active torsions:
REMARK  status: ('A' for Active; 'I' for Inactive)
REMARK    1  A    between atoms: C_1  and  C_2
REMARK    2  A    between atoms: C_2  and  C_3
REMARK    3  A    between atoms: C_3  and  C_4
REMARK    4  A    between atoms: C_3  and  C_5
REMARK    5  A    between atoms: C_3  and  N_6
REMARK    6  A    between atoms: C_7  and  C_9
REMARK    7  A    between atoms: C_9  and  C_10
REMARK    8  A    between atoms: C_9  and  S_11
REMARK    9  A    between atoms: S_11  and  C_14
REMARK                            x       y       z     vdW  Elec       q    Type
REMARK                         _______ _______ _______ _____ _____    ______ ____
ROOT
ATOM      1  C   UNL     1       6.509   4.366  17.299  0.00  0.00    +0.000 C 
ATOM      2  C   UNL     1       7.853   4.625  17.958  0.00  0.00    +0.000 C 
ENDROOT
BRANCH   1   4
ATOM      3  N   UNL     1       4.375   3.339  18.000  0.00  0.00    +0.000 N 
ATOM      4  C   UNL     1       5.428   4.165  18.334  0.00  0.00    +0.000 C 
ATOM      5  O   UNL     1       5.468   4.820  19.375  0.00  0.00    +0.000 OA
ATOM      6  H   UNL     1       4.485   2.714  17.206  0.00  0.00    +0.000 HD
BRANCH   3   7
ATOM      7  C   UNL     1       3.197   3.106  18.871  0.00  0.00    +0.000 C 
ATOM      8  C   UNL     1       3.641   2.548  20.237  0.00  0.00    +0.000 C 
ATOM      9  C   UNL     1       2.216   2.117  18.208  0.00  0.00    +0.000 C 
BRANCH   7  11
ATOM     10  C   UNL     1       2.038   4.760  20.523  0.00  0.00    +0.000 C 
ATOM     11  C   UNL     1       2.425   4.444  19.081  0.00  0.00    +0.000 C 
ENDBRANCH   7  11
ENDBRANCH   3   7
ENDBRANCH   1   4
BRANCH   1  12
ATOM     12  S   UNL     1       6.016   5.626  16.159  0.00  0.00    +0.000 S 
ATOM     13  O   UNL     1       4.569   5.696  16.108  0.00  0.00    +0.000 OA
ATOM     14  O   UNL     1       6.801   6.816  16.452  0.00  0.00    +0.000 OA
BRANCH  12  15
ATOM     15  C   UNL     1       6.520   5.034  14.557  0.00  0.00    +0.000 A 
ATOM     16  C   UNL     1       7.657   5.552  13.931  0.00  0.00    +0.000 A 
ATOM     17  C   UNL     1       8.006   5.104  12.654  0.00  0.00    +0.000 A 
ATOM     18  C   UNL     1       7.219   4.147  12.007  0.00  0.00    +0.000 A 
ATOM     19  C   UNL     1       6.079   3.646  12.636  0.00  0.00    +0.000 A 
ATOM     20 CL   UNL     1       5.105   2.478  11.830  0.00  0.00    +0.000 Cl
ATOM     21  C   UNL     1       5.717   4.087  13.906  0.00  0.00    +0.000 A 
ENDBRANCH  12  15
ENDBRANCH   1  12
TORSDOF 5
ENDMDL
MODEL 7
REMARK VINA RESULT:      -6.7      1.387      2.189
REMARK  Name = 
REMARK  9 active torsions:
REMARK  status: ('A' for Active; 'I' for Inactive)
REMARK    1  A    between atoms: C_1  and  C_2
REMARK    2  A    between atoms: C_2  and  C_3
REMARK    3  A    between atoms: C_3  and  C_4
REMARK    4  A    between atoms: C_3  and  C_5
REMARK    5  A    between atoms: C_3  and  N_6
REMARK    6  A    between atoms: C_7  and  C_9
REMARK    7  A    between atoms: C_9  and  C_10
REMARK    8  A    between atoms: C_9  and  S_11
REMARK    9  A    between atoms: S_11  and  C_14
REMARK                            x       y       z     vdW  Elec       q    Type
REMARK                         _______ _______ _______ _____ _____    ______ ____
ROOT
ATOM      1  C   UNL     1       3.928   3.849  19.689  0.00  0.00    +0.000 C 
ATOM      2  C   UNL     1       4.318   2.381  19.694  0.00  0.00    +0.000 C 
ENDROOT
BRANCH   1   4
ATOM      3  N   UNL     1       5.071   4.568  17.620  0.00  0.00    +0.000 N 
ATOM      4  C   UNL     1       4.973   4.686  18.991  0.00  0.00    +0.000 C 
ATOM      5  O   UNL     1       5.761   5.346  19.668  0.00  0.00    +0.000 OA
ATOM      6  H   UNL     1       4.298   4.140  17.117  0.00  0.00    +0.000 HD
BRANCH   3   7
ATOM      7  C   UNL     1       6.097   5.257  16.801  0.00  0.00    +0.000 C 
ATOM      8  C   UNL     1       7.479   4.609  17.014  0.00  0.00    +0.000 C 
ATOM      9  C   UNL     1       6.171   6.754  17.165  0.00  0.00    +0.000 C 
BRANCH   7  11
ATOM     10  C   UNL     1       6.161   3.908  14.568  0.00  0.00    +0.000 C 
ATOM     11  C   UNL     1       5.709   5.172  15.293  0.00  0.00    +0.000 C 
ENDBRANCH   7  11
ENDBRANCH   3   7
ENDBRANCH   1   4
BRANCH   1  12
ATOM     12  S   UNL     1       2.339   4.164  18.977  0.00  0.00    +0.000 S 
ATOM     13  O   UNL     1       2.365   3.837  17.565  0.00  0.00    +0.000 OA
ATOM     14  O   UNL     1       1.339   3.570  19.851  0.00  0.00    +0.000 OA
BRANCH  12  15
ATOM     15  C   UNL     1       2.133   5.931  19.053  0.00  0.00    +0.000 A 
ATOM     16  C   UNL     1       2.344   6.723  17.920  0.00  0.00    +0.000 A 
ATOM     17  C   UNL     1       2.220   8.111  18.015  0.00  0.00    +0.000 A 
ATOM     18  C   UNL     1       1.892   8.703  19.238  0.00  0.00    +0.000 A 
ATOM     19  C   UNL     1       1.695   7.906  20.365  0.00  0.00    +0.000 A 
ATOM     20 CL   UNL     1       1.304   8.640  21.872  0.00  0.00    +0.000 Cl
ATOM     21  C   UNL     1       1.820   6.521  20.285  0.00  0.00    +0.000 A 
ENDBRANCH  12  15
ENDBRANCH   1  12
TORSDOF 5
ENDMDL
MODEL 8
REMARK VINA RESULT:      -6.7      2.098      3.041
REMARK  Name = 
REMARK  9 active torsions:
REMARK  status: ('A' for Active; 'I' for Inactive)
REMARK    1  A    between atoms: C_1  and  C_2
REMARK    2  A    between atoms: C_2  and  C_3
REMARK    3  A    between atoms: C_3  and  C_4
REMARK    4  A    between atoms: C_3  and  C_5
REMARK    5  A    between atoms: C_3  and  N_6
REMARK    6  A    between atoms: C_7  and  C_9
REMARK    7  A    between atoms: C_9  and  C_10
REMARK    8  A    between atoms: C_9  and  S_11
REMARK    9  A    between atoms: S_11  and  C_14
REMARK                            x       y       z     vdW  Elec       q    Type
REMARK                         _______ _______ _______ _____ _____    ______ ____
ROOT
ATOM      1  C   UNL     1       3.660   5.120  19.585  0.00  0.00    +0.000 C 
ATOM      2  C   UNL     1       3.003   3.871  20.146  0.00  0.00    +0.000 C 
ENDROOT
BRANCH   1   4
ATOM      3  N   UNL     1       5.857   5.940  18.809  0.00  0.00    +0.000 N 
ATOM      4  C   UNL     1       5.117   4.874  19.274  0.00  0.00    +0.000 C 
ATOM      5  O   UNL     1       5.557   3.726  19.338  0.00  0.00    +0.000 OA
ATOM      6  H   UNL     1       5.483   6.878  18.934  0.00  0.00    +0.000 HD
BRANCH   3   7
ATOM      7  C   UNL     1       7.274   5.842  18.381  0.00  0.00    +0.000 C 
ATOM      8  C   UNL     1       8.194   5.669  19.604  0.00  0.00    +0.000 C 
ATOM      9  C   UNL     1       7.695   7.103  17.597  0.00  0.00    +0.000 C 
BRANCH   7  11
ATOM     10  C   UNL     1       6.962   4.843  15.991  0.00  0.00    +0.000 C 
ATOM     11  C   UNL     1       7.450   4.627  17.420  0.00  0.00    +0.000 C 
ENDBRANCH   7  11
ENDBRANCH   3   7
ENDBRANCH   1   4
BRANCH   1  12
ATOM     12  S   UNL     1       2.848   5.777  18.158  0.00  0.00    +0.000 S 
ATOM     13  O   UNL     1       3.834   6.118  17.151  0.00  0.00    +0.000 OA
ATOM     14  O   UNL     1       1.742   4.889  17.832  0.00  0.00    +0.000 OA
BRANCH  12  15
ATOM     15  C   UNL     1       2.152   7.328  18.685  0.00  0.00    +0.000 A 
ATOM     16  C   UNL     1       1.973   8.376  17.776  0.00  0.00    +0.000 A 
ATOM     17  C   UNL     1       1.467   9.599  18.223  0.00  0.00    +0.000 A 
ATOM     18  C   UNL     1       1.146   9.774  19.572  0.00  0.00    +0.000 A 
ATOM     19  C   UNL     1       1.339   8.727  20.473  0.00  0.00    +0.000 A 
ATOM     20 CL   UNL     1       0.955   8.950  22.136  0.00  0.00    +0.000 Cl
ATOM     21  C   UNL     1       1.848   7.504  20.042  0.00  0.00    +0.000 A 
ENDBRANCH  12  15
ENDBRANCH   1  12
TORSDOF 5
ENDMDL
MODEL 9
REMARK VINA RESULT:      -6.7      1.046      1.198
REMARK  Name = 
REMARK  9 active torsions:
REMARK  status: ('A' for Active; 'I' for Inactive)
REMARK    1  A    between atoms: C_1  and  C_2
REMARK    2  A    between atoms: C_2  and  C_3
REMARK    3  A    between atoms: C_3  and  C_4
REMARK    4  A    between atoms: C_3  and  C_5
REMARK    5  A    between atoms: C_3  and  N_6
REMARK    6  A    between atoms: C_7  and  C_9
REMARK    7  A    between atoms: C_9  and  C_10
REMARK    8  A    between atoms: C_9  and  S_11
REMARK    9  A    between atoms: S_11  and  C_14
REMARK                            x       y       z     vdW  Elec       q    Type
REMARK                         _______ _______ _______ _____ _____    ______ ____
ROOT
ATOM      1  C   UNL     1       3.707   2.685  18.791  0.00  0.00    +0.000 C 
ATOM      2  C   UNL     1       3.883   1.216  18.443  0.00  0.00    +0.000 C 
ENDROOT
BRANCH   1   4
ATOM      3  N   UNL     1       5.676   4.173  18.894  0.00  0.00    +0.000 N 
ATOM      4  C   UNL     1       4.747   3.534  18.100  0.00  0.00    +0.000 C 
ATOM      5  O   UNL     1       4.663   3.712  16.885  0.00  0.00    +0.000 OA
ATOM      6  H   UNL     1       5.788   3.858  19.854  0.00  0.00    +0.000 HD
BRANCH   3   7
ATOM      7  C   UNL     1       6.706   5.106  18.376  0.00  0.00    +0.000 C 
ATOM      8  C   UNL     1       7.617   4.391  17.360  0.00  0.00    +0.000 C 
ATOM      9  C   UNL     1       7.566   5.664  19.531  0.00  0.00    +0.000 C 
BRANCH   7  11
ATOM     10  C   UNL     1       6.934   7.495  17.354  0.00  0.00    +0.000 C 
ATOM     11  C   UNL     1       6.017   6.324  17.691  0.00  0.00    +0.000 C 
ENDBRANCH   7  11
ENDBRANCH   3   7
ENDBRANCH   1   4
BRANCH   1  12
ATOM     12  S   UNL     1       2.092   3.315  18.439  0.00  0.00    +0.000 S 
ATOM     13  O   UNL     1       1.925   3.451  17.005  0.00  0.00    +0.000 OA
ATOM     14  O   UNL     1       1.138   2.543  19.220  0.00  0.00    +0.000 OA
BRANCH  12  15
ATOM     15  C   UNL     1       2.087   4.977  19.077  0.00  0.00    +0.000 A 
ATOM     16  C   UNL     1       1.787   5.225  20.420  0.00  0.00    +0.000 A 
ATOM     17  C   UNL     1       1.744   6.541  20.886  0.00  0.00    +0.000 A 
ATOM     18  C   UNL     1       1.996   7.602  20.013  0.00  0.00    +0.000 A 
ATOM     19  C   UNL     1       2.282   7.346  18.672  0.00  0.00    +0.000 A 
ATOM     20 CL   UNL     1       2.579   8.657  17.597  0.00  0.00    +0.000 Cl
ATOM     21  C   UNL     1       2.323   6.039  18.193  0.00  0.00    +0.000 A 
ENDBRANCH  12  15
ENDBRANCH   1  12
TORSDOF 5
ENDMDL
