MODEL 1
REMARK VINA RESULT:      -8.9      0.000      0.000
REMARK  Name = 
REMARK  5 active torsions:
REMARK  status: ('A' for Active; 'I' for Inactive)
REMARK    1  A    between atoms: N_3  and  C_4
REMARK    2  A    between atoms: C_4  and  C_5
REMARK    3  A    between atoms: N_7  and  C_8
REMARK    4  A    between atoms: C_8  and  C_9
REMARK    5  A    between atoms: N_24  and  C_25
REMARK                            x       y       z     vdW  Elec       q    Type
REMARK                         _______ _______ _______ _____ _____    ______ ____
ROOT
ATOM      1  C   UNL     1       2.721   5.891  19.161  0.00  0.00    +0.000 A 
ATOM      2  C   UNL     1       4.045   5.568  19.365  0.00  0.00    +0.000 A 
ATOM      3  N   UNL     1       4.294   4.598  18.441  0.00  0.00    +0.000 N 
ATOM      4  N   UNL     1       3.214   4.373  17.670  0.00  0.00    +0.000 NA
ATOM      5  N   UNL     1       2.236   5.150  18.116  0.00  0.00    +0.000 NA
ENDROOT
BRANCH   1   6
ATOM      6  C   UNL     1       1.850   6.834  19.910  0.00  0.00    +0.000 C 
BRANCH   6   9
ATOM      7  O   UNL     1       0.975   9.393  20.930  0.00  0.00    +0.000 OA
ATOM      8  C   UNL     1       1.386   9.273  19.788  0.00  0.00    +0.000 A 
ATOM      9  N   UNL     1       1.876   8.111  19.246  0.00  0.00    +0.000 N 
ATOM     10  C   UNL     1       2.161   8.385  17.962  0.00  0.00    +0.000 A 
ATOM     11  N   UNL     1       1.949   9.609  17.597  0.00  0.00    +0.000 NA
ATOM     12  N   UNL     1       1.453  10.211  18.740  0.00  0.00    +0.000 N 
BRANCH  12  13
ATOM     13  C   UNL     1       1.051  11.562  18.735  0.00  0.00    +0.000 A 
ATOM     14  C   UNL     1       1.985  12.596  18.638  0.00  0.00    +0.000 A 
ATOM     15  C   UNL     1       1.586  13.932  18.630  0.00  0.00    +0.000 A 
ATOM     16  C   UNL     1       0.236  14.255  18.733  0.00  0.00    +0.000 A 
ATOM     17  C   UNL     1      -0.712  13.240  18.838  0.00  0.00    +0.000 A 
ATOM     18  C   UNL     1      -0.308  11.900  18.835  0.00  0.00    +0.000 A 
ENDBRANCH  12  13
ENDBRANCH   6   9
ENDBRANCH   1   6
BRANCH   3  19
ATOM     19  C   UNL     1       5.544   3.911  18.175  0.00  0.00    +0.000 C 
BRANCH  19  20
ATOM     20  C   UNL     1       6.132   4.293  16.845  0.00  0.00    +0.000 A 
ATOM     21  C   UNL     1       5.776   3.599  15.681  0.00  0.00    +0.000 A 
ATOM     22  C   UNL     1       6.310   3.973  14.436  0.00  0.00    +0.000 A 
ATOM     23  C   UNL     1       6.000   3.284  13.249  0.00  0.00    +0.000 A 
ATOM     24  C   UNL     1       6.552   3.688  12.034  0.00  0.00    +0.000 A 
ATOM     25  C   UNL     1       7.396   4.792  11.995  0.00  0.00    +0.000 A 
ATOM     26  C   UNL     1       7.699   5.475  13.175  0.00  0.00    +0.000 A 
ATOM     27  C   UNL     1       7.187   5.075  14.401  0.00  0.00    +0.000 A 
ATOM     28  N   UNL     1       7.548   5.740  15.507  0.00  0.00    +0.000 NA
ATOM     29  C   UNL     1       7.043   5.330  16.689  0.00  0.00    +0.000 A 
ATOM     30 CL   UNL     1       7.654   6.249  18.009  0.00  0.00    +0.000 Cl
ENDBRANCH  19  20
ENDBRANCH   3  19
TORSDOF 5
ENDMDL
MODEL 2
REMARK VINA RESULT:      -8.8      1.996      2.433
REMARK  Name = 
REMARK  5 active torsions:
REMARK  status: ('A' for Active; 'I' for Inactive)
REMARK    1  A    between atoms: N_3  and  C_4
REMARK    2  A    between atoms: C_4  and  C_5
REMARK    3  A    between atoms: N_7  and  C_8
REMARK    4  A    between atoms: C_8  and  C_9
REMARK    5  A    between atoms: N_24  and  C_25
REMARK                            x       y       z     vdW  Elec       q    Type
REMARK                         _______ _______ _______ _____ _____    ______ ____
ROOT
ATOM      1  C   UNL     1       2.602   7.404  17.987  0.00  0.00    +0.000 A 
ATOM      2  C   UNL     1       3.922   7.053  17.803  0.00  0.00    +0.000 A 
ATOM      3  N   UNL     1       3.960   5.731  18.127  0.00  0.00    +0.000 N 
ATOM      4  N   UNL     1       2.733   5.270  18.434  0.00  0.00    +0.000 NA
ATOM      5  N   UNL     1       1.893   6.295  18.368  0.00  0.00    +0.000 NA
ENDROOT
BRANCH   1   6
ATOM      6  C   UNL     1       1.948   8.733  17.865  0.00  0.00    +0.000 C 
BRANCH   6   9
ATOM      7  O   UNL     1       0.364  11.056  18.536  0.00  0.00    +0.000 OA
ATOM      8  C   UNL     1       0.701  10.251  19.389  0.00  0.00    +0.000 A 
ATOM      9  N   UNL     1       1.399   9.095  19.147  0.00  0.00    +0.000 N 
ATOM     10  C   UNL     1       1.621   8.530  20.345  0.00  0.00    +0.000 A 
ATOM     11  N   UNL     1       1.119   9.164  21.357  0.00  0.00    +0.000 NA
ATOM     12  N   UNL     1       0.520  10.273  20.785  0.00  0.00    +0.000 N 
BRANCH  12  13
ATOM     13  C   UNL     1      -0.109  11.251  21.580  0.00  0.00    +0.000 A 
ATOM     14  C   UNL     1      -1.051  10.901  22.551  0.00  0.00    +0.000 A 
ATOM     15  C   UNL     1      -1.671  11.869  23.339  0.00  0.00    +0.000 A 
ATOM     16  C   UNL     1      -1.363  13.215  23.158  0.00  0.00    +0.000 A 
ATOM     17  C   UNL     1      -0.432  13.587  22.191  0.00  0.00    +0.000 A 
ATOM     18  C   UNL     1       0.196  12.611  21.409  0.00  0.00    +0.000 A 
ENDBRANCH  12  13
ENDBRANCH   6   9
ENDBRANCH   1   6
BRANCH   3  19
ATOM     19  C   UNL     1       5.096   4.828  18.081  0.00  0.00    +0.000 C 
BRANCH  19  20
ATOM     20  C   UNL     1       5.809   4.876  16.758  0.00  0.00    +0.000 A 
ATOM     21  C   UNL     1       5.347   4.122  15.671  0.00  0.00    +0.000 A 
ATOM     22  C   UNL     1       6.002   4.187  14.429  0.00  0.00    +0.000 A 
ATOM     23  C   UNL     1       5.587   3.425  13.321  0.00  0.00    +0.000 A 
ATOM     24  C   UNL     1       6.266   3.518  12.107  0.00  0.00    +0.000 A 
ATOM     25  C   UNL     1       7.345   4.386  11.986  0.00  0.00    +0.000 A 
ATOM     26  C   UNL     1       7.752   5.143  13.088  0.00  0.00    +0.000 A 
ATOM     27  C   UNL     1       7.112   5.046  14.315  0.00  0.00    +0.000 A 
ATOM     28  N   UNL     1       7.574   5.762  15.350  0.00  0.00    +0.000 NA
ATOM     29  C   UNL     1       6.941   5.647  16.535  0.00  0.00    +0.000 A 
ATOM     30 CL   UNL     1       7.697   6.582  17.767  0.00  0.00    +0.000 Cl
ENDBRANCH  19  20
ENDBRANCH   3  19
TORSDOF 5
ENDMDL
MODEL 3
REMARK VINA RESULT:      -8.3      5.822      8.556
REMARK  Name = 
REMARK  5 active torsions:
REMARK  status: ('A' for Active; 'I' for Inactive)
REMARK    1  A    between atoms: N_3  and  C_4
REMARK    2  A    between atoms: C_4  and  C_5
REMARK    3  A    between atoms: N_7  and  C_8
REMARK    4  A    between atoms: C_8  and  C_9
REMARK    5  A    between atoms: N_24  and  C_25
REMARK                            x       y       z     vdW  Elec       q    Type
REMARK                         _______ _______ _______ _____ _____    ______ ____
ROOT
ATOM      1  C   UNL     1       7.697   7.682  17.716  0.00  0.00    +0.000 A 
ATOM      2  C   UNL     1       8.534   7.847  18.798  0.00  0.00    +0.000 A 
ATOM      3  N   UNL     1       8.742   9.192  18.853  0.00  0.00    +0.000 N 
ATOM      4  N   UNL     1       8.032   9.832  17.904  0.00  0.00    +0.000 NA
ATOM      5  N   UNL     1       7.400   8.911  17.189  0.00  0.00    +0.000 NA
ENDROOT
BRANCH   1   6
ATOM      6  C   UNL     1       7.173   6.433  17.105  0.00  0.00    +0.000 C 
BRANCH   6   9
ATOM      7  O   UNL     1       6.233   4.417  18.952  0.00  0.00    +0.000 OA
ATOM      8  C   UNL     1       5.461   5.195  18.416  0.00  0.00    +0.000 A 
ATOM      9  N   UNL     1       5.830   6.217  17.577  0.00  0.00    +0.000 N 
ATOM     10  C   UNL     1       4.690   6.791  17.158  0.00  0.00    +0.000 A 
ATOM     11  N   UNL     1       3.603   6.287  17.651  0.00  0.00    +0.000 NA
ATOM     12  N   UNL     1       4.055   5.262  18.464  0.00  0.00    +0.000 N 
BRANCH  12  13
ATOM     13  C   UNL     1       3.153   4.430  19.155  0.00  0.00    +0.000 A 
ATOM     14  C   UNL     1       2.977   3.092  18.791  0.00  0.00    +0.000 A 
ATOM     15  C   UNL     1       2.086   2.268  19.477  0.00  0.00    +0.000 A 
ATOM     16  C   UNL     1       1.342   2.778  20.538  0.00  0.00    +0.000 A 
ATOM     17  C   UNL     1       1.498   4.111  20.913  0.00  0.00    +0.000 A 
ATOM     18  C   UNL     1       2.401   4.932  20.228  0.00  0.00    +0.000 A 
ENDBRANCH  12  13
ENDBRANCH   6   9
ENDBRANCH   1   6
BRANCH   3  19
ATOM     19  C   UNL     1       9.520   9.942  19.821  0.00  0.00    +0.000 C 
BRANCH  19  20
ATOM     20  C   UNL     1       9.734  11.368  19.399  0.00  0.00    +0.000 A 
ATOM     21  C   UNL     1      10.457  11.668  18.236  0.00  0.00    +0.000 A 
ATOM     22  C   UNL     1      10.635  13.002  17.831  0.00  0.00    +0.000 A 
ATOM     23  C   UNL     1      11.378  13.346  16.687  0.00  0.00    +0.000 A 
ATOM     24  C   UNL     1      11.532  14.683  16.321  0.00  0.00    +0.000 A 
ATOM     25  C   UNL     1      10.927  15.678  17.080  0.00  0.00    +0.000 A 
ATOM     26  C   UNL     1      10.188  15.332  18.214  0.00  0.00    +0.000 A 
ATOM     27  C   UNL     1      10.046  14.012  18.617  0.00  0.00    +0.000 A 
ATOM     28  N   UNL     1       9.364  13.742  19.739  0.00  0.00    +0.000 NA
ATOM     29  C   UNL     1       9.244  12.452  20.115  0.00  0.00    +0.000 A 
ATOM     30 CL   UNL     1       8.396  12.288  21.603  0.00  0.00    +0.000 Cl
ENDBRANCH  19  20
ENDBRANCH   3  19
TORSDOF 5
ENDMDL
MODEL 4
REMARK VINA RESULT:      -8.1      3.060      9.061
REMARK  Name = 
REMARK  5 active torsions:
REMARK  status: ('A' for Active; 'I' for Inactive)
REMARK    1  A    between atoms: N_3  and  C_4
REMARK    2  A    between atoms: C_4  and  C_5
REMARK    3  A    between atoms: N_7  and  C_8
REMARK    4  A    between atoms: C_8  and  C_9
REMARK    5  A    between atoms: N_24  and  C_25
REMARK                            x       y       z     vdW  Elec       q    Type
REMARK                         _______ _______ _______ _____ _____    ______ ____
ROOT
ATOM      1  C   UNL     1       1.660   6.766  20.556  0.00  0.00    +0.000 A 
ATOM      2  C   UNL     1       1.984   7.689  19.586  0.00  0.00    +0.000 A 
ATOM      3  N   UNL     1       1.286   8.803  19.944  0.00  0.00    +0.000 N 
ATOM      4  N   UNL     1       0.617   8.607  21.096  0.00  0.00    +0.000 NA
ATOM      5  N   UNL     1       0.826   7.352  21.472  0.00  0.00    +0.000 NA
ENDROOT
BRANCH   1   6
ATOM      6  C   UNL     1       2.051   5.337  20.673  0.00  0.00    +0.000 C 
BRANCH   6   9
ATOM      7  O   UNL     1       4.767   5.581  19.711  0.00  0.00    +0.000 OA
ATOM      8  C   UNL     1       3.886   5.109  19.011  0.00  0.00    +0.000 A 
ATOM      9  N   UNL     1       2.590   4.902  19.410  0.00  0.00    +0.000 N 
ATOM     10  C   UNL     1       1.935   4.431  18.336  0.00  0.00    +0.000 A 
ATOM     11  N   UNL     1       2.658   4.268  17.275  0.00  0.00    +0.000 NA
ATOM     12  N   UNL     1       3.917   4.690  17.667  0.00  0.00    +0.000 N 
BRANCH  12  13
ATOM     13  C   UNL     1       4.994   4.709  16.759  0.00  0.00    +0.000 A 
ATOM     14  C   UNL     1       6.133   5.482  17.001  0.00  0.00    +0.000 A 
ATOM     15  C   UNL     1       7.199   5.498  16.103  0.00  0.00    +0.000 A 
ATOM     16  C   UNL     1       7.136   4.744  14.934  0.00  0.00    +0.000 A 
ATOM     17  C   UNL     1       6.007   3.972  14.670  0.00  0.00    +0.000 A 
ATOM     18  C   UNL     1       4.943   3.951  15.579  0.00  0.00    +0.000 A 
ENDBRANCH  12  13
ENDBRANCH   6   9
ENDBRANCH   1   6
BRANCH   3  19
ATOM     19  C   UNL     1       1.275  10.102  19.298  0.00  0.00    +0.000 C 
BRANCH  19  20
ATOM     20  C   UNL     1      -0.112  10.537  18.914  0.00  0.00    +0.000 A 
ATOM     21  C   UNL     1      -0.692  10.097  17.717  0.00  0.00    +0.000 A 
ATOM     22  C   UNL     1      -1.998  10.485  17.372  0.00  0.00    +0.000 A 
ATOM     23  C   UNL     1      -2.606  10.088  16.167  0.00  0.00    +0.000 A 
ATOM     24  C   UNL     1      -3.904  10.498  15.863  0.00  0.00    +0.000 A 
ATOM     25  C   UNL     1      -4.607  11.284  16.768  0.00  0.00    +0.000 A 
ATOM     26  C   UNL     1      -4.001  11.675  17.965  0.00  0.00    +0.000 A 
ATOM     27  C   UNL     1      -2.700  11.306  18.277  0.00  0.00    +0.000 A 
ATOM     28  N   UNL     1      -2.153  11.747  19.419  0.00  0.00    +0.000 NA
ATOM     29  C   UNL     1      -0.886  11.381  19.699  0.00  0.00    +0.000 A 
ATOM     30 CL   UNL     1      -0.319  12.081  21.166  0.00  0.00    +0.000 Cl
ENDBRANCH  19  20
ENDBRANCH   3  19
TORSDOF 5
ENDMDL
MODEL 5
REMARK VINA RESULT:      -8.1      3.144      4.993
REMARK  Name = 
REMARK  5 active torsions:
REMARK  status: ('A' for Active; 'I' for Inactive)
REMARK    1  A    between atoms: N_3  and  C_4
REMARK    2  A    between atoms: C_4  and  C_5
REMARK    3  A    between atoms: N_7  and  C_8
REMARK    4  A    between atoms: C_8  and  C_9
REMARK    5  A    between atoms: N_24  and  C_25
REMARK                            x       y       z     vdW  Elec       q    Type
REMARK                         _______ _______ _______ _____ _____    ______ ____
ROOT
ATOM      1  C   UNL     1       0.365   9.748  19.567  0.00  0.00    +0.000 A 
ATOM      2  C   UNL     1       1.023   9.642  18.361  0.00  0.00    +0.000 A 
ATOM      3  N   UNL     1       1.999   8.721  18.597  0.00  0.00    +0.000 N 
ATOM      4  N   UNL     1       1.917   8.238  19.851  0.00  0.00    +0.000 NA
ATOM      5  N   UNL     1       0.927   8.876  20.461  0.00  0.00    +0.000 NA
ENDROOT
BRANCH   1   6
ATOM      6  C   UNL     1      -0.748  10.649  19.964  0.00  0.00    +0.000 C 
BRANCH   6   9
ATOM      7  O   UNL     1      -0.989  12.815  18.065  0.00  0.00    +0.000 OA
ATOM      8  C   UNL     1      -0.351  12.945  19.096  0.00  0.00    +0.000 A 
ATOM      9  N   UNL     1      -0.237  11.991  20.076  0.00  0.00    +0.000 N 
ATOM     10  C   UNL     1       0.593  12.499  21.002  0.00  0.00    +0.000 A 
ATOM     11  N   UNL     1       1.018  13.699  20.766  0.00  0.00    +0.000 NA
ATOM     12  N   UNL     1       0.434  14.021  19.553  0.00  0.00    +0.000 N 
BRANCH  12  13
ATOM     13  C   UNL     1       0.695  15.255  18.925  0.00  0.00    +0.000 A 
ATOM     14  C   UNL     1       1.994  15.624  18.564  0.00  0.00    +0.000 A 
ATOM     15  C   UNL     1       2.250  16.844  17.940  0.00  0.00    +0.000 A 
ATOM     16  C   UNL     1       1.205  17.725  17.676  0.00  0.00    +0.000 A 
ATOM     17  C   UNL     1      -0.097  17.379  18.033  0.00  0.00    +0.000 A 
ATOM     18  C   UNL     1      -0.352  16.149  18.650  0.00  0.00    +0.000 A 
ENDBRANCH  12  13
ENDBRANCH   6   9
ENDBRANCH   1   6
BRANCH   3  19
ATOM     19  C   UNL     1       2.976   8.189  17.665  0.00  0.00    +0.000 C 
BRANCH  19  20
ATOM     20  C   UNL     1       3.180   6.710  17.836  0.00  0.00    +0.000 A 
ATOM     21  C   UNL     1       2.103   5.872  18.153  0.00  0.00    +0.000 A 
ATOM     22  C   UNL     1       2.293   4.486  18.289  0.00  0.00    +0.000 A 
ATOM     23  C   UNL     1       1.243   3.615  18.635  0.00  0.00    +0.000 A 
ATOM     24  C   UNL     1       1.476   2.246  18.761  0.00  0.00    +0.000 A 
ATOM     25  C   UNL     1       2.747   1.738  18.521  0.00  0.00    +0.000 A 
ATOM     26  C   UNL     1       3.786   2.606  18.175  0.00  0.00    +0.000 A 
ATOM     27  C   UNL     1       3.588   3.976  18.073  0.00  0.00    +0.000 A 
ATOM     28  N   UNL     1       4.631   4.766  17.783  0.00  0.00    +0.000 NA
ATOM     29  C   UNL     1       4.417   6.095  17.695  0.00  0.00    +0.000 A 
ATOM     30 CL   UNL     1       5.867   6.965  17.378  0.00  0.00    +0.000 Cl
ENDBRANCH  19  20
ENDBRANCH   3  19
TORSDOF 5
ENDMDL
MODEL 6
REMARK VINA RESULT:      -8.1      2.873      4.581
REMARK  Name = 
REMARK  5 active torsions:
REMARK  status: ('A' for Active; 'I' for Inactive)
REMARK    1  A    between atoms: N_3  and  C_4
REMARK    2  A    between atoms: C_4  and  C_5
REMARK    3  A    between atoms: N_7  and  C_8
REMARK    4  A    between atoms: C_8  and  C_9
REMARK    5  A    between atoms: N_24  and  C_25
REMARK                            x       y       z     vdW  Elec       q    Type
REMARK                         _______ _______ _______ _____ _____    ______ ____
ROOT
ATOM      1  C   UNL     1       1.500   9.148  19.212  0.00  0.00    +0.000 A 
ATOM      2  C   UNL     1       2.053   7.957  18.796  0.00  0.00    +0.000 A 
ATOM      3  N   UNL     1       2.015   7.169  19.907  0.00  0.00    +0.000 N 
ATOM      4  N   UNL     1       1.421   7.807  20.934  0.00  0.00    +0.000 NA
ATOM      5  N   UNL     1       1.116   9.030  20.522  0.00  0.00    +0.000 NA
ENDROOT
BRANCH   1   6
ATOM      6  C   UNL     1       1.333  10.425  18.471  0.00  0.00    +0.000 C 
BRANCH   6   9
ATOM      7  O   UNL     1      -1.294   9.818  17.429  0.00  0.00    +0.000 OA
ATOM      8  C   UNL     1      -1.128  10.702  18.253  0.00  0.00    +0.000 A 
ATOM      9  N   UNL     1       0.071  11.012  18.842  0.00  0.00    +0.000 N 
ATOM     10  C   UNL     1      -0.161  12.073  19.634  0.00  0.00    +0.000 A 
ATOM     11  N   UNL     1      -1.389  12.482  19.664  0.00  0.00    +0.000 NA
ATOM     12  N   UNL     1      -2.042  11.627  18.793  0.00  0.00    +0.000 N 
BRANCH  12  13
ATOM     13  C   UNL     1      -3.414  11.780  18.515  0.00  0.00    +0.000 A 
ATOM     14  C   UNL     1      -3.932  11.507  17.246  0.00  0.00    +0.000 A 
ATOM     15  C   UNL     1      -5.290  11.656  16.972  0.00  0.00    +0.000 A 
ATOM     16  C   UNL     1      -6.157  12.098  17.969  0.00  0.00    +0.000 A 
ATOM     17  C   UNL     1      -5.661  12.382  19.239  0.00  0.00    +0.000 A 
ATOM     18  C   UNL     1      -4.298  12.221  19.513  0.00  0.00    +0.000 A 
ENDBRANCH  12  13
ENDBRANCH   6   9
ENDBRANCH   1   6
BRANCH   3  19
ATOM     19  C   UNL     1       2.437   5.788  20.043  0.00  0.00    +0.000 C 
BRANCH  19  20
ATOM     20  C   UNL     1       3.255   5.324  18.870  0.00  0.00    +0.000 A 
ATOM     21  C   UNL     1       4.518   5.875  18.617  0.00  0.00    +0.000 A 
ATOM     22  C   UNL     1       5.290   5.422  17.534  0.00  0.00    +0.000 A 
ATOM     23  C   UNL     1       6.550   5.970  17.229  0.00  0.00    +0.000 A 
ATOM     24  C   UNL     1       7.283   5.492  16.143  0.00  0.00    +0.000 A 
ATOM     25  C   UNL     1       6.773   4.453  15.373  0.00  0.00    +0.000 A 
ATOM     26  C   UNL     1       5.523   3.910  15.680  0.00  0.00    +0.000 A 
ATOM     27  C   UNL     1       4.761   4.389  16.736  0.00  0.00    +0.000 A 
ATOM     28  N   UNL     1       3.549   3.861  16.957  0.00  0.00    +0.000 NA
ATOM     29  C   UNL     1       2.822   4.345  17.985  0.00  0.00    +0.000 A 
ATOM     30 CL   UNL     1       1.273   3.604  18.090  0.00  0.00    +0.000 Cl
ENDBRANCH  19  20
ENDBRANCH   3  19
TORSDOF 5
ENDMDL
MODEL 7
REMARK VINA RESULT:      -8.0      2.910      4.556
REMARK  Name = 
REMARK  5 active torsions:
REMARK  status: ('A' for Active; 'I' for Inactive)
REMARK    1  A    between atoms: N_3  and  C_4
REMARK    2  A    between atoms: C_4  and  C_5
REMARK    3  A    between atoms: N_7  and  C_8
REMARK    4  A    between atoms: C_8  and  C_9
REMARK    5  A    between atoms: N_24  and  C_25
REMARK                            x       y       z     vdW  Elec       q    Type
REMARK                         _______ _______ _______ _____ _____    ______ ____
ROOT
ATOM      1  C   UNL     1       1.364   9.142  19.338  0.00  0.00    +0.000 A 
ATOM      2  C   UNL     1       2.028   8.001  18.943  0.00  0.00    +0.000 A 
ATOM      3  N   UNL     1       1.970   7.189  20.035  0.00  0.00    +0.000 N 
ATOM      4  N   UNL     1       1.263   7.761  21.028  0.00  0.00    +0.000 NA
ATOM      5  N   UNL     1       0.901   8.969  20.616  0.00  0.00    +0.000 NA
ENDROOT
BRANCH   1   6
ATOM      6  C   UNL     1       1.158  10.419  18.608  0.00  0.00    +0.000 C 
BRANCH   6   9
ATOM      7  O   UNL     1      -0.826  12.402  19.310  0.00  0.00    +0.000 OA
ATOM      8  C   UNL     1      -1.108  11.441  18.612  0.00  0.00    +0.000 A 
ATOM      9  N   UNL     1      -0.216  10.491  18.184  0.00  0.00    +0.000 N 
ATOM     10  C   UNL     1      -0.932   9.583  17.500  0.00  0.00    +0.000 A 
ATOM     11  N   UNL     1      -2.197   9.841  17.395  0.00  0.00    +0.000 NA
ATOM     12  N   UNL     1      -2.350  11.026  18.094  0.00  0.00    +0.000 N 
BRANCH  12  13
ATOM     13  C   UNL     1      -3.618  11.619  18.251  0.00  0.00    +0.000 A 
ATOM     14  C   UNL     1      -4.535  11.660  17.197  0.00  0.00    +0.000 A 
ATOM     15  C   UNL     1      -5.790  12.246  17.355  0.00  0.00    +0.000 A 
ATOM     16  C   UNL     1      -6.145  12.814  18.576  0.00  0.00    +0.000 A 
ATOM     17  C   UNL     1      -5.243  12.790  19.637  0.00  0.00    +0.000 A 
ATOM     18  C   UNL     1      -3.988  12.192  19.478  0.00  0.00    +0.000 A 
ENDBRANCH  12  13
ENDBRANCH   6   9
ENDBRANCH   1   6
BRANCH   3  19
ATOM     19  C   UNL     1       2.479   5.838  20.178  0.00  0.00    +0.000 C 
BRANCH  19  20
ATOM     20  C   UNL     1       3.263   5.394  18.974  0.00  0.00    +0.000 A 
ATOM     21  C   UNL     1       4.555   5.886  18.742  0.00  0.00    +0.000 A 
ATOM     22  C   UNL     1       5.294   5.452  17.629  0.00  0.00    +0.000 A 
ATOM     23  C   UNL     1       6.582   5.943  17.346  0.00  0.00    +0.000 A 
ATOM     24  C   UNL     1       7.282   5.486  16.229  0.00  0.00    +0.000 A 
ATOM     25  C   UNL     1       6.710   4.523  15.406  0.00  0.00    +0.000 A 
ATOM     26  C   UNL     1       5.432   4.036  15.692  0.00  0.00    +0.000 A 
ATOM     27  C   UNL     1       4.703   4.497  16.779  0.00  0.00    +0.000 A 
ATOM     28  N   UNL     1       3.464   4.028  16.979  0.00  0.00    +0.000 NA
ATOM     29  C   UNL     1       2.771   4.494  18.039  0.00  0.00    +0.000 A 
ATOM     30 CL   UNL     1       1.182   3.837  18.114  0.00  0.00    +0.000 Cl
ENDBRANCH  19  20
ENDBRANCH   3  19
TORSDOF 5
ENDMDL
MODEL 8
REMARK VINA RESULT:      -8.0      5.253      8.677
REMARK  Name = 
REMARK  5 active torsions:
REMARK  status: ('A' for Active; 'I' for Inactive)
REMARK    1  A    between atoms: N_3  and  C_4
REMARK    2  A    between atoms: C_4  and  C_5
REMARK    3  A    between atoms: N_7  and  C_8
REMARK    4  A    between atoms: C_8  and  C_9
REMARK    5  A    between atoms: N_24  and  C_25
REMARK                            x       y       z     vdW  Elec       q    Type
REMARK                         _______ _______ _______ _____ _____    ______ ____
ROOT
ATOM      1  C   UNL     1       7.856   7.784  17.902  0.00  0.00    +0.000 A 
ATOM      2  C   UNL     1       8.638   8.138  18.980  0.00  0.00    +0.000 A 
ATOM      3  N   UNL     1       8.807   9.482  18.839  0.00  0.00    +0.000 N 
ATOM      4  N   UNL     1       8.125   9.948  17.775  0.00  0.00    +0.000 NA
ATOM      5  N   UNL     1       7.551   8.909  17.182  0.00  0.00    +0.000 NA
ENDROOT
BRANCH   1   6
ATOM      6  C   UNL     1       7.395   6.440  17.466  0.00  0.00    +0.000 C 
BRANCH   6   9
ATOM      7  O   UNL     1       6.070   4.547  19.203  0.00  0.00    +0.000 OA
ATOM      8  C   UNL     1       5.435   5.354  18.543  0.00  0.00    +0.000 A 
ATOM      9  N   UNL     1       5.987   6.324  17.745  0.00  0.00    +0.000 N 
ATOM     10  C   UNL     1       4.959   6.954  17.152  0.00  0.00    +0.000 A 
ATOM     11  N   UNL     1       3.783   6.535  17.494  0.00  0.00    +0.000 NA
ATOM     12  N   UNL     1       4.045   5.510  18.387  0.00  0.00    +0.000 N 
BRANCH  12  13
ATOM     13  C   UNL     1       3.000   4.758  18.958  0.00  0.00    +0.000 A 
ATOM     14  C   UNL     1       2.264   3.845  18.198  0.00  0.00    +0.000 A 
ATOM     15  C   UNL     1       1.232   3.100  18.766  0.00  0.00    +0.000 A 
ATOM     16  C   UNL     1       0.910   3.266  20.110  0.00  0.00    +0.000 A 
ATOM     17  C   UNL     1       1.628   4.175  20.885  0.00  0.00    +0.000 A 
ATOM     18  C   UNL     1       2.670   4.915  20.314  0.00  0.00    +0.000 A 
ENDBRANCH  12  13
ENDBRANCH   6   9
ENDBRANCH   1   6
BRANCH   3  19
ATOM     19  C   UNL     1       9.519  10.395  19.714  0.00  0.00    +0.000 C 
BRANCH  19  20
ATOM     20  C   UNL     1       9.517  11.804  19.190  0.00  0.00    +0.000 A 
ATOM     21  C   UNL     1       8.450  12.668  19.469  0.00  0.00    +0.000 A 
ATOM     22  C   UNL     1       8.463  13.992  18.998  0.00  0.00    +0.000 A 
ATOM     23  C   UNL     1       7.398  14.882  19.233  0.00  0.00    +0.000 A 
ATOM     24  C   UNL     1       7.450  16.188  18.746  0.00  0.00    +0.000 A 
ATOM     25  C   UNL     1       8.571  16.617  18.045  0.00  0.00    +0.000 A 
ATOM     26  C   UNL     1       9.627  15.731  17.816  0.00  0.00    +0.000 A 
ATOM     27  C   UNL     1       9.587  14.418  18.264  0.00  0.00    +0.000 A 
ATOM     28  N   UNL     1      10.608  13.599  17.976  0.00  0.00    +0.000 NA
ATOM     29  C   UNL     1      10.545  12.326  18.416  0.00  0.00    +0.000 A 
ATOM     30 CL   UNL     1      11.903  11.397  17.909  0.00  0.00    +0.000 Cl
ENDBRANCH  19  20
ENDBRANCH   3  19
TORSDOF 5
ENDMDL
MODEL 9
REMARK VINA RESULT:      -7.9      5.790      8.584
REMARK  Name = 
REMARK  5 active torsions:
REMARK  status: ('A' for Active; 'I' for Inactive)
REMARK    1  A    between atoms: N_3  and  C_4
REMARK    2  A    between atoms: C_4  and  C_5
REMARK    3  A    between atoms: N_7  and  C_8
REMARK    4  A    between atoms: C_8  and  C_9
REMARK    5  A    between atoms: N_24  and  C_25
REMARK                            x       y       z     vdW  Elec       q    Type
REMARK                         _______ _______ _______ _____ _____    ______ ____
ROOT
ATOM      1  C   UNL     1       7.713   7.833  17.623  0.00  0.00    +0.000 A 
ATOM      2  C   UNL     1       8.601   7.989  18.665  0.00  0.00    +0.000 A 
ATOM      3  N   UNL     1       8.702   9.339  18.814  0.00  0.00    +0.000 N 
ATOM      4  N   UNL     1       7.883   9.984  17.961  0.00  0.00    +0.000 NA
ATOM      5  N   UNL     1       7.284   9.068  17.213  0.00  0.00    +0.000 NA
ENDROOT
BRANCH   1   6
ATOM      6  C   UNL     1       7.254   6.592  16.947  0.00  0.00    +0.000 C 
BRANCH   6   9
ATOM      7  O   UNL     1       4.427   5.994  16.865  0.00  0.00    +0.000 OA
ATOM      8  C   UNL     1       5.126   5.627  17.795  0.00  0.00    +0.000 A 
ATOM      9  N   UNL     1       6.482   5.816  17.882  0.00  0.00    +0.000 N 
ATOM     10  C   UNL     1       6.855   5.326  19.076  0.00  0.00    +0.000 A 
ATOM     11  N   UNL     1       5.904   4.801  19.780  0.00  0.00    +0.000 NA
ATOM     12  N   UNL     1       4.779   4.973  18.992  0.00  0.00    +0.000 N 
BRANCH  12  13
ATOM     13  C   UNL     1       3.507   4.565  19.441  0.00  0.00    +0.000 A 
ATOM     14  C   UNL     1       3.033   3.273  19.198  0.00  0.00    +0.000 A 
ATOM     15  C   UNL     1       1.776   2.870  19.645  0.00  0.00    +0.000 A 
ATOM     16  C   UNL     1       0.962   3.764  20.336  0.00  0.00    +0.000 A 
ATOM     17  C   UNL     1       1.413   5.058  20.583  0.00  0.00    +0.000 A 
ATOM     18  C   UNL     1       2.680   5.457  20.142  0.00  0.00    +0.000 A 
ENDBRANCH  12  13
ENDBRANCH   6   9
ENDBRANCH   1   6
BRANCH   3  19
ATOM     19  C   UNL     1       9.477  10.080  19.792  0.00  0.00    +0.000 C 
BRANCH  19  20
ATOM     20  C   UNL     1       9.708  11.505  19.376  0.00  0.00    +0.000 A 
ATOM     21  C   UNL     1      10.436  11.802  18.216  0.00  0.00    +0.000 A 
ATOM     22  C   UNL     1      10.630  13.135  17.816  0.00  0.00    +0.000 A 
ATOM     23  C   UNL     1      11.379  13.475  16.674  0.00  0.00    +0.000 A 
ATOM     24  C   UNL     1      11.548  14.812  16.314  0.00  0.00    +0.000 A 
ATOM     25  C   UNL     1      10.953  15.810  17.076  0.00  0.00    +0.000 A 
ATOM     26  C   UNL     1      10.208  15.469  18.208  0.00  0.00    +0.000 A 
ATOM     27  C   UNL     1      10.051  14.148  18.605  0.00  0.00    +0.000 A 
ATOM     28  N   UNL     1       9.364  13.882  19.724  0.00  0.00    +0.000 NA
ATOM     29  C   UNL     1       9.228  12.592  20.095  0.00  0.00    +0.000 A 
ATOM     30 CL   UNL     1       8.376  12.431  21.581  0.00  0.00    +0.000 Cl
ENDBRANCH  19  20
ENDBRANCH   3  19
TORSDOF 5
ENDMDL
