MODEL 1
REMARK VINA RESULT:      -6.9      0.000      0.000
REMARK  Name = 
REMARK  10 active torsions:
REMARK  status: ('A' for Active; 'I' for Inactive)
REMARK    1  A    between atoms: C_1  and  C_2
REMARK    2  A    between atoms: C_2  and  O_3
REMARK    3  A    between atoms: O_3  and  C_4
REMARK    4  A    between atoms: C_7  and  C_8
REMARK    5  A    between atoms: C_8  and  C_10
REMARK    6  A    between atoms: C_11  and  C_12
REMARK    7  A    between atoms: C_15  and  O_16
REMARK    8  A    between atoms: O_16  and  C_17
REMARK    9  A    between atoms: C_19  and  O_20
REMARK   10  A    between atoms: O_20  and  C_21
REMARK                            x       y       z     vdW  Elec       q    Type
REMARK                         _______ _______ _______ _____ _____    ______ ____
ROOT
ATOM      1  C   UNL     1       8.127   8.125  18.143  0.00  0.00    +0.000 C 
ATOM      2  C   UNL     1       7.955   9.411  17.796  0.00  0.00    +0.000 C 
ENDROOT
BRANCH   2   3
ATOM      3  C   UNL     1       8.736  10.499  18.381  0.00  0.00    +0.000 A 
ATOM      4  C   UNL     1       9.646  10.147  19.395  0.00  0.00    +0.000 A 
ATOM      5  C   UNL     1      10.429  11.116  20.027  0.00  0.00    +0.000 A 
ATOM      6  C   UNL     1      10.326  12.454  19.662  0.00  0.00    +0.000 A 
ATOM      7  C   UNL     1       9.420  12.811  18.663  0.00  0.00    +0.000 A 
ATOM      8  C   UNL     1       8.616  11.854  18.017  0.00  0.00    +0.000 A 
BRANCH   6   9
ATOM      9  O   UNL     1      11.149  13.312  20.338  0.00  0.00    +0.000 OA
ATOM     10  C   UNL     1      11.978  14.155  19.545  0.00  0.00    +0.000 C 
ENDBRANCH   6   9
BRANCH   8  11
ATOM     11  O   UNL     1       7.801  12.446  17.090  0.00  0.00    +0.000 OA
ATOM     12  C   UNL     1       7.185  13.693  17.342  0.00  0.00    +0.000 C 
ENDBRANCH   8  11
ENDBRANCH   2   3
BRANCH   1  13
ATOM     13  C   UNL     1       7.445   7.096  17.316  0.00  0.00    +0.000 C 
ATOM     14  O   UNL     1       7.877   6.757  16.217  0.00  0.00    +0.000 OA
BRANCH  13  18
ATOM     15  C   UNL     1       3.960   5.151  18.899  0.00  0.00    +0.000 A 
ATOM     16  C   UNL     1       3.882   6.042  17.829  0.00  0.00    +0.000 A 
ATOM     17  C   UNL     1       5.032   6.655  17.334  0.00  0.00    +0.000 A 
ATOM     18  C   UNL     1       6.284   6.377  17.892  0.00  0.00    +0.000 A 
ATOM     19  C   UNL     1       6.377   5.482  18.961  0.00  0.00    +0.000 A 
ATOM     20  C   UNL     1       5.214   4.874  19.461  0.00  0.00    +0.000 A 
BRANCH  15  21
ATOM     21  O   UNL     1       2.888   4.514  19.471  0.00  0.00    +0.000 OA
BRANCH  21  23
ATOM     22  C   UNL     1       1.223   2.997  18.583  0.00  0.00    +0.000 C 
ATOM     23  C   UNL     1       2.664   3.172  19.023  0.00  0.00    +0.000 C 
ENDBRANCH  21  23
ENDBRANCH  15  21
ENDBRANCH  13  18
ENDBRANCH   1  13
TORSDOF 7
ENDMDL
MODEL 2
REMARK VINA RESULT:      -6.8      0.494      1.148
REMARK  Name = 
REMARK  10 active torsions:
REMARK  status: ('A' for Active; 'I' for Inactive)
REMARK    1  A    between atoms: C_1  and  C_2
REMARK    2  A    between atoms: C_2  and  O_3
REMARK    3  A    between atoms: O_3  and  C_4
REMARK    4  A    between atoms: C_7  and  C_8
REMARK    5  A    between atoms: C_8  and  C_10
REMARK    6  A    between atoms: C_11  and  C_12
REMARK    7  A    between atoms: C_15  and  O_16
REMARK    8  A    between atoms: O_16  and  C_17
REMARK    9  A    between atoms: C_19  and  O_20
REMARK   10  A    between atoms: O_20  and  C_21
REMARK                            x       y       z     vdW  Elec       q    Type
REMARK                         _______ _______ _______ _____ _____    ______ ____
ROOT
ATOM      1  C   UNL     1       7.959   8.413  18.211  0.00  0.00    +0.000 C 
ATOM      2  C   UNL     1       8.183   9.599  17.620  0.00  0.00    +0.000 C 
ENDROOT
BRANCH   2   3
ATOM      3  C   UNL     1       8.881  10.696  18.288  0.00  0.00    +0.000 A 
ATOM      4  C   UNL     1       9.821  10.338  19.271  0.00  0.00    +0.000 A 
ATOM      5  C   UNL     1      10.530  11.313  19.977  0.00  0.00    +0.000 A 
ATOM      6  C   UNL     1      10.321  12.664  19.717  0.00  0.00    +0.000 A 
ATOM      7  C   UNL     1       9.385  13.025  18.749  0.00  0.00    +0.000 A 
ATOM      8  C   UNL     1       8.654  12.061  18.030  0.00  0.00    +0.000 A 
BRANCH   6   9
ATOM      9  O   UNL     1      11.079  13.528  20.457  0.00  0.00    +0.000 OA
ATOM     10  C   UNL     1      11.705  14.592  19.749  0.00  0.00    +0.000 C 
ENDBRANCH   6   9
BRANCH   8  11
ATOM     11  O   UNL     1       7.790  12.658  17.152  0.00  0.00    +0.000 OA
ATOM     12  C   UNL     1       7.139  13.872  17.470  0.00  0.00    +0.000 C 
ENDBRANCH   8  11
ENDBRANCH   2   3
BRANCH   1  13
ATOM     13  C   UNL     1       7.454   7.308  17.356  0.00  0.00    +0.000 C 
ATOM     14  O   UNL     1       8.078   6.910  16.376  0.00  0.00    +0.000 OA
BRANCH  13  18
ATOM     15  C   UNL     1       4.016   5.089  18.657  0.00  0.00    +0.000 A 
ATOM     16  C   UNL     1       5.270   4.914  19.244  0.00  0.00    +0.000 A 
ATOM     17  C   UNL     1       6.367   5.652  18.802  0.00  0.00    +0.000 A 
ATOM     18  C   UNL     1       6.227   6.590  17.775  0.00  0.00    +0.000 A 
ATOM     19  C   UNL     1       4.975   6.780  17.182  0.00  0.00    +0.000 A 
ATOM     20  C   UNL     1       3.876   6.027  17.625  0.00  0.00    +0.000 A 
BRANCH  15  21
ATOM     21  O   UNL     1       2.882   4.399  19.004  0.00  0.00    +0.000 OA
BRANCH  21  23
ATOM     22  C   UNL     1       2.849   2.289  17.818  0.00  0.00    +0.000 C 
ATOM     23  C   UNL     1       2.254   3.678  17.938  0.00  0.00    +0.000 C 
ENDBRANCH  21  23
ENDBRANCH  15  21
ENDBRANCH  13  18
ENDBRANCH   1  13
TORSDOF 7
ENDMDL
MODEL 3
REMARK VINA RESULT:      -6.7      6.962      9.916
REMARK  Name = 
REMARK  10 active torsions:
REMARK  status: ('A' for Active; 'I' for Inactive)
REMARK    1  A    between atoms: C_1  and  C_2
REMARK    2  A    between atoms: C_2  and  O_3
REMARK    3  A    between atoms: O_3  and  C_4
REMARK    4  A    between atoms: C_7  and  C_8
REMARK    5  A    between atoms: C_8  and  C_10
REMARK    6  A    between atoms: C_11  and  C_12
REMARK    7  A    between atoms: C_15  and  O_16
REMARK    8  A    between atoms: O_16  and  C_17
REMARK    9  A    between atoms: C_19  and  O_20
REMARK   10  A    between atoms: O_20  and  C_21
REMARK                            x       y       z     vdW  Elec       q    Type
REMARK                         _______ _______ _______ _____ _____    ______ ____
ROOT
ATOM      1  C   UNL     1       0.268  10.394  18.500  0.00  0.00    +0.000 C 
ATOM      2  C   UNL     1      -0.775   9.951  17.779  0.00  0.00    +0.000 C 
ENDROOT
BRANCH   2   3
ATOM      3  C   UNL     1      -2.095  10.577  17.830  0.00  0.00    +0.000 A 
ATOM      4  C   UNL     1      -2.353  11.412  18.933  0.00  0.00    +0.000 A 
ATOM      5  C   UNL     1      -3.590  12.045  19.082  0.00  0.00    +0.000 A 
ATOM      6  C   UNL     1      -4.593  11.864  18.135  0.00  0.00    +0.000 A 
ATOM      7  C   UNL     1      -4.346  11.032  17.044  0.00  0.00    +0.000 A 
ATOM      8  C   UNL     1      -3.111  10.378  16.876  0.00  0.00    +0.000 A 
BRANCH   6   9
ATOM      9  O   UNL     1      -5.756  12.543  18.375  0.00  0.00    +0.000 OA
ATOM     10  C   UNL     1      -6.678  12.628  17.294  0.00  0.00    +0.000 C 
ENDBRANCH   6   9
BRANCH   8  11
ATOM     11  O   UNL     1      -3.115   9.609  15.745  0.00  0.00    +0.000 OA
ATOM     12  C   UNL     1      -3.311  10.181  14.466  0.00  0.00    +0.000 C 
ENDBRANCH   8  11
ENDBRANCH   2   3
BRANCH   1  13
ATOM     13  C   UNL     1       1.605   9.828  18.187  0.00  0.00    +0.000 C 
ATOM     14  O   UNL     1       2.487  10.501  17.659  0.00  0.00    +0.000 OA
BRANCH  13  18
ATOM     15  C   UNL     1       2.502   5.905  19.687  0.00  0.00    +0.000 A 
ATOM     16  C   UNL     1       1.930   6.888  20.494  0.00  0.00    +0.000 A 
ATOM     17  C   UNL     1       1.646   8.152  19.978  0.00  0.00    +0.000 A 
ATOM     18  C   UNL     1       1.917   8.451  18.639  0.00  0.00    +0.000 A 
ATOM     19  C   UNL     1       2.484   7.473  17.817  0.00  0.00    +0.000 A 
ATOM     20  C   UNL     1       2.776   6.205  18.345  0.00  0.00    +0.000 A 
BRANCH  15  21
ATOM     21  O   UNL     1       2.836   4.642  20.104  0.00  0.00    +0.000 OA
BRANCH  21  23
ATOM     22  C   UNL     1       1.291   3.008  21.000  0.00  0.00    +0.000 C 
ATOM     23  C   UNL     1       2.183   4.198  21.298  0.00  0.00    +0.000 C 
ENDBRANCH  21  23
ENDBRANCH  15  21
ENDBRANCH  13  18
ENDBRANCH   1  13
TORSDOF 7
ENDMDL
MODEL 4
REMARK VINA RESULT:      -6.7      0.813      1.323
REMARK  Name = 
REMARK  10 active torsions:
REMARK  status: ('A' for Active; 'I' for Inactive)
REMARK    1  A    between atoms: C_1  and  C_2
REMARK    2  A    between atoms: C_2  and  O_3
REMARK    3  A    between atoms: O_3  and  C_4
REMARK    4  A    between atoms: C_7  and  C_8
REMARK    5  A    between atoms: C_8  and  C_10
REMARK    6  A    between atoms: C_11  and  C_12
REMARK    7  A    between atoms: C_15  and  O_16
REMARK    8  A    between atoms: O_16  and  C_17
REMARK    9  A    between atoms: C_19  and  O_20
REMARK   10  A    between atoms: O_20  and  C_21
REMARK                            x       y       z     vdW  Elec       q    Type
REMARK                         _______ _______ _______ _____ _____    ______ ____
ROOT
ATOM      1  C   UNL     1       7.865   8.218  18.195  0.00  0.00    +0.000 C 
ATOM      2  C   UNL     1       8.041   9.435  17.656  0.00  0.00    +0.000 C 
ENDROOT
BRANCH   2   3
ATOM      3  C   UNL     1       8.739  10.516  18.351  0.00  0.00    +0.000 A 
ATOM      4  C   UNL     1       9.589  10.139  19.407  0.00  0.00    +0.000 A 
ATOM      5  C   UNL     1      10.289  11.097  20.144  0.00  0.00    +0.000 A 
ATOM      6  C   UNL     1      10.162  12.450  19.842  0.00  0.00    +0.000 A 
ATOM      7  C   UNL     1       9.315  12.830  18.802  0.00  0.00    +0.000 A 
ATOM      8  C   UNL     1       8.594  11.883  18.051  0.00  0.00    +0.000 A 
BRANCH   6   9
ATOM      9  O   UNL     1      10.904  13.296  20.619  0.00  0.00    +0.000 OA
ATOM     10  C   UNL     1      10.182  14.271  21.365  0.00  0.00    +0.000 C 
ENDBRANCH   6   9
BRANCH   8  11
ATOM     11  O   UNL     1       7.824  12.497  17.101  0.00  0.00    +0.000 OA
ATOM     12  C   UNL     1       7.131  13.698  17.379  0.00  0.00    +0.000 C 
ENDBRANCH   8  11
ENDBRANCH   2   3
BRANCH   1  13
ATOM     13  C   UNL     1       7.354   7.143  17.306  0.00  0.00    +0.000 C 
ATOM     14  O   UNL     1       7.958   6.797  16.295  0.00  0.00    +0.000 OA
BRANCH  13  18
ATOM     15  C   UNL     1       3.977   4.842  18.625  0.00  0.00    +0.000 A 
ATOM     16  C   UNL     1       5.193   4.821  19.308  0.00  0.00    +0.000 A 
ATOM     17  C   UNL     1       6.271   5.582  18.858  0.00  0.00    +0.000 A 
ATOM     18  C   UNL     1       6.147   6.391  17.723  0.00  0.00    +0.000 A 
ATOM     19  C   UNL     1       4.933   6.426  17.033  0.00  0.00    +0.000 A 
ATOM     20  C   UNL     1       3.853   5.650  17.486  0.00  0.00    +0.000 A 
BRANCH  15  21
ATOM     21  O   UNL     1       2.867   4.116  18.974  0.00  0.00    +0.000 OA
BRANCH  21  23
ATOM     22  C   UNL     1       1.858   3.814  21.154  0.00  0.00    +0.000 C 
ATOM     23  C   UNL     1       2.968   3.398  20.209  0.00  0.00    +0.000 C 
ENDBRANCH  21  23
ENDBRANCH  15  21
ENDBRANCH  13  18
ENDBRANCH   1  13
TORSDOF 7
ENDMDL
MODEL 5
REMARK VINA RESULT:      -6.7      5.054      7.786
REMARK  Name = 
REMARK  10 active torsions:
REMARK  status: ('A' for Active; 'I' for Inactive)
REMARK    1  A    between atoms: C_1  and  C_2
REMARK    2  A    between atoms: C_2  and  O_3
REMARK    3  A    between atoms: O_3  and  C_4
REMARK    4  A    between atoms: C_7  and  C_8
REMARK    5  A    between atoms: C_8  and  C_10
REMARK    6  A    between atoms: C_11  and  C_12
REMARK    7  A    between atoms: C_15  and  O_16
REMARK    8  A    between atoms: O_16  and  C_17
REMARK    9  A    between atoms: C_19  and  O_20
REMARK   10  A    between atoms: O_20  and  C_21
REMARK                            x       y       z     vdW  Elec       q    Type
REMARK                         _______ _______ _______ _____ _____    ______ ____
ROOT
ATOM      1  C   UNL     1       3.075   5.605  18.693  0.00  0.00    +0.000 C 
ATOM      2  C   UNL     1       4.412   5.498  18.760  0.00  0.00    +0.000 C 
ENDROOT
BRANCH   2   3
ATOM      3  C   UNL     1       5.249   5.287  17.579  0.00  0.00    +0.000 A 
ATOM      4  C   UNL     1       4.629   5.463  16.329  0.00  0.00    +0.000 A 
ATOM      5  C   UNL     1       5.338   5.270  15.141  0.00  0.00    +0.000 A 
ATOM      6  C   UNL     1       6.679   4.901  15.173  0.00  0.00    +0.000 A 
ATOM      7  C   UNL     1       7.297   4.717  16.409  0.00  0.00    +0.000 A 
ATOM      8  C   UNL     1       6.601   4.899  17.618  0.00  0.00    +0.000 A 
BRANCH   6   9
ATOM      9  O   UNL     1       7.276   4.753  13.951  0.00  0.00    +0.000 OA
ATOM     10  C   UNL     1       6.602   3.924  13.010  0.00  0.00    +0.000 C 
ENDBRANCH   6   9
BRANCH   8  11
ATOM     11  O   UNL     1       7.412   4.646  18.691  0.00  0.00    +0.000 OA
ATOM     12  C   UNL     1       7.957   5.697  19.466  0.00  0.00    +0.000 C 
ENDBRANCH   8  11
ENDBRANCH   2   3
BRANCH   1  13
ATOM     13  C   UNL     1       2.362   6.051  19.918  0.00  0.00    +0.000 C 
ATOM     14  O   UNL     1       2.293   5.345  20.921  0.00  0.00    +0.000 OA
BRANCH  13  18
ATOM     15  C   UNL     1       0.931  10.099  19.894  0.00  0.00    +0.000 A 
ATOM     16  C   UNL     1       1.487   9.509  18.759  0.00  0.00    +0.000 A 
ATOM     17  C   UNL     1       1.939   8.191  18.796  0.00  0.00    +0.000 A 
ATOM     18  C   UNL     1       1.831   7.434  19.967  0.00  0.00    +0.000 A 
ATOM     19  C   UNL     1       1.271   8.011  21.110  0.00  0.00    +0.000 A 
ATOM     20  C   UNL     1       0.825   9.341  21.069  0.00  0.00    +0.000 A 
BRANCH  15  21
ATOM     21  O   UNL     1       0.476  11.392  19.966  0.00  0.00    +0.000 OA
BRANCH  21  23
ATOM     22  C   UNL     1      -0.736  12.699  18.329  0.00  0.00    +0.000 C 
ATOM     23  C   UNL     1       0.611  12.156  18.762  0.00  0.00    +0.000 C 
ENDBRANCH  21  23
ENDBRANCH  15  21
ENDBRANCH  13  18
ENDBRANCH   1  13
TORSDOF 7
ENDMDL
MODEL 6
REMARK VINA RESULT:      -6.7      5.952      9.189
REMARK  Name = 
REMARK  10 active torsions:
REMARK  status: ('A' for Active; 'I' for Inactive)
REMARK    1  A    between atoms: C_1  and  C_2
REMARK    2  A    between atoms: C_2  and  O_3
REMARK    3  A    between atoms: O_3  and  C_4
REMARK    4  A    between atoms: C_7  and  C_8
REMARK    5  A    between atoms: C_8  and  C_10
REMARK    6  A    between atoms: C_11  and  C_12
REMARK    7  A    between atoms: C_15  and  O_16
REMARK    8  A    between atoms: O_16  and  C_17
REMARK    9  A    between atoms: C_19  and  O_20
REMARK   10  A    between atoms: O_20  and  C_21
REMARK                            x       y       z     vdW  Elec       q    Type
REMARK                         _______ _______ _______ _____ _____    ______ ____
ROOT
ATOM      1  C   UNL     1       1.428   8.894  17.990  0.00  0.00    +0.000 C 
ATOM      2  C   UNL     1       2.140   7.997  18.692  0.00  0.00    +0.000 C 
ENDROOT
BRANCH   2   3
ATOM      3  C   UNL     1       2.975   6.978  18.058  0.00  0.00    +0.000 A 
ATOM      4  C   UNL     1       4.015   7.442  17.232  0.00  0.00    +0.000 A 
ATOM      5  C   UNL     1       4.860   6.549  16.569  0.00  0.00    +0.000 A 
ATOM      6  C   UNL     1       4.690   5.176  16.717  0.00  0.00    +0.000 A 
ATOM      7  C   UNL     1       3.656   4.710  17.528  0.00  0.00    +0.000 A 
ATOM      8  C   UNL     1       2.789   5.590  18.200  0.00  0.00    +0.000 A 
BRANCH   6   9
ATOM      9  O   UNL     1       5.582   4.397  16.033  0.00  0.00    +0.000 OA
ATOM     10  C   UNL     1       6.786   5.030  15.612  0.00  0.00    +0.000 C 
ENDBRANCH   6   9
BRANCH   8  11
ATOM     11  O   UNL     1       1.850   4.899  18.918  0.00  0.00    +0.000 OA
ATOM     12  C   UNL     1       1.317   3.677  18.448  0.00  0.00    +0.000 C 
ENDBRANCH   8  11
ENDBRANCH   2   3
BRANCH   1  13
ATOM     13  C   UNL     1       0.811  10.017  18.741  0.00  0.00    +0.000 C 
ATOM     14  O   UNL     1       1.457  10.700  19.531  0.00  0.00    +0.000 OA
BRANCH  13  18
ATOM     15  C   UNL     1      -3.224  11.018  17.667  0.00  0.00    +0.000 A 
ATOM     16  C   UNL     1      -2.520  10.004  17.017  0.00  0.00    +0.000 A 
ATOM     17  C   UNL     1      -1.212   9.698  17.392  0.00  0.00    +0.000 A 
ATOM     18  C   UNL     1      -0.589  10.393  18.433  0.00  0.00    +0.000 A 
ATOM     19  C   UNL     1      -1.285  11.408  19.095  0.00  0.00    +0.000 A 
ATOM     20  C   UNL     1      -2.598  11.717  18.709  0.00  0.00    +0.000 A 
BRANCH  15  21
ATOM     21  O   UNL     1      -4.504  11.407  17.361  0.00  0.00    +0.000 OA
BRANCH  21  23
ATOM     22  C   UNL     1      -6.813  11.619  18.054  0.00  0.00    +0.000 C 
ATOM     23  C   UNL     1      -5.531  10.817  18.165  0.00  0.00    +0.000 C 
ENDBRANCH  21  23
ENDBRANCH  15  21
ENDBRANCH  13  18
ENDBRANCH   1  13
TORSDOF 7
ENDMDL
MODEL 7
REMARK VINA RESULT:      -6.6      5.786      9.226
REMARK  Name = 
REMARK  10 active torsions:
REMARK  status: ('A' for Active; 'I' for Inactive)
REMARK    1  A    between atoms: C_1  and  C_2
REMARK    2  A    between atoms: C_2  and  O_3
REMARK    3  A    between atoms: O_3  and  C_4
REMARK    4  A    between atoms: C_7  and  C_8
REMARK    5  A    between atoms: C_8  and  C_10
REMARK    6  A    between atoms: C_11  and  C_12
REMARK    7  A    between atoms: C_15  and  O_16
REMARK    8  A    between atoms: O_16  and  C_17
REMARK    9  A    between atoms: C_19  and  O_20
REMARK   10  A    between atoms: O_20  and  C_21
REMARK                            x       y       z     vdW  Elec       q    Type
REMARK                         _______ _______ _______ _____ _____    ______ ____
ROOT
ATOM      1  C   UNL     1       1.499   8.542  17.791  0.00  0.00    +0.000 C 
ATOM      2  C   UNL     1       2.390   7.888  18.555  0.00  0.00    +0.000 C 
ENDROOT
BRANCH   2   3
ATOM      3  C   UNL     1       2.892   6.556  18.221  0.00  0.00    +0.000 A 
ATOM      4  C   UNL     1       2.088   5.466  18.606  0.00  0.00    +0.000 A 
ATOM      5  C   UNL     1       2.486   4.152  18.347  0.00  0.00    +0.000 A 
ATOM      6  C   UNL     1       3.689   3.895  17.696  0.00  0.00    +0.000 A 
ATOM      7  C   UNL     1       4.493   4.971  17.319  0.00  0.00    +0.000 A 
ATOM      8  C   UNL     1       4.116   6.302  17.576  0.00  0.00    +0.000 A 
BRANCH   6   9
ATOM      9  O   UNL     1       3.970   2.574  17.483  0.00  0.00    +0.000 OA
ATOM     10  C   UNL     1       3.254   1.636  18.279  0.00  0.00    +0.000 C 
ENDBRANCH   6   9
BRANCH   8  11
ATOM     11  O   UNL     1       5.071   7.175  17.129  0.00  0.00    +0.000 OA
ATOM     12  C   UNL     1       6.450   6.894  17.273  0.00  0.00    +0.000 C 
ENDBRANCH   8  11
ENDBRANCH   2   3
BRANCH   1  13
ATOM     13  C   UNL     1       1.247   9.971  18.106  0.00  0.00    +0.000 C 
ATOM     14  O   UNL     1       2.153  10.801  18.120  0.00  0.00    +0.000 OA
BRANCH  13  18
ATOM     15  C   UNL     1      -2.853  11.200  18.448  0.00  0.00    +0.000 A 
ATOM     16  C   UNL     1      -2.455  10.205  17.555  0.00  0.00    +0.000 A 
ATOM     17  C   UNL     1      -1.117   9.824  17.470  0.00  0.00    +0.000 A 
ATOM     18  C   UNL     1      -0.152  10.423  18.287  0.00  0.00    +0.000 A 
ATOM     19  C   UNL     1      -0.538  11.418  19.189  0.00  0.00    +0.000 A 
ATOM     20  C   UNL     1      -1.886  11.803  19.265  0.00  0.00    +0.000 A 
BRANCH  15  21
ATOM     21  O   UNL     1      -4.138  11.659  18.593  0.00  0.00    +0.000 OA
BRANCH  21  23
ATOM     22  C   UNL     1      -6.484  11.315  18.111  0.00  0.00    +0.000 C 
ATOM     23  C   UNL     1      -5.062  11.215  17.594  0.00  0.00    +0.000 C 
ENDBRANCH  21  23
ENDBRANCH  15  21
ENDBRANCH  13  18
ENDBRANCH   1  13
TORSDOF 7
ENDMDL
MODEL 8
REMARK VINA RESULT:      -6.6      5.811      9.194
REMARK  Name = 
REMARK  10 active torsions:
REMARK  status: ('A' for Active; 'I' for Inactive)
REMARK    1  A    between atoms: C_1  and  C_2
REMARK    2  A    between atoms: C_2  and  O_3
REMARK    3  A    between atoms: O_3  and  C_4
REMARK    4  A    between atoms: C_7  and  C_8
REMARK    5  A    between atoms: C_8  and  C_10
REMARK    6  A    between atoms: C_11  and  C_12
REMARK    7  A    between atoms: C_15  and  O_16
REMARK    8  A    between atoms: O_16  and  C_17
REMARK    9  A    between atoms: C_19  and  O_20
REMARK   10  A    between atoms: O_20  and  C_21
REMARK                            x       y       z     vdW  Elec       q    Type
REMARK                         _______ _______ _______ _____ _____    ______ ____
ROOT
ATOM      1  C   UNL     1       1.661   8.656  18.542  0.00  0.00    +0.000 C 
ATOM      2  C   UNL     1       2.788   8.273  17.920  0.00  0.00    +0.000 C 
ENDROOT
BRANCH   2   3
ATOM      3  C   UNL     1       3.186   6.871  17.796  0.00  0.00    +0.000 A 
ATOM      4  C   UNL     1       2.196   5.910  18.069  0.00  0.00    +0.000 A 
ATOM      5  C   UNL     1       2.479   4.544  17.993  0.00  0.00    +0.000 A 
ATOM      6  C   UNL     1       3.752   4.107  17.640  0.00  0.00    +0.000 A 
ATOM      7  C   UNL     1       4.740   5.055  17.376  0.00  0.00    +0.000 A 
ATOM      8  C   UNL     1       4.479   6.435  17.453  0.00  0.00    +0.000 A 
BRANCH   6   9
ATOM      9  O   UNL     1       3.912   2.750  17.584  0.00  0.00    +0.000 OA
ATOM     10  C   UNL     1       2.834   1.962  18.078  0.00  0.00    +0.000 C 
ENDBRANCH   6   9
BRANCH   8  11
ATOM     11  O   UNL     1       5.604   7.162  17.168  0.00  0.00    +0.000 OA
ATOM     12  C   UNL     1       6.893   6.588  17.258  0.00  0.00    +0.000 C 
ENDBRANCH   8  11
ENDBRANCH   2   3
BRANCH   1  13
ATOM     13  C   UNL     1       1.249  10.076  18.398  0.00  0.00    +0.000 C 
ATOM     14  O   UNL     1       2.071  10.976  18.242  0.00  0.00    +0.000 OA
BRANCH  13  18
ATOM     15  C   UNL     1      -2.925  11.079  18.350  0.00  0.00    +0.000 A 
ATOM     16  C   UNL     1      -2.024  11.723  19.198  0.00  0.00    +0.000 A 
ATOM     17  C   UNL     1      -0.673  11.379  19.188  0.00  0.00    +0.000 A 
ATOM     18  C   UNL     1      -0.196  10.392  18.319  0.00  0.00    +0.000 A 
ATOM     19  C   UNL     1      -1.088   9.743  17.460  0.00  0.00    +0.000 A 
ATOM     20  C   UNL     1      -2.448  10.088  17.481  0.00  0.00    +0.000 A 
BRANCH  15  21
ATOM     21  O   UNL     1      -4.273  11.330  18.299  0.00  0.00    +0.000 OA
BRANCH  21  23
ATOM     22  C   UNL     1      -6.076  11.773  19.851  0.00  0.00    +0.000 C 
ATOM     23  C   UNL     1      -4.761  12.258  19.274  0.00  0.00    +0.000 C 
ENDBRANCH  21  23
ENDBRANCH  15  21
ENDBRANCH  13  18
ENDBRANCH   1  13
TORSDOF 7
ENDMDL
MODEL 9
REMARK VINA RESULT:      -6.5      5.811      7.677
REMARK  Name = 
REMARK  10 active torsions:
REMARK  status: ('A' for Active; 'I' for Inactive)
REMARK    1  A    between atoms: C_1  and  C_2
REMARK    2  A    between atoms: C_2  and  O_3
REMARK    3  A    between atoms: O_3  and  C_4
REMARK    4  A    between atoms: C_7  and  C_8
REMARK    5  A    between atoms: C_8  and  C_10
REMARK    6  A    between atoms: C_11  and  C_12
REMARK    7  A    between atoms: C_15  and  O_16
REMARK    8  A    between atoms: O_16  and  C_17
REMARK    9  A    between atoms: C_19  and  O_20
REMARK   10  A    between atoms: O_20  and  C_21
REMARK                            x       y       z     vdW  Elec       q    Type
REMARK                         _______ _______ _______ _____ _____    ______ ____
ROOT
ATOM      1  C   UNL     1       2.297   7.771  18.956  0.00  0.00    +0.000 C 
ATOM      2  C   UNL     1       1.593   8.221  20.007  0.00  0.00    +0.000 C 
ENDROOT
BRANCH   2   3
ATOM      3  C   UNL     1       0.948   9.534  20.024  0.00  0.00    +0.000 A 
ATOM      4  C   UNL     1       0.594  10.077  18.776  0.00  0.00    +0.000 A 
ATOM      5  C   UNL     1      -0.013  11.332  18.684  0.00  0.00    +0.000 A 
ATOM      6  C   UNL     1      -0.285  12.070  19.832  0.00  0.00    +0.000 A 
ATOM      7  C   UNL     1       0.071  11.540  21.071  0.00  0.00    +0.000 A 
ATOM      8  C   UNL     1       0.689  10.282  21.188  0.00  0.00    +0.000 A 
BRANCH   6   9
ATOM      9  O   UNL     1      -0.893  13.277  19.623  0.00  0.00    +0.000 OA
ATOM     10  C   UNL     1      -0.330  14.106  18.612  0.00  0.00    +0.000 C 
ENDBRANCH   6   9
BRANCH   8  11
ATOM     11  O   UNL     1       0.954   9.987  22.498  0.00  0.00    +0.000 OA
ATOM     12  C   UNL     1      -0.045   9.466  23.352  0.00  0.00    +0.000 C 
ENDBRANCH   8  11
ENDBRANCH   2   3
BRANCH   1  13
ATOM     13  C   UNL     1       2.701   6.342  18.965  0.00  0.00    +0.000 C 
ATOM     14  O   UNL     1       2.214   5.536  19.753  0.00  0.00    +0.000 OA
BRANCH  13  18
ATOM     15  C   UNL     1       5.368   5.124  15.828  0.00  0.00    +0.000 A 
ATOM     16  C   UNL     1       5.146   6.469  16.123  0.00  0.00    +0.000 A 
ATOM     17  C   UNL     1       4.277   6.834  17.151  0.00  0.00    +0.000 A 
ATOM     18  C   UNL     1       3.625   5.858  17.912  0.00  0.00    +0.000 A 
ATOM     19  C   UNL     1       3.843   4.507  17.630  0.00  0.00    +0.000 A 
ATOM     20  C   UNL     1       4.712   4.146  16.589  0.00  0.00    +0.000 A 
BRANCH  15  21
ATOM     21  O   UNL     1       6.186   4.664  14.827  0.00  0.00    +0.000 OA
BRANCH  21  23
ATOM     22  C   UNL     1       6.474   3.771  12.595  0.00  0.00    +0.000 C 
ATOM     23  C   UNL     1       5.518   3.996  13.750  0.00  0.00    +0.000 C 
ENDBRANCH  21  23
ENDBRANCH  15  21
ENDBRANCH  13  18
ENDBRANCH   1  13
TORSDOF 7
ENDMDL
