MODEL 1
REMARK VINA RESULT:      -8.1      0.000      0.000
REMARK  Name = 
REMARK  6 active torsions:
REMARK  status: ('A' for Active; 'I' for Inactive)
REMARK    1  A    between atoms: C_1  and  C_2
REMARK    2  A    between atoms: C_2  and  C_3
REMARK    3  A    between atoms: C_3  and  C_4
REMARK    4  A    between atoms: C_4  and  C_5
REMARK    5  A    between atoms: C_6  and  C_7
REMARK    6  A    between atoms: N_15  and  C_16
REMARK                            x       y       z     vdW  Elec       q    Type
REMARK                         _______ _______ _______ _____ _____    ______ ____
ROOT
ATOM      1  C   UNL     1       5.333   4.309  17.051  0.00  0.00    +0.000 A 
ATOM      2  C   UNL     1       6.575   4.515  16.453  0.00  0.00    +0.000 A 
ATOM      3  C   UNL     1       7.467   4.582  17.533  0.00  0.00    +0.000 A 
ATOM      4  N   UNL     1       6.871   4.432  18.710  0.00  0.00    +0.000 NA
ATOM      5  N   UNL     1       5.560   4.220  18.430  0.00  0.00    +0.000 N 
ENDROOT
BRANCH   2   6
ATOM      6  C   UNL     1       6.837   4.625  15.023  0.00  0.00    +0.000 C 
ATOM      7  O   UNL     1       7.549   5.520  14.574  0.00  0.00    +0.000 OA
ATOM      8  N   UNL     1       6.237   3.669  14.222  0.00  0.00    +0.000 N 
ATOM      9  C   UNL     1       6.444   3.523  12.879  0.00  0.00    +0.000 C 
ATOM     10  N   UNL     1       7.184   4.307  12.185  0.00  0.00    +0.000 NA
ATOM     11  N   UNL     1       5.827   2.500  12.249  0.00  0.00    +0.000 N 
ATOM     12  H   UNL     1       5.732   2.921  14.666  0.00  0.00    +0.000 HD
ATOM     13  H   UNL     1       7.592   5.030  12.803  0.00  0.00    +0.000 HD
ATOM     14  H   UNL     1       4.870   2.313  12.511  0.00  0.00    +0.000 HD
ATOM     15  H   UNL     1       5.922   2.620  11.241  0.00  0.00    +0.000 HD
ENDBRANCH   2   6
BRANCH   5  16
ATOM     16  C   UNL     1       4.604   4.022  19.481  0.00  0.00    +0.000 A 
ATOM     17  C   UNL     1       4.578   2.773  20.125  0.00  0.00    +0.000 A 
ATOM     18  C   UNL     1       3.521   2.434  20.960  0.00  0.00    +0.000 A 
ATOM     19  C   UNL     1       2.517   3.363  21.204  0.00  0.00    +0.000 A 
ATOM     20  C   UNL     1       2.556   4.642  20.673  0.00  0.00    +0.000 A 
ATOM     21  N   UNL     1       1.546   5.458  21.016  0.00  0.00    +0.000 NA
ATOM     22  C   UNL     1       1.532   6.707  20.516  0.00  0.00    +0.000 A 
ATOM     23  C   UNL     1       2.489   7.189  19.656  0.00  0.00    +0.000 A 
ATOM     24  C   UNL     1       3.521   6.332  19.289  0.00  0.00    +0.000 A 
ATOM     25  C   UNL     1       3.610   5.010  19.799  0.00  0.00    +0.000 A 
ENDBRANCH   5  16
BRANCH   1  26
ATOM     26  C   UNL     1       3.977   4.300  16.390  0.00  0.00    +0.000 C 
BRANCH  26  27
ATOM     27  C   UNL     1       3.105   3.127  16.846  0.00  0.00    +0.000 C 
BRANCH  27  29
ATOM     28  C   UNL     1       1.101   2.549  18.228  0.00  0.00    +0.000 C 
ATOM     29  C   UNL     1       1.738   3.600  17.333  0.00  0.00    +0.000 C 
ENDBRANCH  27  29
ENDBRANCH  26  27
ENDBRANCH   1  26
TORSDOF 5
ENDMDL
MODEL 2
REMARK VINA RESULT:      -7.8      3.493      7.448
REMARK  Name = 
REMARK  6 active torsions:
REMARK  status: ('A' for Active; 'I' for Inactive)
REMARK    1  A    between atoms: C_1  and  C_2
REMARK    2  A    between atoms: C_2  and  C_3
REMARK    3  A    between atoms: C_3  and  C_4
REMARK    4  A    between atoms: C_4  and  C_5
REMARK    5  A    between atoms: C_6  and  C_7
REMARK    6  A    between atoms: N_15  and  C_16
REMARK                            x       y       z     vdW  Elec       q    Type
REMARK                         _______ _______ _______ _____ _____    ______ ____
ROOT
ATOM      1  C   UNL     1       2.130   7.142  19.707  0.00  0.00    +0.000 A 
ATOM      2  C   UNL     1       1.610   8.432  19.813  0.00  0.00    +0.000 A 
ATOM      3  C   UNL     1       1.772   8.970  18.528  0.00  0.00    +0.000 A 
ATOM      4  N   UNL     1       2.332   8.121  17.674  0.00  0.00    +0.000 NA
ATOM      5  N   UNL     1       2.521   6.974  18.373  0.00  0.00    +0.000 N 
ENDROOT
BRANCH   2   6
ATOM      6  C   UNL     1       1.038   9.036  21.009  0.00  0.00    +0.000 C 
ATOM      7  O   UNL     1       1.403   8.697  22.131  0.00  0.00    +0.000 OA
ATOM      8  N   UNL     1       0.069  10.002  20.795  0.00  0.00    +0.000 N 
ATOM      9  C   UNL     1      -0.508  10.769  21.767  0.00  0.00    +0.000 C 
ATOM     10  N   UNL     1      -0.258  10.638  23.018  0.00  0.00    +0.000 NA
ATOM     11  N   UNL     1      -1.397  11.712  21.388  0.00  0.00    +0.000 N 
ATOM     12  H   UNL     1      -0.125  10.285  19.849  0.00  0.00    +0.000 HD
ATOM     13  H   UNL     1       0.444   9.888  23.150  0.00  0.00    +0.000 HD
ATOM     14  H   UNL     1      -2.053  11.457  20.663  0.00  0.00    +0.000 HD
ATOM     15  H   UNL     1      -1.875  12.074  22.213  0.00  0.00    +0.000 HD
ENDBRANCH   2   6
BRANCH   5  16
ATOM     16  C   UNL     1       3.123   5.826  17.758  0.00  0.00    +0.000 A 
ATOM     17  C   UNL     1       2.327   4.683  17.569  0.00  0.00    +0.000 A 
ATOM     18  C   UNL     1       2.908   3.471  17.223  0.00  0.00    +0.000 A 
ATOM     19  C   UNL     1       4.279   3.408  17.002  0.00  0.00    +0.000 A 
ATOM     20  C   UNL     1       5.086   4.531  17.074  0.00  0.00    +0.000 A 
ATOM     21  N   UNL     1       6.388   4.346  16.800  0.00  0.00    +0.000 NA
ATOM     22  C   UNL     1       7.216   5.405  16.869  0.00  0.00    +0.000 A 
ATOM     23  C   UNL     1       6.802   6.666  17.223  0.00  0.00    +0.000 A 
ATOM     24  C   UNL     1       5.457   6.847  17.525  0.00  0.00    +0.000 A 
ATOM     25  C   UNL     1       4.525   5.778  17.449  0.00  0.00    +0.000 A 
ENDBRANCH   5  16
BRANCH   1  26
ATOM     26  C   UNL     1       2.354   6.141  20.813  0.00  0.00    +0.000 C 
BRANCH  26  27
ATOM     27  C   UNL     1       1.345   4.990  20.782  0.00  0.00    +0.000 C 
BRANCH  27  29
ATOM     28  C   UNL     1       1.512   2.509  20.505  0.00  0.00    +0.000 C 
ATOM     29  C   UNL     1       1.945   3.703  21.342  0.00  0.00    +0.000 C 
ENDBRANCH  27  29
ENDBRANCH  26  27
ENDBRANCH   1  26
TORSDOF 5
ENDMDL
MODEL 3
REMARK VINA RESULT:      -7.8      1.015      1.295
REMARK  Name = 
REMARK  6 active torsions:
REMARK  status: ('A' for Active; 'I' for Inactive)
REMARK    1  A    between atoms: C_1  and  C_2
REMARK    2  A    between atoms: C_2  and  C_3
REMARK    3  A    between atoms: C_3  and  C_4
REMARK    4  A    between atoms: C_4  and  C_5
REMARK    5  A    between atoms: C_6  and  C_7
REMARK    6  A    between atoms: N_15  and  C_16
REMARK                            x       y       z     vdW  Elec       q    Type
REMARK                         _______ _______ _______ _____ _____    ______ ____
ROOT
ATOM      1  C   UNL     1       5.033   4.150  17.165  0.00  0.00    +0.000 A 
ATOM      2  C   UNL     1       6.271   4.302  16.542  0.00  0.00    +0.000 A 
ATOM      3  C   UNL     1       7.163   4.516  17.603  0.00  0.00    +0.000 A 
ATOM      4  N   UNL     1       6.571   4.500  18.791  0.00  0.00    +0.000 NA
ATOM      5  N   UNL     1       5.264   4.234  18.544  0.00  0.00    +0.000 N 
ENDROOT
BRANCH   2   6
ATOM      6  C   UNL     1       6.529   4.241  15.109  0.00  0.00    +0.000 C 
ATOM      7  O   UNL     1       5.875   3.504  14.375  0.00  0.00    +0.000 OA
ATOM      8  N   UNL     1       7.545   5.057  14.642  0.00  0.00    +0.000 N 
ATOM      9  C   UNL     1       7.870   5.237  13.326  0.00  0.00    +0.000 C 
ATOM     10  N   UNL     1       7.300   4.614  12.362  0.00  0.00    +0.000 NA
ATOM     11  N   UNL     1       8.852   6.115  13.029  0.00  0.00    +0.000 N 
ATOM     12  H   UNL     1       7.985   5.692  15.286  0.00  0.00    +0.000 HD
ATOM     13  H   UNL     1       6.568   3.988  12.743  0.00  0.00    +0.000 HD
ATOM     14  H   UNL     1       9.667   6.109  13.627  0.00  0.00    +0.000 HD
ATOM     15  H   UNL     1       9.108   6.013  12.048  0.00  0.00    +0.000 HD
ENDBRANCH   2   6
BRANCH   5  16
ATOM     16  C   UNL     1       4.313   4.150  19.615  0.00  0.00    +0.000 A 
ATOM     17  C   UNL     1       4.230   2.944  20.333  0.00  0.00    +0.000 A 
ATOM     18  C   UNL     1       3.169   2.711  21.197  0.00  0.00    +0.000 A 
ATOM     19  C   UNL     1       2.219   3.706  21.396  0.00  0.00    +0.000 A 
ATOM     20  C   UNL     1       2.317   4.947  20.789  0.00  0.00    +0.000 A 
ATOM     21  N   UNL     1       1.357   5.835  21.094  0.00  0.00    +0.000 NA
ATOM     22  C   UNL     1       1.402   7.052  20.520  0.00  0.00    +0.000 A 
ATOM     23  C   UNL     1       2.371   7.430  19.623  0.00  0.00    +0.000 A 
ATOM     24  C   UNL     1       3.352   6.499  19.297  0.00  0.00    +0.000 A 
ATOM     25  C   UNL     1       3.377   5.206  19.883  0.00  0.00    +0.000 A 
ENDBRANCH   5  16
BRANCH   1  26
ATOM     26  C   UNL     1       3.676   4.037  16.516  0.00  0.00    +0.000 C 
BRANCH  26  27
ATOM     27  C   UNL     1       2.836   2.896  17.095  0.00  0.00    +0.000 C 
BRANCH  27  29
ATOM     28  C   UNL     1       0.847   2.345  18.508  0.00  0.00    +0.000 C 
ATOM     29  C   UNL     1       1.497   3.399  17.626  0.00  0.00    +0.000 C 
ENDBRANCH  27  29
ENDBRANCH  26  27
ENDBRANCH   1  26
TORSDOF 5
ENDMDL
MODEL 4
REMARK VINA RESULT:      -7.7      4.625      7.918
REMARK  Name = 
REMARK  6 active torsions:
REMARK  status: ('A' for Active; 'I' for Inactive)
REMARK    1  A    between atoms: C_1  and  C_2
REMARK    2  A    between atoms: C_2  and  C_3
REMARK    3  A    between atoms: C_3  and  C_4
REMARK    4  A    between atoms: C_4  and  C_5
REMARK    5  A    between atoms: C_6  and  C_7
REMARK    6  A    between atoms: N_15  and  C_16
REMARK                            x       y       z     vdW  Elec       q    Type
REMARK                         _______ _______ _______ _____ _____    ______ ____
ROOT
ATOM      1  C   UNL     1       1.495   8.386  19.637  0.00  0.00    +0.000 A 
ATOM      2  C   UNL     1       2.313   7.455  18.997  0.00  0.00    +0.000 A 
ATOM      3  C   UNL     1       2.643   8.071  17.781  0.00  0.00    +0.000 A 
ATOM      4  N   UNL     1       2.103   9.276  17.644  0.00  0.00    +0.000 NA
ATOM      5  N   UNL     1       1.425   9.505  18.797  0.00  0.00    +0.000 N 
ENDROOT
BRANCH   2   6
ATOM      6  C   UNL     1       2.708   6.153  19.517  0.00  0.00    +0.000 C 
ATOM      7  O   UNL     1       3.888   5.883  19.730  0.00  0.00    +0.000 OA
ATOM      8  N   UNL     1       1.679   5.255  19.747  0.00  0.00    +0.000 N 
ATOM      9  C   UNL     1       1.819   4.030  20.336  0.00  0.00    +0.000 C 
ATOM     10  N   UNL     1       2.947   3.538  20.695  0.00  0.00    +0.000 NA
ATOM     11  N   UNL     1       0.706   3.295  20.545  0.00  0.00    +0.000 N 
ATOM     12  H   UNL     1       0.732   5.570  19.624  0.00  0.00    +0.000 HD
ATOM     13  H   UNL     1       3.700   4.216  20.481  0.00  0.00    +0.000 HD
ATOM     14  H   UNL     1       0.018   3.287  19.804  0.00  0.00    +0.000 HD
ATOM     15  H   UNL     1       0.973   2.349  20.816  0.00  0.00    +0.000 HD
ENDBRANCH   2   6
BRANCH   5  16
ATOM     16  C   UNL     1       0.702  10.727  18.998  0.00  0.00    +0.000 A 
ATOM     17  C   UNL     1       1.356  11.783  19.656  0.00  0.00    +0.000 A 
ATOM     18  C   UNL     1       0.639  12.884  20.105  0.00  0.00    +0.000 A 
ATOM     19  C   UNL     1      -0.723  12.965  19.845  0.00  0.00    +0.000 A 
ATOM     20  C   UNL     1      -1.388  11.998  19.110  0.00  0.00    +0.000 A 
ATOM     21  N   UNL     1      -2.697  12.212  18.893  0.00  0.00    +0.000 NA
ATOM     22  C   UNL     1      -3.391  11.294  18.194  0.00  0.00    +0.000 A 
ATOM     23  C   UNL     1      -2.834  10.138  17.703  0.00  0.00    +0.000 A 
ATOM     24  C   UNL     1      -1.484   9.913  17.947  0.00  0.00    +0.000 A 
ATOM     25  C   UNL     1      -0.688  10.851  18.658  0.00  0.00    +0.000 A 
ENDBRANCH   5  16
BRANCH   1  26
ATOM     26  C   UNL     1       0.724   8.213  20.921  0.00  0.00    +0.000 C 
BRANCH  26  27
ATOM     27  C   UNL     1       1.242   9.110  22.048  0.00  0.00    +0.000 C 
BRANCH  27  29
ATOM     28  C   UNL     1      -0.626  10.617  22.754  0.00  0.00    +0.000 C 
ATOM     29  C   UNL     1       0.167   9.367  23.101  0.00  0.00    +0.000 C 
ENDBRANCH  27  29
ENDBRANCH  26  27
ENDBRANCH   1  26
TORSDOF 5
ENDMDL
MODEL 5
REMARK VINA RESULT:      -7.7      2.852      4.655
REMARK  Name = 
REMARK  6 active torsions:
REMARK  status: ('A' for Active; 'I' for Inactive)
REMARK    1  A    between atoms: C_1  and  C_2
REMARK    2  A    between atoms: C_2  and  C_3
REMARK    3  A    between atoms: C_3  and  C_4
REMARK    4  A    between atoms: C_4  and  C_5
REMARK    5  A    between atoms: C_6  and  C_7
REMARK    6  A    between atoms: N_15  and  C_16
REMARK                            x       y       z     vdW  Elec       q    Type
REMARK                         _______ _______ _______ _____ _____    ______ ____
ROOT
ATOM      1  C   UNL     1       5.953   6.036  17.936  0.00  0.00    +0.000 A 
ATOM      2  C   UNL     1       7.161   6.523  18.433  0.00  0.00    +0.000 A 
ATOM      3  C   UNL     1       7.536   5.580  19.402  0.00  0.00    +0.000 A 
ATOM      4  N   UNL     1       6.668   4.583  19.521  0.00  0.00    +0.000 NA
ATOM      5  N   UNL     1       5.705   4.825  18.595  0.00  0.00    +0.000 N 
ENDROOT
BRANCH   2   6
ATOM      6  C   UNL     1       7.842   7.739  18.008  0.00  0.00    +0.000 C 
ATOM      7  O   UNL     1       7.837   8.093  16.831  0.00  0.00    +0.000 OA
ATOM      8  N   UNL     1       8.484   8.454  19.005  0.00  0.00    +0.000 N 
ATOM      9  C   UNL     1       9.079   9.673  18.842  0.00  0.00    +0.000 C 
ATOM     10  N   UNL     1       9.165  10.277  17.715  0.00  0.00    +0.000 NA
ATOM     11  N   UNL     1       9.613  10.269  19.930  0.00  0.00    +0.000 N 
ATOM     12  H   UNL     1       8.381   8.147  19.957  0.00  0.00    +0.000 HD
ATOM     13  H   UNL     1       8.707   9.705  16.983  0.00  0.00    +0.000 HD
ATOM     14  H   UNL     1      10.122   9.678  20.572  0.00  0.00    +0.000 HD
ATOM     15  H   UNL     1      10.173  11.068  19.634  0.00  0.00    +0.000 HD
ENDBRANCH   2   6
BRANCH   5  16
ATOM     16  C   UNL     1       4.586   3.940  18.446  0.00  0.00    +0.000 A 
ATOM     17  C   UNL     1       4.662   2.936  17.465  0.00  0.00    +0.000 A 
ATOM     18  C   UNL     1       3.529   2.223  17.099  0.00  0.00    +0.000 A 
ATOM     19  C   UNL     1       2.327   2.466  17.754  0.00  0.00    +0.000 A 
ATOM     20  C   UNL     1       2.230   3.372  18.797  0.00  0.00    +0.000 A 
ATOM     21  N   UNL     1       1.022   3.486  19.373  0.00  0.00    +0.000 NA
ATOM     22  C   UNL     1       0.874   4.363  20.384  0.00  0.00    +0.000 A 
ATOM     23  C   UNL     1       1.890   5.163  20.847  0.00  0.00    +0.000 A 
ATOM     24  C   UNL     1       3.133   5.053  20.233  0.00  0.00    +0.000 A 
ATOM     25  C   UNL     1       3.365   4.132  19.178  0.00  0.00    +0.000 A 
ENDBRANCH   5  16
BRANCH   1  26
ATOM     26  C   UNL     1       5.010   6.709  16.970  0.00  0.00    +0.000 C 
BRANCH  26  27
ATOM     27  C   UNL     1       5.154   6.183  15.540  0.00  0.00    +0.000 C 
BRANCH  27  29
ATOM     28  C   UNL     1       6.126   4.211  14.347  0.00  0.00    +0.000 C 
ATOM     29  C   UNL     1       6.379   5.285  15.393  0.00  0.00    +0.000 C 
ENDBRANCH  27  29
ENDBRANCH  26  27
ENDBRANCH   1  26
TORSDOF 5
ENDMDL
MODEL 6
REMARK VINA RESULT:      -7.7      4.675      7.661
REMARK  Name = 
REMARK  6 active torsions:
REMARK  status: ('A' for Active; 'I' for Inactive)
REMARK    1  A    between atoms: C_1  and  C_2
REMARK    2  A    between atoms: C_2  and  C_3
REMARK    3  A    between atoms: C_3  and  C_4
REMARK    4  A    between atoms: C_4  and  C_5
REMARK    5  A    between atoms: C_6  and  C_7
REMARK    6  A    between atoms: N_15  and  C_16
REMARK                            x       y       z     vdW  Elec       q    Type
REMARK                         _______ _______ _______ _____ _____    ______ ____
ROOT
ATOM      1  C   UNL     1       1.526   8.410  19.635  0.00  0.00    +0.000 A 
ATOM      2  C   UNL     1       2.350   7.489  18.989  0.00  0.00    +0.000 A 
ATOM      3  C   UNL     1       2.678   8.115  17.778  0.00  0.00    +0.000 A 
ATOM      4  N   UNL     1       2.131   9.318  17.649  0.00  0.00    +0.000 NA
ATOM      5  N   UNL     1       1.451   9.535  18.803  0.00  0.00    +0.000 N 
ENDROOT
BRANCH   2   6
ATOM      6  C   UNL     1       2.752   6.185  19.500  0.00  0.00    +0.000 C 
ATOM      7  O   UNL     1       2.042   5.562  20.286  0.00  0.00    +0.000 OA
ATOM      8  N   UNL     1       3.969   5.706  19.047  0.00  0.00    +0.000 N 
ATOM      9  C   UNL     1       4.475   4.464  19.309  0.00  0.00    +0.000 C 
ATOM     10  N   UNL     1       3.897   3.607  20.068  0.00  0.00    +0.000 NA
ATOM     11  N   UNL     1       5.653   4.125  18.743  0.00  0.00    +0.000 N 
ATOM     12  H   UNL     1       4.460   6.233  18.345  0.00  0.00    +0.000 HD
ATOM     13  H   UNL     1       3.008   4.004  20.418  0.00  0.00    +0.000 HD
ATOM     14  H   UNL     1       6.372   4.835  18.724  0.00  0.00    +0.000 HD
ATOM     15  H   UNL     1       5.992   3.261  19.164  0.00  0.00    +0.000 HD
ENDBRANCH   2   6
BRANCH   5  16
ATOM     16  C   UNL     1       0.720  10.751  19.012  0.00  0.00    +0.000 A 
ATOM     17  C   UNL     1       1.367  11.806  19.680  0.00  0.00    +0.000 A 
ATOM     18  C   UNL     1       0.643  12.899  20.136  0.00  0.00    +0.000 A 
ATOM     19  C   UNL     1      -0.720  12.974  19.873  0.00  0.00    +0.000 A 
ATOM     20  C   UNL     1      -1.378  12.009  19.129  0.00  0.00    +0.000 A 
ATOM     21  N   UNL     1      -2.687  12.218  18.911  0.00  0.00    +0.000 NA
ATOM     22  C   UNL     1      -3.374  11.302  18.203  0.00  0.00    +0.000 A 
ATOM     23  C   UNL     1      -2.810  10.153  17.704  0.00  0.00    +0.000 A 
ATOM     24  C   UNL     1      -1.459   9.934  17.950  0.00  0.00    +0.000 A 
ATOM     25  C   UNL     1      -0.670  10.870  18.669  0.00  0.00    +0.000 A 
ENDBRANCH   5  16
BRANCH   1  26
ATOM     26  C   UNL     1       0.753   8.223  20.916  0.00  0.00    +0.000 C 
BRANCH  26  27
ATOM     27  C   UNL     1       1.283   9.093  22.059  0.00  0.00    +0.000 C 
BRANCH  27  29
ATOM     28  C   UNL     1      -0.650  10.550  22.692  0.00  0.00    +0.000 C 
ATOM     29  C   UNL     1       0.205   9.362  23.106  0.00  0.00    +0.000 C 
ENDBRANCH  27  29
ENDBRANCH  26  27
ENDBRANCH   1  26
TORSDOF 5
ENDMDL
MODEL 7
REMARK VINA RESULT:      -7.5      3.419      7.439
REMARK  Name = 
REMARK  6 active torsions:
REMARK  status: ('A' for Active; 'I' for Inactive)
REMARK    1  A    between atoms: C_1  and  C_2
REMARK    2  A    between atoms: C_2  and  C_3
REMARK    3  A    between atoms: C_3  and  C_4
REMARK    4  A    between atoms: C_4  and  C_5
REMARK    5  A    between atoms: C_6  and  C_7
REMARK    6  A    between atoms: N_15  and  C_16
REMARK                            x       y       z     vdW  Elec       q    Type
REMARK                         _______ _______ _______ _____ _____    ______ ____
ROOT
ATOM      1  C   UNL     1       2.027   7.832  19.404  0.00  0.00    +0.000 A 
ATOM      2  C   UNL     1       1.558   9.139  19.270  0.00  0.00    +0.000 A 
ATOM      3  C   UNL     1       1.691   9.409  17.900  0.00  0.00    +0.000 A 
ATOM      4  N   UNL     1       2.188   8.387  17.213  0.00  0.00    +0.000 NA
ATOM      5  N   UNL     1       2.363   7.391  18.118  0.00  0.00    +0.000 N 
ENDROOT
BRANCH   2   6
ATOM      6  C   UNL     1       1.053   9.988  20.341  0.00  0.00    +0.000 C 
ATOM      7  O   UNL     1       1.127  11.213  20.271  0.00  0.00    +0.000 OA
ATOM      8  N   UNL     1       0.495   9.330  21.423  0.00  0.00    +0.000 N 
ATOM      9  C   UNL     1      -0.137   9.935  22.474  0.00  0.00    +0.000 C 
ATOM     10  N   UNL     1      -0.233  11.207  22.608  0.00  0.00    +0.000 NA
ATOM     11  N   UNL     1      -0.682   9.148  23.425  0.00  0.00    +0.000 N 
ATOM     12  H   UNL     1       0.397   8.330  21.378  0.00  0.00    +0.000 HD
ATOM     13  H   UNL     1       0.221  11.672  21.802  0.00  0.00    +0.000 HD
ATOM     14  H   UNL     1      -0.145   8.342  23.715  0.00  0.00    +0.000 HD
ATOM     15  H   UNL     1      -0.952   9.723  24.223  0.00  0.00    +0.000 HD
ENDBRANCH   2   6
BRANCH   5  16
ATOM     16  C   UNL     1       2.900   6.121  17.722  0.00  0.00    +0.000 A 
ATOM     17  C   UNL     1       2.026   5.022  17.666  0.00  0.00    +0.000 A 
ATOM     18  C   UNL     1       2.525   3.732  17.544  0.00  0.00    +0.000 A 
ATOM     19  C   UNL     1       3.895   3.539  17.415  0.00  0.00    +0.000 A 
ATOM     20  C   UNL     1       4.784   4.600  17.360  0.00  0.00    +0.000 A 
ATOM     21  N   UNL     1       6.078   4.281  17.194  0.00  0.00    +0.000 NA
ATOM     22  C   UNL     1       6.983   5.277  17.147  0.00  0.00    +0.000 A 
ATOM     23  C   UNL     1       6.655   6.605  17.278  0.00  0.00    +0.000 A 
ATOM     24  C   UNL     1       5.315   6.925  17.470  0.00  0.00    +0.000 A 
ATOM     25  C   UNL     1       4.307   5.926  17.506  0.00  0.00    +0.000 A 
ENDBRANCH   5  16
BRANCH   1  26
ATOM     26  C   UNL     1       2.257   7.057  20.677  0.00  0.00    +0.000 C 
BRANCH  26  27
ATOM     27  C   UNL     1       1.377   5.809  20.777  0.00  0.00    +0.000 C 
BRANCH  27  29
ATOM     28  C   UNL     1       1.334   3.326  21.079  0.00  0.00    +0.000 C 
ATOM     29  C   UNL     1       2.189   4.580  21.177  0.00  0.00    +0.000 C 
ENDBRANCH  27  29
ENDBRANCH  26  27
ENDBRANCH   1  26
TORSDOF 5
ENDMDL
MODEL 8
REMARK VINA RESULT:      -7.3      4.366      7.958
REMARK  Name = 
REMARK  6 active torsions:
REMARK  status: ('A' for Active; 'I' for Inactive)
REMARK    1  A    between atoms: C_1  and  C_2
REMARK    2  A    between atoms: C_2  and  C_3
REMARK    3  A    between atoms: C_3  and  C_4
REMARK    4  A    between atoms: C_4  and  C_5
REMARK    5  A    between atoms: C_6  and  C_7
REMARK    6  A    between atoms: N_15  and  C_16
REMARK                            x       y       z     vdW  Elec       q    Type
REMARK                         _______ _______ _______ _____ _____    ______ ____
ROOT
ATOM      1  C   UNL     1       1.463   8.678  19.960  0.00  0.00    +0.000 A 
ATOM      2  C   UNL     1       1.216   9.806  19.178  0.00  0.00    +0.000 A 
ATOM      3  C   UNL     1       1.644   9.432  17.896  0.00  0.00    +0.000 A 
ATOM      4  N   UNL     1       2.115   8.191  17.845  0.00  0.00    +0.000 NA
ATOM      5  N   UNL     1       1.972   7.696  19.101  0.00  0.00    +0.000 N 
ENDROOT
BRANCH   2   6
ATOM      6  C   UNL     1       0.641  11.064  19.635  0.00  0.00    +0.000 C 
ATOM      7  O   UNL     1       1.307  11.873  20.276  0.00  0.00    +0.000 OA
ATOM      8  N   UNL     1      -0.687  11.278  19.304  0.00  0.00    +0.000 N 
ATOM      9  C   UNL     1      -1.380  12.433  19.534  0.00  0.00    +0.000 C 
ATOM     10  N   UNL     1      -0.889  13.447  20.148  0.00  0.00    +0.000 NA
ATOM     11  N   UNL     1      -2.655  12.506  19.097  0.00  0.00    +0.000 N 
ATOM     12  H   UNL     1      -1.147  10.608  18.712  0.00  0.00    +0.000 HD
ATOM     13  H   UNL     1       0.092  13.245  20.412  0.00  0.00    +0.000 HD
ATOM     14  H   UNL     1      -3.229  11.684  19.222  0.00  0.00    +0.000 HD
ATOM     15  H   UNL     1      -3.099  13.335  19.491  0.00  0.00    +0.000 HD
ENDBRANCH   2   6
BRANCH   5  16
ATOM     16  C   UNL     1       2.391   6.362  19.420  0.00  0.00    +0.000 A 
ATOM     17  C   UNL     1       1.609   5.621  20.323  0.00  0.00    +0.000 A 
ATOM     18  C   UNL     1       2.092   4.437  20.865  0.00  0.00    +0.000 A 
ATOM     19  C   UNL     1       3.332   3.956  20.460  0.00  0.00    +0.000 A 
ATOM     20  C   UNL     1       4.089   4.599  19.495  0.00  0.00    +0.000 A 
ATOM     21  N   UNL     1       5.250   4.011  19.163  0.00  0.00    +0.000 NA
ATOM     22  C   UNL     1       6.028   4.604  18.238  0.00  0.00    +0.000 A 
ATOM     23  C   UNL     1       5.706   5.791  17.626  0.00  0.00    +0.000 A 
ATOM     24  C   UNL     1       4.512   6.404  17.990  0.00  0.00    +0.000 A 
ATOM     25  C   UNL     1       3.633   5.821  18.941  0.00  0.00    +0.000 A 
ENDBRANCH   5  16
BRANCH   1  26
ATOM     26  C   UNL     1       1.335   8.543  21.457  0.00  0.00    +0.000 C 
BRANCH  26  27
ATOM     27  C   UNL     1      -0.104   8.723  21.946  0.00  0.00    +0.000 C 
BRANCH  27  29
ATOM     28  C   UNL     1      -1.047  10.786  23.001  0.00  0.00    +0.000 C 
ATOM     29  C   UNL     1      -0.164   9.568  23.216  0.00  0.00    +0.000 C 
ENDBRANCH  27  29
ENDBRANCH  26  27
ENDBRANCH   1  26
TORSDOF 5
ENDMDL
MODEL 9
REMARK VINA RESULT:      -7.3      3.489      5.818
REMARK  Name = 
REMARK  6 active torsions:
REMARK  status: ('A' for Active; 'I' for Inactive)
REMARK    1  A    between atoms: C_1  and  C_2
REMARK    2  A    between atoms: C_2  and  C_3
REMARK    3  A    between atoms: C_3  and  C_4
REMARK    4  A    between atoms: C_4  and  C_5
REMARK    5  A    between atoms: C_6  and  C_7
REMARK    6  A    between atoms: N_15  and  C_16
REMARK                            x       y       z     vdW  Elec       q    Type
REMARK                         _______ _______ _______ _____ _____    ______ ____
ROOT
ATOM      1  C   UNL     1       2.199   7.022  19.587  0.00  0.00    +0.000 A 
ATOM      2  C   UNL     1       2.829   6.741  18.375  0.00  0.00    +0.000 A 
ATOM      3  C   UNL     1       2.735   7.941  17.656  0.00  0.00    +0.000 A 
ATOM      4  N   UNL     1       2.115   8.904  18.328  0.00  0.00    +0.000 NA
ATOM      5  N   UNL     1       1.814   8.368  19.538  0.00  0.00    +0.000 N 
ENDROOT
BRANCH   2   6
ATOM      6  C   UNL     1       3.435   5.473  17.991  0.00  0.00    +0.000 C 
ATOM      7  O   UNL     1       2.779   4.596  17.435  0.00  0.00    +0.000 OA
ATOM      8  N   UNL     1       4.778   5.327  18.294  0.00  0.00    +0.000 N 
ATOM      9  C   UNL     1       5.561   4.271  17.921  0.00  0.00    +0.000 C 
ATOM     10  N   UNL     1       5.118   3.247  17.288  0.00  0.00    +0.000 NA
ATOM     11  N   UNL     1       6.871   4.306  18.244  0.00  0.00    +0.000 N 
ATOM     12  H   UNL     1       5.271   6.115  18.679  0.00  0.00    +0.000 HD
ATOM     13  H   UNL     1       4.106   3.369  17.105  0.00  0.00    +0.000 HD
ATOM     14  H   UNL     1       7.106   4.648  19.165  0.00  0.00    +0.000 HD
ATOM     15  H   UNL     1       7.285   3.390  18.070  0.00  0.00    +0.000 HD
ENDBRANCH   2   6
BRANCH   5  16
ATOM     16  C   UNL     1       1.122   9.135  20.533  0.00  0.00    +0.000 A 
ATOM     17  C   UNL     1       1.311   8.791  21.883  0.00  0.00    +0.000 A 
ATOM     18  C   UNL     1       0.483   9.318  22.865  0.00  0.00    +0.000 A 
ATOM     19  C   UNL     1      -0.497  10.237  22.512  0.00  0.00    +0.000 A 
ATOM     20  C   UNL     1      -0.650  10.683  21.210  0.00  0.00    +0.000 A 
ATOM     21  N   UNL     1      -1.608  11.603  21.006  0.00  0.00    +0.000 NA
ATOM     22  C   UNL     1      -1.805  12.058  19.755  0.00  0.00    +0.000 A 
ATOM     23  C   UNL     1      -1.087  11.619  18.669  0.00  0.00    +0.000 A 
ATOM     24  C   UNL     1      -0.111  10.653  18.884  0.00  0.00    +0.000 A 
ATOM     25  C   UNL     1       0.164  10.147  20.181  0.00  0.00    +0.000 A 
ENDBRANCH   5  16
BRANCH   1  26
ATOM     26  C   UNL     1       1.871   6.064  20.704  0.00  0.00    +0.000 C 
BRANCH  26  27
ATOM     27  C   UNL     1       0.771   5.069  20.325  0.00  0.00    +0.000 C 
BRANCH  27  29
ATOM     28  C   UNL     1       2.167   3.489  21.672  0.00  0.00    +0.000 C 
ATOM     29  C   UNL     1       1.245   3.625  20.470  0.00  0.00    +0.000 C 
ENDBRANCH  27  29
ENDBRANCH  26  27
ENDBRANCH   1  26
TORSDOF 5
ENDMDL
