MODEL 1
REMARK VINA RESULT:      -7.6      0.000      0.000
REMARK  Name = 
REMARK  12 active torsions:
REMARK  status: ('A' for Active; 'I' for Inactive)
REMARK    1  A    between atoms: C_1  and  C_2
REMARK    2  A    between atoms: C_2  and  C_3
REMARK    3  A    between atoms: C_3  and  N_4
REMARK    4  A    between atoms: C_3  and  C_25
REMARK    5  A    between atoms: N_4  and  C_5
REMARK    6  A    between atoms: C_6  and  N_7
REMARK    7  A    between atoms: N_7  and  C_8
REMARK    8  A    between atoms: C_10  and  C_11
REMARK    9  A    between atoms: C_13  and  C_14
REMARK   10  A    between atoms: N_16  and  C_17
REMARK   11  A    between atoms: N_16  and  C_18
REMARK   12  A    between atoms: C_19  and  O_20
REMARK                            x       y       z     vdW  Elec       q    Type
REMARK                         _______ _______ _______ _____ _____    ______ ____
ROOT
ATOM      1  C   UNL     1       2.328   7.284  19.688  0.00  0.00    +0.000 C 
ATOM      2  C   UNL     1       1.612   8.455  19.598  0.00  0.00    +0.000 C 
ATOM      3  C   UNL     1       2.031   8.667  18.192  0.00  0.00    +0.000 C 
ATOM      4  O   UNL     1       1.825   9.439  17.290  0.00  0.00    +0.000 OA
ATOM      5  C   UNL     1       2.970   7.536  18.364  0.00  0.00    +0.000 C 
ATOM      6  O   UNL     1       3.813   7.038  17.656  0.00  0.00    +0.000 OA
ENDROOT
BRANCH   1   7
ATOM      7  N   UNL     1       2.538   6.261  20.507  0.00  0.00    +0.000 N 
ATOM      8  H   UNL     1       3.506   6.091  20.785  0.00  0.00    +0.000 HD
BRANCH   7   9
ATOM      9  C   UNL     1       1.891   4.948  20.255  0.00  0.00    +0.000 C 
BRANCH   9  10
ATOM     10  C   UNL     1       2.487   4.227  19.045  0.00  0.00    +0.000 A 
ATOM     11  C   UNL     1       1.888   3.918  17.834  0.00  0.00    +0.000 A 
ATOM     12  C   UNL     1       2.762   3.229  16.944  0.00  0.00    +0.000 A 
ATOM     13  C   UNL     1       4.015   3.060  17.484  0.00  0.00    +0.000 A 
ATOM     14  S   UNL     1       4.129   3.716  19.059  0.00  0.00    +0.000 S 
ENDBRANCH   9  10
BRANCH   9  16
ATOM     15  C   UNL     1       1.330   2.714  21.382  0.00  0.00    +0.000 C 
ATOM     16  C   UNL     1       2.065   4.041  21.496  0.00  0.00    +0.000 C 
ENDBRANCH   9  16
ENDBRANCH   7   9
ENDBRANCH   1   7
BRANCH   2  17
ATOM     17  N   UNL     1       0.780   9.208  20.276  0.00  0.00    +0.000 N 
ATOM     18  H   UNL     1       0.376   8.882  21.162  0.00  0.00    +0.000 HD
BRANCH  17  19
ATOM     19  C   UNL     1       0.029  10.325  19.844  0.00  0.00    +0.000 A 
ATOM     20  C   UNL     1      -1.091  10.247  19.012  0.00  0.00    +0.000 A 
ATOM     21  C   UNL     1      -1.751  11.417  18.606  0.00  0.00    +0.000 A 
ATOM     22  C   UNL     1      -3.090  11.358  17.930  0.00  0.00    +0.000 C 
ATOM     23  C   UNL     1      -1.134  12.656  18.836  0.00  0.00    +0.000 A 
ATOM     24  C   UNL     1       0.026  12.748  19.622  0.00  0.00    +0.000 A 
ATOM     25  C   UNL     1       0.465  11.592  20.257  0.00  0.00    +0.000 A 
BRANCH  24  26
ATOM     26  C   UNL     1       0.703  14.073  19.719  0.00  0.00    +0.000 C 
ATOM     27  O   UNL     1       0.143  14.920  20.420  0.00  0.00    +0.000 OA
ATOM     28  N   UNL     1       1.881  14.362  19.009  0.00  0.00    +0.000 N 
ATOM     29  C   UNL     1       2.682  13.444  18.202  0.00  0.00    +0.000 C 
ATOM     30  C   UNL     1       2.453  15.691  19.157  0.00  0.00    +0.000 C 
ENDBRANCH  24  26
BRANCH  25  31
ATOM     31  O   UNL     1       1.275  11.612  21.370  0.00  0.00    +0.000 OA
ATOM     32  H   UNL     1       1.217  10.725  21.773  0.00  0.00    +0.000 HD
ENDBRANCH  25  31
ENDBRANCH  17  19
ENDBRANCH   2  17
TORSDOF 8
ENDMDL
MODEL 2
REMARK VINA RESULT:      -7.5      2.981      8.123
REMARK  Name = 
REMARK  12 active torsions:
REMARK  status: ('A' for Active; 'I' for Inactive)
REMARK    1  A    between atoms: C_1  and  C_2
REMARK    2  A    between atoms: C_2  and  C_3
REMARK    3  A    between atoms: C_3  and  N_4
REMARK    4  A    between atoms: C_3  and  C_25
REMARK    5  A    between atoms: N_4  and  C_5
REMARK    6  A    between atoms: C_6  and  N_7
REMARK    7  A    between atoms: N_7  and  C_8
REMARK    8  A    between atoms: C_10  and  C_11
REMARK    9  A    between atoms: C_13  and  C_14
REMARK   10  A    between atoms: N_16  and  C_17
REMARK   11  A    between atoms: N_16  and  C_18
REMARK   12  A    between atoms: C_19  and  O_20
REMARK                            x       y       z     vdW  Elec       q    Type
REMARK                         _______ _______ _______ _____ _____    ______ ____
ROOT
ATOM      1  C   UNL     1      -0.153   9.737  20.346  0.00  0.00    +0.000 C 
ATOM      2  C   UNL     1       1.064   9.097  20.346  0.00  0.00    +0.000 C 
ATOM      3  C   UNL     1       1.257   9.343  21.795  0.00  0.00    +0.000 C 
ATOM      4  O   UNL     1       2.047   9.075  22.664  0.00  0.00    +0.000 OA
ATOM      5  C   UNL     1       0.063  10.217  21.743  0.00  0.00    +0.000 C 
ATOM      6  O   UNL     1      -0.486  10.925  22.554  0.00  0.00    +0.000 OA
ENDROOT
BRANCH   1   7
ATOM      7  N   UNL     1      -1.194   9.982  19.560  0.00  0.00    +0.000 N 
ATOM      8  H   UNL     1      -1.703   9.168  19.212  0.00  0.00    +0.000 HD
BRANCH   7   9
ATOM      9  C   UNL     1      -1.092  10.971  18.457  0.00  0.00    +0.000 C 
BRANCH   9  10
ATOM     10  C   UNL     1      -2.262  10.873  17.477  0.00  0.00    +0.000 A 
ATOM     11  C   UNL     1      -2.320  10.224  16.253  0.00  0.00    +0.000 A 
ATOM     12  C   UNL     1      -3.587  10.358  15.615  0.00  0.00    +0.000 A 
ATOM     13  C   UNL     1      -4.474  11.077  16.381  0.00  0.00    +0.000 A 
ATOM     14  S   UNL     1      -3.776  11.596  17.854  0.00  0.00    +0.000 S 
ENDBRANCH   9  10
BRANCH   9  16
ATOM     15  C   UNL     1      -0.011  13.296  18.424  0.00  0.00    +0.000 C 
ATOM     16  C   UNL     1      -1.072  12.400  19.047  0.00  0.00    +0.000 C 
ENDBRANCH   9  16
ENDBRANCH   7   9
ENDBRANCH   1   7
BRANCH   2  17
ATOM     17  N   UNL     1       1.867   8.414  19.567  0.00  0.00    +0.000 N 
ATOM     18  H   UNL     1       2.088   8.742  18.619  0.00  0.00    +0.000 HD
BRANCH  17  19
ATOM     19  C   UNL     1       2.266   7.060  19.659  0.00  0.00    +0.000 A 
ATOM     20  C   UNL     1       1.610   6.096  20.428  0.00  0.00    +0.000 A 
ATOM     21  C   UNL     1       2.104   4.785  20.486  0.00  0.00    +0.000 A 
ATOM     22  C   UNL     1       1.292   3.675  21.090  0.00  0.00    +0.000 C 
ATOM     23  C   UNL     1       3.382   4.520  19.972  0.00  0.00    +0.000 A 
ATOM     24  C   UNL     1       4.082   5.496  19.245  0.00  0.00    +0.000 A 
ATOM     25  C   UNL     1       3.416   6.680  18.952  0.00  0.00    +0.000 A 
BRANCH  24  26
ATOM     26  C   UNL     1       5.485   5.195  18.839  0.00  0.00    +0.000 C 
ATOM     27  O   UNL     1       6.347   5.339  19.710  0.00  0.00    +0.000 OA
ATOM     28  N   UNL     1       5.817   4.824  17.525  0.00  0.00    +0.000 N 
ATOM     29  C   UNL     1       4.902   4.554  16.418  0.00  0.00    +0.000 C 
ATOM     30  C   UNL     1       7.218   4.571  17.224  0.00  0.00    +0.000 C 
ENDBRANCH  24  26
BRANCH  25  31
ATOM     31  O   UNL     1       3.779   7.505  17.911  0.00  0.00    +0.000 OA
ATOM     32  H   UNL     1       3.721   8.420  18.248  0.00  0.00    +0.000 HD
ENDBRANCH  25  31
ENDBRANCH  17  19
ENDBRANCH   2  17
TORSDOF 8
ENDMDL
MODEL 3
REMARK VINA RESULT:      -7.5      2.926      4.762
REMARK  Name = 
REMARK  12 active torsions:
REMARK  status: ('A' for Active; 'I' for Inactive)
REMARK    1  A    between atoms: C_1  and  C_2
REMARK    2  A    between atoms: C_2  and  C_3
REMARK    3  A    between atoms: C_3  and  N_4
REMARK    4  A    between atoms: C_3  and  C_25
REMARK    5  A    between atoms: N_4  and  C_5
REMARK    6  A    between atoms: C_6  and  N_7
REMARK    7  A    between atoms: N_7  and  C_8
REMARK    8  A    between atoms: C_10  and  C_11
REMARK    9  A    between atoms: C_13  and  C_14
REMARK   10  A    between atoms: N_16  and  C_17
REMARK   11  A    between atoms: N_16  and  C_18
REMARK   12  A    between atoms: C_19  and  O_20
REMARK                            x       y       z     vdW  Elec       q    Type
REMARK                         _______ _______ _______ _____ _____    ______ ____
ROOT
ATOM      1  C   UNL     1       2.954   4.965  18.123  0.00  0.00    +0.000 C 
ATOM      2  C   UNL     1       2.537   5.770  19.157  0.00  0.00    +0.000 C 
ATOM      3  C   UNL     1       1.575   4.750  19.638  0.00  0.00    +0.000 C 
ATOM      4  O   UNL     1       0.803   4.589  20.549  0.00  0.00    +0.000 OA
ATOM      5  C   UNL     1       1.864   3.984  18.405  0.00  0.00    +0.000 C 
ATOM      6  O   UNL     1       1.419   2.964  17.934  0.00  0.00    +0.000 OA
ENDROOT
BRANCH   1   7
ATOM      7  N   UNL     1       3.865   4.906  17.160  0.00  0.00    +0.000 N 
ATOM      8  H   UNL     1       4.447   4.068  17.132  0.00  0.00    +0.000 HD
BRANCH   7   9
ATOM      9  C   UNL     1       4.727   6.079  16.863  0.00  0.00    +0.000 C 
BRANCH   9  10
ATOM     10  C   UNL     1       5.973   6.125  17.751  0.00  0.00    +0.000 A 
ATOM     11  C   UNL     1       6.314   5.304  18.814  0.00  0.00    +0.000 A 
ATOM     12  C   UNL     1       7.559   5.659  19.410  0.00  0.00    +0.000 A 
ATOM     13  C   UNL     1       8.152   6.719  18.766  0.00  0.00    +0.000 A 
ATOM     14  S   UNL     1       7.204   7.289  17.461  0.00  0.00    +0.000 S 
ENDBRANCH   9  10
BRANCH   9  16
ATOM     15  C   UNL     1       5.825   4.698  15.003  0.00  0.00    +0.000 C 
ATOM     16  C   UNL     1       5.184   6.023  15.387  0.00  0.00    +0.000 C 
ENDBRANCH   9  16
ENDBRANCH   7   9
ENDBRANCH   1   7
BRANCH   2  17
ATOM     17  N   UNL     1       2.787   6.923  19.729  0.00  0.00    +0.000 N 
ATOM     18  H   UNL     1       3.697   7.109  20.165  0.00  0.00    +0.000 HD
BRANCH  17  19
ATOM     19  C   UNL     1       1.883   7.915  20.176  0.00  0.00    +0.000 A 
ATOM     20  C   UNL     1       1.423   8.026  21.490  0.00  0.00    +0.000 A 
ATOM     21  C   UNL     1       0.496   9.022  21.831  0.00  0.00    +0.000 A 
ATOM     22  C   UNL     1       0.177   9.328  23.266  0.00  0.00    +0.000 C 
ATOM     23  C   UNL     1      -0.141   9.734  20.803  0.00  0.00    +0.000 A 
ATOM     24  C   UNL     1       0.269   9.592  19.467  0.00  0.00    +0.000 A 
ATOM     25  C   UNL     1       1.400   8.821  19.221  0.00  0.00    +0.000 A 
BRANCH  24  26
ATOM     26  C   UNL     1      -0.532  10.275  18.411  0.00  0.00    +0.000 C 
ATOM     27  O   UNL     1      -0.856   9.585  17.442  0.00  0.00    +0.000 OA
ATOM     28  N   UNL     1      -0.851  11.641  18.486  0.00  0.00    +0.000 N 
ATOM     29  C   UNL     1      -0.593  12.557  19.595  0.00  0.00    +0.000 C 
ATOM     30  C   UNL     1      -1.621  12.219  17.396  0.00  0.00    +0.000 C 
ENDBRANCH  24  26
BRANCH  25  31
ATOM     31  O   UNL     1       2.160   8.952  18.081  0.00  0.00    +0.000 OA
ATOM     32  H   UNL     1       2.441   8.051  17.828  0.00  0.00    +0.000 HD
ENDBRANCH  25  31
ENDBRANCH  17  19
ENDBRANCH   2  17
TORSDOF 8
ENDMDL
MODEL 4
REMARK VINA RESULT:      -7.4      1.727      2.543
REMARK  Name = 
REMARK  12 active torsions:
REMARK  status: ('A' for Active; 'I' for Inactive)
REMARK    1  A    between atoms: C_1  and  C_2
REMARK    2  A    between atoms: C_2  and  C_3
REMARK    3  A    between atoms: C_3  and  N_4
REMARK    4  A    between atoms: C_3  and  C_25
REMARK    5  A    between atoms: N_4  and  C_5
REMARK    6  A    between atoms: C_6  and  N_7
REMARK    7  A    between atoms: N_7  and  C_8
REMARK    8  A    between atoms: C_10  and  C_11
REMARK    9  A    between atoms: C_13  and  C_14
REMARK   10  A    between atoms: N_16  and  C_17
REMARK   11  A    between atoms: N_16  and  C_18
REMARK   12  A    between atoms: C_19  and  O_20
REMARK                            x       y       z     vdW  Elec       q    Type
REMARK                         _______ _______ _______ _____ _____    ______ ____
ROOT
ATOM      1  C   UNL     1       3.423   6.218  19.248  0.00  0.00    +0.000 C 
ATOM      2  C   UNL     1       3.002   7.203  18.387  0.00  0.00    +0.000 C 
ATOM      3  C   UNL     1       4.061   6.874  17.403  0.00  0.00    +0.000 C 
ATOM      4  O   UNL     1       4.413   7.211  16.302  0.00  0.00    +0.000 OA
ATOM      5  C   UNL     1       4.643   5.972  18.423  0.00  0.00    +0.000 C 
ATOM      6  O   UNL     1       5.644   5.297  18.464  0.00  0.00    +0.000 OA
ENDROOT
BRANCH   1   7
ATOM      7  N   UNL     1       3.079   5.617  20.381  0.00  0.00    +0.000 N 
ATOM      8  H   UNL     1       3.833   5.427  21.043  0.00  0.00    +0.000 HD
BRANCH   7   9
ATOM      9  C   UNL     1       2.166   4.446  20.368  0.00  0.00    +0.000 C 
BRANCH   9  10
ATOM     10  C   UNL     1       2.553   3.418  19.302  0.00  0.00    +0.000 A 
ATOM     11  C   UNL     1       1.970   3.185  18.067  0.00  0.00    +0.000 A 
ATOM     12  C   UNL     1       2.605   2.132  17.346  0.00  0.00    +0.000 A 
ATOM     13  C   UNL     1       3.675   1.611  18.034  0.00  0.00    +0.000 A 
ATOM     14  S   UNL     1       3.901   2.380  19.546  0.00  0.00    +0.000 S 
ENDBRANCH   9  10
BRANCH   9  16
ATOM     15  C   UNL     1       1.272   2.549  21.843  0.00  0.00    +0.000 C 
ATOM     16  C   UNL     1       2.200   3.750  21.749  0.00  0.00    +0.000 C 
ENDBRANCH   9  16
ENDBRANCH   7   9
ENDBRANCH   1   7
BRANCH   2  17
ATOM     17  N   UNL     1       2.059   8.101  18.231  0.00  0.00    +0.000 N 
ATOM     18  H   UNL     1       1.805   8.442  17.296  0.00  0.00    +0.000 HD
BRANCH  17  19
ATOM     19  C   UNL     1       1.504   8.990  19.180  0.00  0.00    +0.000 A 
ATOM     20  C   UNL     1       1.103   8.620  20.466  0.00  0.00    +0.000 A 
ATOM     21  C   UNL     1       0.527   9.567  21.325  0.00  0.00    +0.000 A 
ATOM     22  C   UNL     1       0.321   9.270  22.783  0.00  0.00    +0.000 C 
ATOM     23  C   UNL     1       0.136  10.808  20.800  0.00  0.00    +0.000 A 
ATOM     24  C   UNL     1       0.480  11.175  19.489  0.00  0.00    +0.000 A 
ATOM     25  C   UNL     1       1.319  10.322  18.782  0.00  0.00    +0.000 A 
BRANCH  24  26
ATOM     26  C   UNL     1      -0.076  12.450  18.949  0.00  0.00    +0.000 C 
ATOM     27  O   UNL     1      -1.084  12.349  18.245  0.00  0.00    +0.000 OA
ATOM     28  N   UNL     1       0.544  13.689  19.180  0.00  0.00    +0.000 N 
ATOM     29  C   UNL     1       1.693  13.964  20.041  0.00  0.00    +0.000 C 
ATOM     30  C   UNL     1      -0.066  14.873  18.594  0.00  0.00    +0.000 C 
ENDBRANCH  24  26
BRANCH  25  31
ATOM     31  O   UNL     1       2.080  10.738  17.713  0.00  0.00    +0.000 OA
ATOM     32  H   UNL     1       1.455  10.985  17.004  0.00  0.00    +0.000 HD
ENDBRANCH  25  31
ENDBRANCH  17  19
ENDBRANCH   2  17
TORSDOF 8
ENDMDL
MODEL 5
REMARK VINA RESULT:      -7.3      2.099      2.927
REMARK  Name = 
REMARK  12 active torsions:
REMARK  status: ('A' for Active; 'I' for Inactive)
REMARK    1  A    between atoms: C_1  and  C_2
REMARK    2  A    between atoms: C_2  and  C_3
REMARK    3  A    between atoms: C_3  and  N_4
REMARK    4  A    between atoms: C_3  and  C_25
REMARK    5  A    between atoms: N_4  and  C_5
REMARK    6  A    between atoms: C_6  and  N_7
REMARK    7  A    between atoms: N_7  and  C_8
REMARK    8  A    between atoms: C_10  and  C_11
REMARK    9  A    between atoms: C_13  and  C_14
REMARK   10  A    between atoms: N_16  and  C_17
REMARK   11  A    between atoms: N_16  and  C_18
REMARK   12  A    between atoms: C_19  and  O_20
REMARK                            x       y       z     vdW  Elec       q    Type
REMARK                         _______ _______ _______ _____ _____    ______ ____
ROOT
ATOM      1  C   UNL     1       2.428   7.180  18.923  0.00  0.00    +0.000 C 
ATOM      2  C   UNL     1       1.812   8.383  19.170  0.00  0.00    +0.000 C 
ATOM      3  C   UNL     1       1.537   8.017  20.580  0.00  0.00    +0.000 C 
ATOM      4  O   UNL     1       1.066   8.514  21.571  0.00  0.00    +0.000 OA
ATOM      5  C   UNL     1       1.998   6.650  20.251  0.00  0.00    +0.000 C 
ATOM      6  O   UNL     1       2.047   5.615  20.872  0.00  0.00    +0.000 OA
ENDROOT
BRANCH   1   7
ATOM      7  N   UNL     1       3.119   6.544  17.985  0.00  0.00    +0.000 N 
ATOM      8  H   UNL     1       2.581   6.145  17.214  0.00  0.00    +0.000 HD
BRANCH   7   9
ATOM      9  C   UNL     1       4.185   5.579  18.355  0.00  0.00    +0.000 C 
BRANCH   9  10
ATOM     10  C   UNL     1       3.710   4.126  18.273  0.00  0.00    +0.000 A 
ATOM     11  C   UNL     1       2.822   3.551  17.378  0.00  0.00    +0.000 A 
ATOM     12  C   UNL     1       2.616   2.161  17.619  0.00  0.00    +0.000 A 
ATOM     13  C   UNL     1       3.377   1.705  18.670  0.00  0.00    +0.000 A 
ATOM     14  S   UNL     1       4.321   2.950  19.367  0.00  0.00    +0.000 S 
ENDBRANCH   9  10
BRANCH   9  16
ATOM     15  C   UNL     1       5.048   6.504  16.125  0.00  0.00    +0.000 C 
ATOM     16  C   UNL     1       5.390   5.750  17.401  0.00  0.00    +0.000 C 
ENDBRANCH   9  16
ENDBRANCH   7   9
ENDBRANCH   1   7
BRANCH   2  17
ATOM     17  N   UNL     1       1.542   9.537  18.608  0.00  0.00    +0.000 N 
ATOM     18  H   UNL     1       2.290  10.210  18.401  0.00  0.00    +0.000 HD
BRANCH  17  19
ATOM     19  C   UNL     1       0.308  10.221  18.513  0.00  0.00    +0.000 A 
ATOM     20  C   UNL     1      -0.754   9.819  17.700  0.00  0.00    +0.000 A 
ATOM     21  C   UNL     1      -1.928  10.585  17.645  0.00  0.00    +0.000 A 
ATOM     22  C   UNL     1      -3.170  10.056  16.988  0.00  0.00    +0.000 C 
ATOM     23  C   UNL     1      -1.926  11.869  18.212  0.00  0.00    +0.000 A 
ATOM     24  C   UNL     1      -0.841  12.312  18.985  0.00  0.00    +0.000 A 
ATOM     25  C   UNL     1       0.166  11.396  19.266  0.00  0.00    +0.000 A 
BRANCH  24  26
ATOM     26  C   UNL     1      -0.844  13.730  19.449  0.00  0.00    +0.000 C 
ATOM     27  O   UNL     1      -0.311  14.550  18.698  0.00  0.00    +0.000 OA
ATOM     28  N   UNL     1      -1.373  14.103  20.696  0.00  0.00    +0.000 N 
ATOM     29  C   UNL     1      -2.087  13.258  21.650  0.00  0.00    +0.000 C 
ATOM     30  C   UNL     1      -1.311  15.509  21.065  0.00  0.00    +0.000 C 
ENDBRANCH  24  26
BRANCH  25  31
ATOM     31  O   UNL     1       1.023  11.530  20.334  0.00  0.00    +0.000 OA
ATOM     32  H   UNL     1       1.832  11.033  20.106  0.00  0.00    +0.000 HD
ENDBRANCH  25  31
ENDBRANCH  17  19
ENDBRANCH   2  17
TORSDOF 8
ENDMDL
MODEL 6
REMARK VINA RESULT:      -7.3      1.055      1.355
REMARK  Name = 
REMARK  12 active torsions:
REMARK  status: ('A' for Active; 'I' for Inactive)
REMARK    1  A    between atoms: C_1  and  C_2
REMARK    2  A    between atoms: C_2  and  C_3
REMARK    3  A    between atoms: C_3  and  N_4
REMARK    4  A    between atoms: C_3  and  C_25
REMARK    5  A    between atoms: N_4  and  C_5
REMARK    6  A    between atoms: C_6  and  N_7
REMARK    7  A    between atoms: N_7  and  C_8
REMARK    8  A    between atoms: C_10  and  C_11
REMARK    9  A    between atoms: C_13  and  C_14
REMARK   10  A    between atoms: N_16  and  C_17
REMARK   11  A    between atoms: N_16  and  C_18
REMARK   12  A    between atoms: C_19  and  O_20
REMARK                            x       y       z     vdW  Elec       q    Type
REMARK                         _______ _______ _______ _____ _____    ______ ____
ROOT
ATOM      1  C   UNL     1       2.371   7.281  19.675  0.00  0.00    +0.000 C 
ATOM      2  C   UNL     1       1.703   8.479  19.584  0.00  0.00    +0.000 C 
ATOM      3  C   UNL     1       2.091   8.652  18.164  0.00  0.00    +0.000 C 
ATOM      4  O   UNL     1       1.892   9.418  17.256  0.00  0.00    +0.000 OA
ATOM      5  C   UNL     1       2.986   7.485  18.330  0.00  0.00    +0.000 C 
ATOM      6  O   UNL     1       3.788   6.941  17.609  0.00  0.00    +0.000 OA
ENDROOT
BRANCH   1   7
ATOM      7  N   UNL     1       2.561   6.262  20.505  0.00  0.00    +0.000 N 
ATOM      8  H   UNL     1       3.525   6.078  20.787  0.00  0.00    +0.000 HD
BRANCH   7   9
ATOM      9  C   UNL     1       1.891   4.959  20.265  0.00  0.00    +0.000 C 
BRANCH   9  10
ATOM     10  C   UNL     1       2.470   4.219  19.057  0.00  0.00    +0.000 A 
ATOM     11  C   UNL     1       1.858   3.905  17.854  0.00  0.00    +0.000 A 
ATOM     12  C   UNL     1       2.719   3.198  16.964  0.00  0.00    +0.000 A 
ATOM     13  C   UNL     1       3.973   3.020  17.497  0.00  0.00    +0.000 A 
ATOM     14  S   UNL     1       4.106   3.691  19.065  0.00  0.00    +0.000 S 
ENDBRANCH   9  10
BRANCH   9  16
ATOM     15  C   UNL     1       1.330   2.725  21.392  0.00  0.00    +0.000 C 
ATOM     16  C   UNL     1       2.055   4.058  21.511  0.00  0.00    +0.000 C 
ENDBRANCH   9  16
ENDBRANCH   7   9
ENDBRANCH   1   7
BRANCH   2  17
ATOM     17  N   UNL     1       0.922   9.277  20.272  0.00  0.00    +0.000 N 
ATOM     18  H   UNL     1       0.712   9.087  21.259  0.00  0.00    +0.000 HD
BRANCH  17  19
ATOM     19  C   UNL     1      -0.008  10.237  19.810  0.00  0.00    +0.000 A 
ATOM     20  C   UNL     1      -1.076   9.951  18.956  0.00  0.00    +0.000 A 
ATOM     21  C   UNL     1      -1.926  10.979  18.521  0.00  0.00    +0.000 A 
ATOM     22  C   UNL     1      -3.217  10.674  17.818  0.00  0.00    +0.000 C 
ATOM     23  C   UNL     1      -1.547  12.311  18.747  0.00  0.00    +0.000 A 
ATOM     24  C   UNL     1      -0.441  12.617  19.556  0.00  0.00    +0.000 A 
ATOM     25  C   UNL     1       0.185  11.566  20.216  0.00  0.00    +0.000 A 
BRANCH  24  26
ATOM     26  C   UNL     1      -0.015  14.043  19.650  0.00  0.00    +0.000 C 
ATOM     27  O   UNL     1       0.789  14.429  18.797  0.00  0.00    +0.000 OA
ATOM     28  N   UNL     1      -0.459  14.886  20.683  0.00  0.00    +0.000 N 
ATOM     29  C   UNL     1      -1.452  14.587  21.712  0.00  0.00    +0.000 C 
ATOM     30  C   UNL     1       0.030  16.257  20.698  0.00  0.00    +0.000 C 
ENDBRANCH  24  26
BRANCH  25  31
ATOM     31  O   UNL     1       0.952  11.741  21.345  0.00  0.00    +0.000 OA
ATOM     32  H   UNL     1       0.698  11.033  21.967  0.00  0.00    +0.000 HD
ENDBRANCH  25  31
ENDBRANCH  17  19
ENDBRANCH   2  17
TORSDOF 8
ENDMDL
MODEL 7
REMARK VINA RESULT:      -7.2      2.013      2.779
REMARK  Name = 
REMARK  12 active torsions:
REMARK  status: ('A' for Active; 'I' for Inactive)
REMARK    1  A    between atoms: C_1  and  C_2
REMARK    2  A    between atoms: C_2  and  C_3
REMARK    3  A    between atoms: C_3  and  N_4
REMARK    4  A    between atoms: C_3  and  C_25
REMARK    5  A    between atoms: N_4  and  C_5
REMARK    6  A    between atoms: C_6  and  N_7
REMARK    7  A    between atoms: N_7  and  C_8
REMARK    8  A    between atoms: C_10  and  C_11
REMARK    9  A    between atoms: C_13  and  C_14
REMARK   10  A    between atoms: N_16  and  C_17
REMARK   11  A    between atoms: N_16  and  C_18
REMARK   12  A    between atoms: C_19  and  O_20
REMARK                            x       y       z     vdW  Elec       q    Type
REMARK                         _______ _______ _______ _____ _____    ______ ____
ROOT
ATOM      1  C   UNL     1       2.335   7.269  19.158  0.00  0.00    +0.000 C 
ATOM      2  C   UNL     1       1.673   8.432  19.470  0.00  0.00    +0.000 C 
ATOM      3  C   UNL     1       1.386   7.966  20.847  0.00  0.00    +0.000 C 
ATOM      4  O   UNL     1       0.880   8.380  21.859  0.00  0.00    +0.000 OA
ATOM      5  C   UNL     1       1.900   6.639  20.440  0.00  0.00    +0.000 C 
ATOM      6  O   UNL     1       1.974   5.568  20.994  0.00  0.00    +0.000 OA
ENDROOT
BRANCH   1   7
ATOM      7  N   UNL     1       3.064   6.719  18.194  0.00  0.00    +0.000 N 
ATOM      8  H   UNL     1       2.557   6.381  17.375  0.00  0.00    +0.000 HD
BRANCH   7   9
ATOM      9  C   UNL     1       4.128   5.735  18.520  0.00  0.00    +0.000 C 
BRANCH   9  10
ATOM     10  C   UNL     1       3.658   4.290  18.343  0.00  0.00    +0.000 A 
ATOM     11  C   UNL     1       2.717   3.783  17.461  0.00  0.00    +0.000 A 
ATOM     12  C   UNL     1       2.537   2.375  17.593  0.00  0.00    +0.000 A 
ATOM     13  C   UNL     1       3.369   1.839  18.547  0.00  0.00    +0.000 A 
ATOM     14  S   UNL     1       4.349   3.030  19.287  0.00  0.00    +0.000 S 
ENDBRANCH   9  10
BRANCH   9  16
ATOM     15  C   UNL     1       4.970   6.526  16.231  0.00  0.00    +0.000 C 
ATOM     16  C   UNL     1       5.346   5.967  17.595  0.00  0.00    +0.000 C 
ENDBRANCH   9  16
ENDBRANCH   7   9
ENDBRANCH   1   7
BRANCH   2  17
ATOM     17  N   UNL     1       1.373   9.610  18.978  0.00  0.00    +0.000 N 
ATOM     18  H   UNL     1       2.074  10.360  18.942  0.00  0.00    +0.000 HD
BRANCH  17  19
ATOM     19  C   UNL     1       0.104  10.195  18.765  0.00  0.00    +0.000 A 
ATOM     20  C   UNL     1      -0.749   9.865  17.709  0.00  0.00    +0.000 A 
ATOM     21  C   UNL     1      -1.975  10.528  17.559  0.00  0.00    +0.000 A 
ATOM     22  C   UNL     1      -3.016  10.029  16.598  0.00  0.00    +0.000 C 
ATOM     23  C   UNL     1      -2.219  11.680  18.322  0.00  0.00    +0.000 A 
ATOM     24  C   UNL     1      -1.343  12.061  19.351  0.00  0.00    +0.000 A 
ATOM     25  C   UNL     1      -0.301  11.195  19.661  0.00  0.00    +0.000 A 
BRANCH  24  26
ATOM     26  C   UNL     1      -1.590  13.363  20.035  0.00  0.00    +0.000 C 
ATOM     27  O   UNL     1      -2.509  13.379  20.858  0.00  0.00    +0.000 OA
ATOM     28  N   UNL     1      -0.857  14.520  19.722  0.00  0.00    +0.000 N 
ATOM     29  C   UNL     1       0.292  14.631  18.826  0.00  0.00    +0.000 C 
ATOM     30  C   UNL     1      -1.187  15.746  20.433  0.00  0.00    +0.000 C 
ENDBRANCH  24  26
BRANCH  25  31
ATOM     31  O   UNL     1       0.337  11.200  20.881  0.00  0.00    +0.000 OA
ATOM     32  H   UNL     1       1.278  11.004  20.704  0.00  0.00    +0.000 HD
ENDBRANCH  25  31
ENDBRANCH  17  19
ENDBRANCH   2  17
TORSDOF 8
ENDMDL
MODEL 8
REMARK VINA RESULT:      -7.1      2.992      8.039
REMARK  Name = 
REMARK  12 active torsions:
REMARK  status: ('A' for Active; 'I' for Inactive)
REMARK    1  A    between atoms: C_1  and  C_2
REMARK    2  A    between atoms: C_2  and  C_3
REMARK    3  A    between atoms: C_3  and  N_4
REMARK    4  A    between atoms: C_3  and  C_25
REMARK    5  A    between atoms: N_4  and  C_5
REMARK    6  A    between atoms: C_6  and  N_7
REMARK    7  A    between atoms: N_7  and  C_8
REMARK    8  A    between atoms: C_10  and  C_11
REMARK    9  A    between atoms: C_13  and  C_14
REMARK   10  A    between atoms: N_16  and  C_17
REMARK   11  A    between atoms: N_16  and  C_18
REMARK   12  A    between atoms: C_19  and  O_20
REMARK                            x       y       z     vdW  Elec       q    Type
REMARK                         _______ _______ _______ _____ _____    ______ ____
ROOT
ATOM      1  C   UNL     1      -0.344  10.194  20.590  0.00  0.00    +0.000 C 
ATOM      2  C   UNL     1       0.893   9.603  20.484  0.00  0.00    +0.000 C 
ATOM      3  C   UNL     1       1.103   9.649  21.950  0.00  0.00    +0.000 C 
ATOM      4  O   UNL     1       1.917   9.289  22.763  0.00  0.00    +0.000 OA
ATOM      5  C   UNL     1      -0.119  10.480  22.038  0.00  0.00    +0.000 C 
ATOM      6  O   UNL     1      -0.676  11.048  22.946  0.00  0.00    +0.000 OA
ENDROOT
BRANCH   1   7
ATOM      7  N   UNL     1      -1.405  10.510  19.859  0.00  0.00    +0.000 N 
ATOM      8  H   UNL     1      -2.021   9.740  19.592  0.00  0.00    +0.000 HD
BRANCH   7   9
ATOM      9  C   UNL     1      -1.277  11.424  18.696  0.00  0.00    +0.000 C 
BRANCH   9  10
ATOM     10  C   UNL     1      -2.461  11.312  17.733  0.00  0.00    +0.000 A 
ATOM     11  C   UNL     1      -2.468  10.917  16.405  0.00  0.00    +0.000 A 
ATOM     12  C   UNL     1      -3.771  10.945  15.827  0.00  0.00    +0.000 A 
ATOM     13  C   UNL     1      -4.728  11.327  16.736  0.00  0.00    +0.000 A 
ATOM     14  S   UNL     1      -4.055  11.663  18.273  0.00  0.00    +0.000 S 
ENDBRANCH   9  10
BRANCH   9  16
ATOM     15  C   UNL     1      -0.056  13.675  18.563  0.00  0.00    +0.000 C 
ATOM     16  C   UNL     1      -1.193  12.885  19.194  0.00  0.00    +0.000 C 
ENDBRANCH   9  16
ENDBRANCH   7   9
ENDBRANCH   1   7
BRANCH   2  17
ATOM     17  N   UNL     1       1.705   9.063  19.606  0.00  0.00    +0.000 N 
ATOM     18  H   UNL     1       1.951   9.560  18.742  0.00  0.00    +0.000 HD
BRANCH  17  19
ATOM     19  C   UNL     1       2.083   7.710  19.449  0.00  0.00    +0.000 A 
ATOM     20  C   UNL     1       1.714   6.683  20.322  0.00  0.00    +0.000 A 
ATOM     21  C   UNL     1       2.170   5.375  20.104  0.00  0.00    +0.000 A 
ATOM     22  C   UNL     1       1.595   4.215  20.864  0.00  0.00    +0.000 C 
ATOM     23  C   UNL     1       3.186   5.161  19.159  0.00  0.00    +0.000 A 
ATOM     24  C   UNL     1       3.611   6.197  18.312  0.00  0.00    +0.000 A 
ATOM     25  C   UNL     1       2.909   7.396  18.360  0.00  0.00    +0.000 A 
BRANCH  24  26
ATOM     26  C   UNL     1       4.780   5.940  17.423  0.00  0.00    +0.000 C 
ATOM     27  O   UNL     1       4.579   6.059  16.211  0.00  0.00    +0.000 OA
ATOM     28  N   UNL     1       6.025   5.530  17.929  0.00  0.00    +0.000 N 
ATOM     29  C   UNL     1       6.421   5.413  19.331  0.00  0.00    +0.000 C 
ATOM     30  C   UNL     1       7.098   5.286  16.977  0.00  0.00    +0.000 C 
ENDBRANCH  24  26
BRANCH  25  31
ATOM     31  O   UNL     1       2.906   8.303  17.326  0.00  0.00    +0.000 OA
ATOM     32  H   UNL     1       2.108   8.855  17.441  0.00  0.00    +0.000 HD
ENDBRANCH  25  31
ENDBRANCH  17  19
ENDBRANCH   2  17
TORSDOF 8
ENDMDL
MODEL 9
REMARK VINA RESULT:      -7.1      2.891      4.754
REMARK  Name = 
REMARK  12 active torsions:
REMARK  status: ('A' for Active; 'I' for Inactive)
REMARK    1  A    between atoms: C_1  and  C_2
REMARK    2  A    between atoms: C_2  and  C_3
REMARK    3  A    between atoms: C_3  and  N_4
REMARK    4  A    between atoms: C_3  and  C_25
REMARK    5  A    between atoms: N_4  and  C_5
REMARK    6  A    between atoms: C_6  and  N_7
REMARK    7  A    between atoms: N_7  and  C_8
REMARK    8  A    between atoms: C_10  and  C_11
REMARK    9  A    between atoms: C_13  and  C_14
REMARK   10  A    between atoms: N_16  and  C_17
REMARK   11  A    between atoms: N_16  and  C_18
REMARK   12  A    between atoms: C_19  and  O_20
REMARK                            x       y       z     vdW  Elec       q    Type
REMARK                         _______ _______ _______ _____ _____    ______ ____
ROOT
ATOM      1  C   UNL     1       3.163   5.298  18.006  0.00  0.00    +0.000 C 
ATOM      2  C   UNL     1       2.578   6.368  18.641  0.00  0.00    +0.000 C 
ATOM      3  C   UNL     1       1.950   5.492  19.659  0.00  0.00    +0.000 C 
ATOM      4  O   UNL     1       1.285   5.593  20.658  0.00  0.00    +0.000 OA
ATOM      5  C   UNL     1       2.395   4.335  18.849  0.00  0.00    +0.000 C 
ATOM      6  O   UNL     1       2.231   3.142  18.941  0.00  0.00    +0.000 OA
ENDROOT
BRANCH   1   7
ATOM      7  N   UNL     1       4.020   5.016  17.033  0.00  0.00    +0.000 N 
ATOM      8  H   UNL     1       4.535   4.138  17.120  0.00  0.00    +0.000 HD
BRANCH   7   9
ATOM      9  C   UNL     1       4.955   6.052  16.525  0.00  0.00    +0.000 C 
BRANCH   9  10
ATOM     10  C   UNL     1       6.168   6.241  17.439  0.00  0.00    +0.000 A 
ATOM     11  C   UNL     1       7.128   7.239  17.414  0.00  0.00    +0.000 A 
ATOM     12  C   UNL     1       8.119   7.079  18.426  0.00  0.00    +0.000 A 
ATOM     13  C   UNL     1       7.871   5.982  19.218  0.00  0.00    +0.000 A 
ATOM     14  S   UNL     1       6.460   5.147  18.732  0.00  0.00    +0.000 S 
ENDBRANCH   9  10
BRANCH   9  16
ATOM     15  C   UNL     1       5.823   4.172  15.013  0.00  0.00    +0.000 C 
ATOM     16  C   UNL     1       5.462   5.646  15.122  0.00  0.00    +0.000 C 
ENDBRANCH   9  16
ENDBRANCH   7   9
ENDBRANCH   1   7
BRANCH   2  17
ATOM     17  N   UNL     1       2.520   7.678  18.612  0.00  0.00    +0.000 N 
ATOM     18  H   UNL     1       3.299   8.231  18.235  0.00  0.00    +0.000 HD
BRANCH  17  19
ATOM     19  C   UNL     1       1.680   8.553  19.338  0.00  0.00    +0.000 A 
ATOM     20  C   UNL     1       1.374   8.409  20.693  0.00  0.00    +0.000 A 
ATOM     21  C   UNL     1       0.498   9.309  21.318  0.00  0.00    +0.000 A 
ATOM     22  C   UNL     1       0.347   9.335  22.811  0.00  0.00    +0.000 C 
ATOM     23  C   UNL     1      -0.248  10.191  20.521  0.00  0.00    +0.000 A 
ATOM     24  C   UNL     1       0.006  10.308  19.145  0.00  0.00    +0.000 A 
ATOM     25  C   UNL     1       1.096   9.615  18.631  0.00  0.00    +0.000 A 
BRANCH  24  26
ATOM     26  C   UNL     1      -0.907  11.165  18.335  0.00  0.00    +0.000 C 
ATOM     27  O   UNL     1      -0.541  12.328  18.151  0.00  0.00    +0.000 OA
ATOM     28  N   UNL     1      -2.140  10.693  17.855  0.00  0.00    +0.000 N 
ATOM     29  C   UNL     1      -2.667   9.333  17.939  0.00  0.00    +0.000 C 
ATOM     30  C   UNL     1      -2.967  11.613  17.089  0.00  0.00    +0.000 C 
ENDBRANCH  24  26
BRANCH  25  31
ATOM     31  O   UNL     1       1.722   9.969  17.458  0.00  0.00    +0.000 OA
ATOM     32  H   UNL     1       2.565   9.476  17.431  0.00  0.00    +0.000 HD
ENDBRANCH  25  31
ENDBRANCH  17  19
ENDBRANCH   2  17
TORSDOF 8
ENDMDL
