MODEL 1
REMARK VINA RESULT:      -8.9      0.000      0.000
REMARK  Name = 
REMARK  8 active torsions:
REMARK  status: ('A' for Active; 'I' for Inactive)
REMARK    1  A    between atoms: C_2  and  C_3
REMARK    2  A    between atoms: C_3  and  O_4
REMARK    3  A    between atoms: O_4  and  C_5
REMARK    4  A    between atoms: N_7  and  C_8
REMARK    5  A    between atoms: C_8  and  C_9
REMARK    6  A    between atoms: C_8  and  C_17
REMARK    7  A    between atoms: C_9  and  C_10
REMARK    8  A    between atoms: C_10  and  C_11
REMARK                            x       y       z     vdW  Elec       q    Type
REMARK                         _______ _______ _______ _____ _____    ______ ____
ROOT
ATOM      1  C   UNL     1       5.060   6.290  17.487  0.00  0.00    +0.000 C 
ENDROOT
BRANCH   1   2
ATOM      2  C   UNL     1       5.047   5.145  18.521  0.00  0.00    +0.000 C 
ATOM      3  O   UNL     1       5.646   5.283  19.595  0.00  0.00    +0.000 OA
ATOM      4  N   UNL     1       4.389   3.969  18.222  0.00  0.00    +0.000 N 
ATOM      5  C   UNL     1       3.590   3.631  17.051  0.00  0.00    +0.000 C 
ATOM      6  C   UNL     1       2.428   2.815  17.618  0.00  0.00    +0.000 C 
ATOM      7  O   UNL     1       1.314   3.685  17.867  0.00  0.00    +0.000 OA
ATOM      8  N   UNL     1       0.973   3.628  19.237  0.00  0.00    +0.000 NA
ATOM      9  C   UNL     1       1.848   2.880  19.819  0.00  0.00    +0.000 C 
ATOM     10 BR   UNL     1       1.710   2.553  21.640  0.00  0.00    +0.000 Br
ATOM     11  C   UNL     1       2.900   2.293  18.963  0.00  0.00    +0.000 C 
ATOM     12  C   UNL     1       4.267   2.908  19.207  0.00  0.00    +0.000 C 
ENDBRANCH   1   2
BRANCH   1  15
ATOM     13  C   UNL     1       6.725   5.745  15.760  0.00  0.00    +0.000 C 
ATOM     14  O   UNL     1       7.672   6.124  16.433  0.00  0.00    +0.000 OA
ATOM     15  N   UNL     1       5.432   5.766  16.182  0.00  0.00    +0.000 N 
ATOM     16  H   UNL     1       4.713   5.442  15.547  0.00  0.00    +0.000 HD
BRANCH  13  17
ATOM     17  O   UNL     1       6.795   5.267  14.496  0.00  0.00    +0.000 OA
BRANCH  17  18
ATOM     18  C   UNL     1       6.044   4.072  14.243  0.00  0.00    +0.000 C 
BRANCH  18  20
ATOM     19  C   UNL     1       5.321   3.188  11.971  0.00  0.00    +0.000 C 
ATOM     20  C   UNL     1       6.263   3.573  12.843  0.00  0.00    +0.000 C 
ENDBRANCH  18  20
ENDBRANCH  17  18
ENDBRANCH  13  17
ENDBRANCH   1  15
BRANCH   1  21
ATOM     21  C   UNL     1       3.725   7.044  17.428  0.00  0.00    +0.000 C 
BRANCH  21  22
ATOM     22  C   UNL     1       2.814   6.818  18.645  0.00  0.00    +0.000 C 
BRANCH  22  23
ATOM     23  C   UNL     1       2.016   8.064  18.961  0.00  0.00    +0.000 A 
ATOM     24  C   UNL     1       1.795   9.040  17.979  0.00  0.00    +0.000 A 
ATOM     25  C   UNL     1       1.103  10.212  18.292  0.00  0.00    +0.000 A 
ATOM     26  C   UNL     1       0.628  10.421  19.585  0.00  0.00    +0.000 A 
ATOM     27  C   UNL     1       0.836   9.453  20.565  0.00  0.00    +0.000 A 
ATOM     28  C   UNL     1       1.526   8.280  20.256  0.00  0.00    +0.000 A 
ENDBRANCH  22  23
ENDBRANCH  21  22
ENDBRANCH   1  21
TORSDOF 8
ENDMDL
MODEL 2
REMARK VINA RESULT:      -8.6      0.738      1.194
REMARK  Name = 
REMARK  8 active torsions:
REMARK  status: ('A' for Active; 'I' for Inactive)
REMARK    1  A    between atoms: C_2  and  C_3
REMARK    2  A    between atoms: C_3  and  O_4
REMARK    3  A    between atoms: O_4  and  C_5
REMARK    4  A    between atoms: N_7  and  C_8
REMARK    5  A    between atoms: C_8  and  C_9
REMARK    6  A    between atoms: C_8  and  C_17
REMARK    7  A    between atoms: C_9  and  C_10
REMARK    8  A    between atoms: C_10  and  C_11
REMARK                            x       y       z     vdW  Elec       q    Type
REMARK                         _______ _______ _______ _____ _____    ______ ____
ROOT
ATOM      1  C   UNL     1       5.460   5.756  17.474  0.00  0.00    +0.000 C 
ENDROOT
BRANCH   1   2
ATOM      2  C   UNL     1       5.257   4.851  18.707  0.00  0.00    +0.000 C 
ATOM      3  O   UNL     1       5.631   5.240  19.820  0.00  0.00    +0.000 OA
ATOM      4  N   UNL     1       4.685   3.606  18.545  0.00  0.00    +0.000 N 
ATOM      5  C   UNL     1       4.136   2.991  17.343  0.00  0.00    +0.000 C 
ATOM      6  C   UNL     1       2.895   2.249  17.840  0.00  0.00    +0.000 C 
ATOM      7  O   UNL     1       1.743   3.092  17.682  0.00  0.00    +0.000 OA
ATOM      8  N   UNL     1       1.140   3.300  18.942  0.00  0.00    +0.000 NA
ATOM      9  C   UNL     1       1.891   2.737  19.826  0.00  0.00    +0.000 C 
ATOM     10 BR   UNL     1       1.401   2.787  21.614  0.00  0.00    +0.000 Br
ATOM     11  C   UNL     1       3.098   2.042  19.330  0.00  0.00    +0.000 C 
ATOM     12  C   UNL     1       4.383   2.767  19.693  0.00  0.00    +0.000 C 
ENDBRANCH   1   2
BRANCH   1  15
ATOM     13  C   UNL     1       6.640   5.023  15.444  0.00  0.00    +0.000 C 
ATOM     14  O   UNL     1       7.600   5.755  15.635  0.00  0.00    +0.000 OA
ATOM     15  N   UNL     1       5.568   4.936  16.278  0.00  0.00    +0.000 N 
ATOM     16  H   UNL     1       4.814   4.309  16.027  0.00  0.00    +0.000 HD
BRANCH  13  17
ATOM     17  O   UNL     1       6.470   4.204  14.380  0.00  0.00    +0.000 OA
BRANCH  17  18
ATOM     18  C   UNL     1       7.216   4.551  13.205  0.00  0.00    +0.000 C 
BRANCH  18  20
ATOM     19  C   UNL     1       5.661   2.994  11.931  0.00  0.00    +0.000 C 
ATOM     20  C   UNL     1       6.754   3.766  12.010  0.00  0.00    +0.000 C 
ENDBRANCH  18  20
ENDBRANCH  17  18
ENDBRANCH  13  17
ENDBRANCH   1  15
BRANCH   1  21
ATOM     21  C   UNL     1       4.356   6.812  17.331  0.00  0.00    +0.000 C 
BRANCH  21  22
ATOM     22  C   UNL     1       2.995   6.389  17.906  0.00  0.00    +0.000 C 
BRANCH  22  23
ATOM     23  C   UNL     1       2.306   7.555  18.580  0.00  0.00    +0.000 A 
ATOM     24  C   UNL     1       1.979   7.502  19.942  0.00  0.00    +0.000 A 
ATOM     25  C   UNL     1       1.296   8.560  20.546  0.00  0.00    +0.000 A 
ATOM     26  C   UNL     1       0.933   9.677  19.797  0.00  0.00    +0.000 A 
ATOM     27  C   UNL     1       1.260   9.742  18.444  0.00  0.00    +0.000 A 
ATOM     28  C   UNL     1       1.944   8.687  17.838  0.00  0.00    +0.000 A 
ENDBRANCH  22  23
ENDBRANCH  21  22
ENDBRANCH   1  21
TORSDOF 8
ENDMDL
MODEL 3
REMARK VINA RESULT:      -8.5      0.790      1.147
REMARK  Name = 
REMARK  8 active torsions:
REMARK  status: ('A' for Active; 'I' for Inactive)
REMARK    1  A    between atoms: C_2  and  C_3
REMARK    2  A    between atoms: C_3  and  O_4
REMARK    3  A    between atoms: O_4  and  C_5
REMARK    4  A    between atoms: N_7  and  C_8
REMARK    5  A    between atoms: C_8  and  C_9
REMARK    6  A    between atoms: C_8  and  C_17
REMARK    7  A    between atoms: C_9  and  C_10
REMARK    8  A    between atoms: C_10  and  C_11
REMARK                            x       y       z     vdW  Elec       q    Type
REMARK                         _______ _______ _______ _____ _____    ______ ____
ROOT
ATOM      1  C   UNL     1       5.717   5.421  17.355  0.00  0.00    +0.000 C 
ENDROOT
BRANCH   1   2
ATOM      2  C   UNL     1       5.431   4.382  18.460  0.00  0.00    +0.000 C 
ATOM      3  O   UNL     1       6.030   4.455  19.539  0.00  0.00    +0.000 OA
ATOM      4  N   UNL     1       4.528   3.366  18.217  0.00  0.00    +0.000 N 
ATOM      5  C   UNL     1       3.690   3.137  17.047  0.00  0.00    +0.000 C 
ATOM      6  C   UNL     1       2.366   2.644  17.631  0.00  0.00    +0.000 C 
ATOM      7  O   UNL     1       1.473   3.757  17.792  0.00  0.00    +0.000 OA
ATOM      8  N   UNL     1       1.110   3.872  19.152  0.00  0.00    +0.000 NA
ATOM      9  C   UNL     1       1.784   2.989  19.806  0.00  0.00    +0.000 C 
ATOM     10 BR   UNL     1       1.550   2.826  21.639  0.00  0.00    +0.000 Br
ATOM     11  C   UNL     1       2.688   2.123  19.020  0.00  0.00    +0.000 C 
ATOM     12  C   UNL     1       4.155   2.430  19.264  0.00  0.00    +0.000 C 
ENDBRANCH   1   2
BRANCH   1  15
ATOM     13  C   UNL     1       6.182   4.888  14.999  0.00  0.00    +0.000 C 
ATOM     14  O   UNL     1       7.328   5.312  15.041  0.00  0.00    +0.000 OA
ATOM     15  N   UNL     1       5.332   4.878  16.062  0.00  0.00    +0.000 N 
ATOM     16  H   UNL     1       4.396   4.518  15.926  0.00  0.00    +0.000 HD
BRANCH  13  17
ATOM     17  O   UNL     1       5.566   4.384  13.906  0.00  0.00    +0.000 OA
BRANCH  17  18
ATOM     18  C   UNL     1       6.422   3.735  12.955  0.00  0.00    +0.000 C 
BRANCH  18  20
ATOM     19  C   UNL     1       5.850   1.781  11.432  0.00  0.00    +0.000 C 
ATOM     20  C   UNL     1       5.628   3.016  11.902  0.00  0.00    +0.000 C 
ENDBRANCH  18  20
ENDBRANCH  17  18
ENDBRANCH  13  17
ENDBRANCH   1  15
BRANCH   1  21
ATOM     21  C   UNL     1       5.032   6.768  17.624  0.00  0.00    +0.000 C 
BRANCH  21  22
ATOM     22  C   UNL     1       3.577   6.848  17.136  0.00  0.00    +0.000 C 
BRANCH  22  23
ATOM     23  C   UNL     1       2.701   7.539  18.158  0.00  0.00    +0.000 A 
ATOM     24  C   UNL     1       2.056   8.745  17.849  0.00  0.00    +0.000 A 
ATOM     25  C   UNL     1       1.292   9.405  18.813  0.00  0.00    +0.000 A 
ATOM     26  C   UNL     1       1.166   8.869  20.094  0.00  0.00    +0.000 A 
ATOM     27  C   UNL     1       1.797   7.667  20.408  0.00  0.00    +0.000 A 
ATOM     28  C   UNL     1       2.561   7.005  19.445  0.00  0.00    +0.000 A 
ENDBRANCH  22  23
ENDBRANCH  21  22
ENDBRANCH   1  21
TORSDOF 8
ENDMDL
MODEL 4
REMARK VINA RESULT:      -8.3      1.580      6.095
REMARK  Name = 
REMARK  8 active torsions:
REMARK  status: ('A' for Active; 'I' for Inactive)
REMARK    1  A    between atoms: C_2  and  C_3
REMARK    2  A    between atoms: C_3  and  O_4
REMARK    3  A    between atoms: O_4  and  C_5
REMARK    4  A    between atoms: N_7  and  C_8
REMARK    5  A    between atoms: C_8  and  C_9
REMARK    6  A    between atoms: C_8  and  C_17
REMARK    7  A    between atoms: C_9  and  C_10
REMARK    8  A    between atoms: C_10  and  C_11
REMARK                            x       y       z     vdW  Elec       q    Type
REMARK                         _______ _______ _______ _____ _____    ______ ____
ROOT
ATOM      1  C   UNL     1       4.700   6.096  17.188  0.00  0.00    +0.000 C 
ENDROOT
BRANCH   1   2
ATOM      2  C   UNL     1       4.805   5.072  18.337  0.00  0.00    +0.000 C 
ATOM      3  O   UNL     1       5.408   5.376  19.374  0.00  0.00    +0.000 OA
ATOM      4  N   UNL     1       4.249   3.819  18.181  0.00  0.00    +0.000 N 
ATOM      5  C   UNL     1       3.463   3.289  17.074  0.00  0.00    +0.000 C 
ATOM      6  C   UNL     1       2.387   2.442  17.754  0.00  0.00    +0.000 C 
ATOM      7  O   UNL     1       1.205   3.235  17.940  0.00  0.00    +0.000 OA
ATOM      8  N   UNL     1       0.895   3.296  19.316  0.00  0.00    +0.000 NA
ATOM      9  C   UNL     1       1.841   2.694  19.951  0.00  0.00    +0.000 C 
ATOM     10 BR   UNL     1       1.764   2.553  21.799  0.00  0.00    +0.000 Br
ATOM     11  C   UNL     1       2.926   2.110  19.134  0.00  0.00    +0.000 C 
ATOM     12  C   UNL     1       4.238   2.863  19.276  0.00  0.00    +0.000 C 
ENDBRANCH   1   2
BRANCH   1  15
ATOM     13  C   UNL     1       2.819   7.386  18.109  0.00  0.00    +0.000 C 
ATOM     14  O   UNL     1       2.066   6.424  18.144  0.00  0.00    +0.000 OA
ATOM     15  N   UNL     1       4.110   7.329  17.684  0.00  0.00    +0.000 N 
ATOM     16  H   UNL     1       4.653   8.184  17.680  0.00  0.00    +0.000 HD
BRANCH  13  17
ATOM     17  O   UNL     1       2.500   8.652  18.462  0.00  0.00    +0.000 OA
BRANCH  17  18
ATOM     18  C   UNL     1       1.484   9.280  17.667  0.00  0.00    +0.000 C 
BRANCH  18  20
ATOM     19  C   UNL     1      -0.775  10.264  18.294  0.00  0.00    +0.000 C 
ATOM     20  C   UNL     1       0.532  10.072  18.518  0.00  0.00    +0.000 C 
ENDBRANCH  18  20
ENDBRANCH  17  18
ENDBRANCH  13  17
ENDBRANCH   1  15
BRANCH   1  21
ATOM     21  C   UNL     1       6.051   6.356  16.507  0.00  0.00    +0.000 C 
BRANCH  21  22
ATOM     22  C   UNL     1       6.861   5.087  16.199  0.00  0.00    +0.000 C 
BRANCH  22  23
ATOM     23  C   UNL     1       6.837   4.776  14.719  0.00  0.00    +0.000 A 
ATOM     24  C   UNL     1       5.943   3.827  14.202  0.00  0.00    +0.000 A 
ATOM     25  C   UNL     1       5.962   3.505  12.844  0.00  0.00    +0.000 A 
ATOM     26  C   UNL     1       6.872   4.126  11.990  0.00  0.00    +0.000 A 
ATOM     27  C   UNL     1       7.758   5.076  12.493  0.00  0.00    +0.000 A 
ATOM     28  C   UNL     1       7.741   5.400  13.850  0.00  0.00    +0.000 A 
ENDBRANCH  22  23
ENDBRANCH  21  22
ENDBRANCH   1  21
TORSDOF 8
ENDMDL
MODEL 5
REMARK VINA RESULT:      -8.0      1.082      1.521
REMARK  Name = 
REMARK  8 active torsions:
REMARK  status: ('A' for Active; 'I' for Inactive)
REMARK    1  A    between atoms: C_2  and  C_3
REMARK    2  A    between atoms: C_3  and  O_4
REMARK    3  A    between atoms: O_4  and  C_5
REMARK    4  A    between atoms: N_7  and  C_8
REMARK    5  A    between atoms: C_8  and  C_9
REMARK    6  A    between atoms: C_8  and  C_17
REMARK    7  A    between atoms: C_9  and  C_10
REMARK    8  A    between atoms: C_10  and  C_11
REMARK                            x       y       z     vdW  Elec       q    Type
REMARK                         _______ _______ _______ _____ _____    ______ ____
ROOT
ATOM      1  C   UNL     1       5.333   5.475  17.523  0.00  0.00    +0.000 C 
ENDROOT
BRANCH   1   2
ATOM      2  C   UNL     1       5.164   4.397  18.614  0.00  0.00    +0.000 C 
ATOM      3  O   UNL     1       5.790   4.499  19.676  0.00  0.00    +0.000 OA
ATOM      4  N   UNL     1       4.337   3.318  18.377  0.00  0.00    +0.000 N 
ATOM      5  C   UNL     1       3.483   3.043  17.228  0.00  0.00    +0.000 C 
ATOM      6  C   UNL     1       2.221   2.437  17.841  0.00  0.00    +0.000 C 
ATOM      7  O   UNL     1       1.250   3.473  18.051  0.00  0.00    +0.000 OA
ATOM      8  N   UNL     1       0.921   3.534  19.423  0.00  0.00    +0.000 NA
ATOM      9  C   UNL     1       1.683   2.696  20.039  0.00  0.00    +0.000 C 
ATOM     10 BR   UNL     1       1.519   2.482  21.874  0.00  0.00    +0.000 Br
ATOM     11  C   UNL     1       2.627   1.918  19.209  0.00  0.00    +0.000 C 
ATOM     12  C   UNL     1       4.072   2.337  19.416  0.00  0.00    +0.000 C 
ENDBRANCH   1   2
BRANCH   1  15
ATOM     13  C   UNL     1       6.810   4.370  15.895  0.00  0.00    +0.000 C 
ATOM     14  O   UNL     1       7.788   4.413  16.625  0.00  0.00    +0.000 OA
ATOM     15  N   UNL     1       5.579   4.837  16.239  0.00  0.00    +0.000 N 
ATOM     16  H   UNL     1       4.831   4.768  15.560  0.00  0.00    +0.000 HD
BRANCH  13  17
ATOM     17  O   UNL     1       6.786   3.879  14.634  0.00  0.00    +0.000 OA
BRANCH  17  18
ATOM     18  C   UNL     1       6.538   4.841  13.599  0.00  0.00    +0.000 C 
BRANCH  18  20
ATOM     19  C   UNL     1       8.581   5.973  12.593  0.00  0.00    +0.000 C 
ATOM     20  C   UNL     1       7.710   4.956  12.666  0.00  0.00    +0.000 C 
ENDBRANCH  18  20
ENDBRANCH  17  18
ENDBRANCH  13  17
ENDBRANCH   1  15
BRANCH   1  21
ATOM     21  C   UNL     1       4.136   6.433  17.452  0.00  0.00    +0.000 C 
BRANCH  21  22
ATOM     22  C   UNL     1       3.188   6.354  18.659  0.00  0.00    +0.000 C 
BRANCH  22  23
ATOM     23  C   UNL     1       2.414   7.643  18.824  0.00  0.00    +0.000 A 
ATOM     24  C   UNL     1       1.808   7.962  20.047  0.00  0.00    +0.000 A 
ATOM     25  C   UNL     1       1.051   9.127  20.178  0.00  0.00    +0.000 A 
ATOM     26  C   UNL     1       0.890   9.984  19.090  0.00  0.00    +0.000 A 
ATOM     27  C   UNL     1       1.496   9.679  17.873  0.00  0.00    +0.000 A 
ATOM     28  C   UNL     1       2.254   8.515  17.740  0.00  0.00    +0.000 A 
ENDBRANCH  22  23
ENDBRANCH  21  22
ENDBRANCH   1  21
TORSDOF 8
ENDMDL
MODEL 6
REMARK VINA RESULT:      -7.8      3.446      4.452
REMARK  Name = 
REMARK  8 active torsions:
REMARK  status: ('A' for Active; 'I' for Inactive)
REMARK    1  A    between atoms: C_2  and  C_3
REMARK    2  A    between atoms: C_3  and  O_4
REMARK    3  A    between atoms: O_4  and  C_5
REMARK    4  A    between atoms: N_7  and  C_8
REMARK    5  A    between atoms: C_8  and  C_9
REMARK    6  A    between atoms: C_8  and  C_17
REMARK    7  A    between atoms: C_9  and  C_10
REMARK    8  A    between atoms: C_10  and  C_11
REMARK                            x       y       z     vdW  Elec       q    Type
REMARK                         _______ _______ _______ _____ _____    ______ ____
ROOT
ATOM      1  C   UNL     1       6.352   6.712  17.236  0.00  0.00    +0.000 C 
ENDROOT
BRANCH   1   2
ATOM      2  C   UNL     1       4.937   6.640  17.847  0.00  0.00    +0.000 C 
ATOM      3  O   UNL     1       4.046   7.381  17.415  0.00  0.00    +0.000 OA
ATOM      4  N   UNL     1       4.692   5.768  18.888  0.00  0.00    +0.000 N 
ATOM      5  C   UNL     1       5.580   4.786  19.498  0.00  0.00    +0.000 C 
ATOM      6  C   UNL     1       4.674   3.586  19.772  0.00  0.00    +0.000 C 
ATOM      7  O   UNL     1       4.756   2.667  18.671  0.00  0.00    +0.000 OA
ATOM      8  N   UNL     1       3.472   2.494  18.110  0.00  0.00    +0.000 NA
ATOM      9  C   UNL     1       2.673   3.300  18.721  0.00  0.00    +0.000 C 
ATOM     10 BR   UNL     1       0.876   3.336  18.262  0.00  0.00    +0.000 Br
ATOM     11  C   UNL     1       3.256   4.128  19.798  0.00  0.00    +0.000 C 
ATOM     12  C   UNL     1       3.351   5.597  19.422  0.00  0.00    +0.000 C 
ENDBRANCH   1   2
BRANCH   1  15
ATOM     13  C   UNL     1       7.076   5.173  15.459  0.00  0.00    +0.000 C 
ATOM     14  O   UNL     1       7.809   4.531  16.196  0.00  0.00    +0.000 OA
ATOM     15  N   UNL     1       6.318   6.228  15.865  0.00  0.00    +0.000 N 
ATOM     16  H   UNL     1       5.750   6.706  15.177  0.00  0.00    +0.000 HD
BRANCH  13  17
ATOM     17  O   UNL     1       6.908   4.963  14.133  0.00  0.00    +0.000 OA
BRANCH  17  18
ATOM     18  C   UNL     1       6.087   3.840  13.782  0.00  0.00    +0.000 C 
BRANCH  18  20
ATOM     19  C   UNL     1       5.478   2.642  11.623  0.00  0.00    +0.000 C 
ATOM     20  C   UNL     1       6.259   3.465  12.338  0.00  0.00    +0.000 C 
ENDBRANCH  18  20
ENDBRANCH  17  18
ENDBRANCH  13  17
ENDBRANCH   1  15
BRANCH   1  21
ATOM     21  C   UNL     1       6.956   8.120  17.318  0.00  0.00    +0.000 C 
BRANCH  21  22
ATOM     22  C   UNL     1       8.261   8.206  18.125  0.00  0.00    +0.000 C 
BRANCH  22  23
ATOM     23  C   UNL     1       8.645   9.646  18.381  0.00  0.00    +0.000 A 
ATOM     24  C   UNL     1       9.378   9.999  19.523  0.00  0.00    +0.000 A 
ATOM     25  C   UNL     1       9.684  11.336  19.782  0.00  0.00    +0.000 A 
ATOM     26  C   UNL     1       9.260  12.333  18.905  0.00  0.00    +0.000 A 
ATOM     27  C   UNL     1       8.538  11.992  17.763  0.00  0.00    +0.000 A 
ATOM     28  C   UNL     1       8.231  10.655  17.502  0.00  0.00    +0.000 A 
ENDBRANCH  22  23
ENDBRANCH  21  22
ENDBRANCH   1  21
TORSDOF 8
ENDMDL
MODEL 7
REMARK VINA RESULT:      -7.5      1.602      5.929
REMARK  Name = 
REMARK  8 active torsions:
REMARK  status: ('A' for Active; 'I' for Inactive)
REMARK    1  A    between atoms: C_2  and  C_3
REMARK    2  A    between atoms: C_3  and  O_4
REMARK    3  A    between atoms: O_4  and  C_5
REMARK    4  A    between atoms: N_7  and  C_8
REMARK    5  A    between atoms: C_8  and  C_9
REMARK    6  A    between atoms: C_8  and  C_17
REMARK    7  A    between atoms: C_9  and  C_10
REMARK    8  A    between atoms: C_10  and  C_11
REMARK                            x       y       z     vdW  Elec       q    Type
REMARK                         _______ _______ _______ _____ _____    ______ ____
ROOT
ATOM      1  C   UNL     1       5.262   5.082  17.342  0.00  0.00    +0.000 C 
ENDROOT
BRANCH   1   2
ATOM      2  C   UNL     1       5.080   4.190  18.587  0.00  0.00    +0.000 C 
ATOM      3  O   UNL     1       5.665   4.479  19.638  0.00  0.00    +0.000 OA
ATOM      4  N   UNL     1       4.289   3.062  18.503  0.00  0.00    +0.000 N 
ATOM      5  C   UNL     1       3.483   2.582  17.387  0.00  0.00    +0.000 C 
ATOM      6  C   UNL     1       2.215   2.044  18.050  0.00  0.00    +0.000 C 
ATOM      7  O   UNL     1       1.212   3.071  18.059  0.00  0.00    +0.000 OA
ATOM      8  N   UNL     1       0.833   3.342  19.392  0.00  0.00    +0.000 NA
ATOM      9  C   UNL     1       1.592   2.637  20.159  0.00  0.00    +0.000 C 
ATOM     10 BR   UNL     1       1.369   2.717  21.999  0.00  0.00    +0.000 Br
ATOM     11  C   UNL     1       2.584   1.764  19.496  0.00  0.00    +0.000 C 
ATOM     12  C   UNL     1       4.010   2.253  19.677  0.00  0.00    +0.000 C 
ENDBRANCH   1   2
BRANCH   1  15
ATOM     13  C   UNL     1       3.517   6.749  17.819  0.00  0.00    +0.000 C 
ATOM     14  O   UNL     1       2.607   5.934  17.772  0.00  0.00    +0.000 OA
ATOM     15  N   UNL     1       4.830   6.437  17.645  0.00  0.00    +0.000 N 
ATOM     16  H   UNL     1       5.512   7.185  17.689  0.00  0.00    +0.000 HD
BRANCH  13  17
ATOM     17  O   UNL     1       3.378   8.078  18.029  0.00  0.00    +0.000 OA
BRANCH  17  18
ATOM     18  C   UNL     1       2.131   8.646  17.603  0.00  0.00    +0.000 C 
BRANCH  18  20
ATOM     19  C   UNL     1       0.701   9.781  19.373  0.00  0.00    +0.000 C 
ATOM     20  C   UNL     1       1.712   9.781  18.493  0.00  0.00    +0.000 C 
ENDBRANCH  18  20
ENDBRANCH  17  18
ENDBRANCH  13  17
ENDBRANCH   1  15
BRANCH   1  21
ATOM     21  C   UNL     1       6.701   5.059  16.808  0.00  0.00    +0.000 C 
BRANCH  21  22
ATOM     22  C   UNL     1       6.917   5.882  15.529  0.00  0.00    +0.000 C 
BRANCH  22  23
ATOM     23  C   UNL     1       6.749   5.020  14.297  0.00  0.00    +0.000 A 
ATOM     24  C   UNL     1       7.635   5.137  13.216  0.00  0.00    +0.000 A 
ATOM     25  C   UNL     1       7.444   4.376  12.061  0.00  0.00    +0.000 A 
ATOM     26  C   UNL     1       6.368   3.495  11.973  0.00  0.00    +0.000 A 
ATOM     27  C   UNL     1       5.487   3.367  13.044  0.00  0.00    +0.000 A 
ATOM     28  C   UNL     1       5.676   4.125  14.201  0.00  0.00    +0.000 A 
ENDBRANCH  22  23
ENDBRANCH  21  22
ENDBRANCH   1  21
TORSDOF 8
ENDMDL
MODEL 8
REMARK VINA RESULT:      -7.5      3.051      6.069
REMARK  Name = 
REMARK  8 active torsions:
REMARK  status: ('A' for Active; 'I' for Inactive)
REMARK    1  A    between atoms: C_2  and  C_3
REMARK    2  A    between atoms: C_3  and  O_4
REMARK    3  A    between atoms: O_4  and  C_5
REMARK    4  A    between atoms: N_7  and  C_8
REMARK    5  A    between atoms: C_8  and  C_9
REMARK    6  A    between atoms: C_8  and  C_17
REMARK    7  A    between atoms: C_9  and  C_10
REMARK    8  A    between atoms: C_10  and  C_11
REMARK                            x       y       z     vdW  Elec       q    Type
REMARK                         _______ _______ _______ _____ _____    ______ ____
ROOT
ATOM      1  C   UNL     1       5.753   6.099  17.775  0.00  0.00    +0.000 C 
ENDROOT
BRANCH   1   2
ATOM      2  C   UNL     1       5.518   4.871  18.679  0.00  0.00    +0.000 C 
ATOM      3  O   UNL     1       6.148   4.762  19.738  0.00  0.00    +0.000 OA
ATOM      4  N   UNL     1       4.628   3.895  18.279  0.00  0.00    +0.000 N 
ATOM      5  C   UNL     1       3.761   3.860  17.108  0.00  0.00    +0.000 C 
ATOM      6  C   UNL     1       2.464   3.239  17.626  0.00  0.00    +0.000 C 
ATOM      7  O   UNL     1       1.556   4.283  18.009  0.00  0.00    +0.000 OA
ATOM      8  N   UNL     1       1.230   4.141  19.376  0.00  0.00    +0.000 NA
ATOM      9  C   UNL     1       1.940   3.171  19.842  0.00  0.00    +0.000 C 
ATOM     10 BR   UNL     1       1.762   2.674  21.620  0.00  0.00    +0.000 Br
ATOM     11  C   UNL     1       2.836   2.483  18.889  0.00  0.00    +0.000 C 
ATOM     12  C   UNL     1       4.304   2.776  19.148  0.00  0.00    +0.000 C 
ENDBRANCH   1   2
BRANCH   1  15
ATOM     13  C   UNL     1       7.303   8.008  17.718  0.00  0.00    +0.000 C 
ATOM     14  O   UNL     1       6.574   8.688  17.010  0.00  0.00    +0.000 OA
ATOM     15  N   UNL     1       6.992   6.758  18.156  0.00  0.00    +0.000 N 
ATOM     16  H   UNL     1       7.667   6.267  18.729  0.00  0.00    +0.000 HD
BRANCH  13  17
ATOM     17  O   UNL     1       8.529   8.366  18.164  0.00  0.00    +0.000 OA
BRANCH  17  18
ATOM     18  C   UNL     1       8.795   9.775  18.182  0.00  0.00    +0.000 C 
BRANCH  18  20
ATOM     19  C   UNL     1      10.172  11.183  19.791  0.00  0.00    +0.000 C 
ATOM     20  C   UNL     1       9.269  10.226  19.535  0.00  0.00    +0.000 C 
ENDBRANCH  18  20
ENDBRANCH  17  18
ENDBRANCH  13  17
ENDBRANCH   1  15
BRANCH   1  21
ATOM     21  C   UNL     1       5.746   5.739  16.283  0.00  0.00    +0.000 C 
BRANCH  21  22
ATOM     22  C   UNL     1       7.037   5.071  15.785  0.00  0.00    +0.000 C 
BRANCH  22  23
ATOM     23  C   UNL     1       6.921   4.689  14.326  0.00  0.00    +0.000 A 
ATOM     24  C   UNL     1       6.002   3.714  13.913  0.00  0.00    +0.000 A 
ATOM     25  C   UNL     1       5.935   3.328  12.573  0.00  0.00    +0.000 A 
ATOM     26  C   UNL     1       6.786   3.909  11.634  0.00  0.00    +0.000 A 
ATOM     27  C   UNL     1       7.697   4.884  12.034  0.00  0.00    +0.000 A 
ATOM     28  C   UNL     1       7.765   5.273  13.373  0.00  0.00    +0.000 A 
ENDBRANCH  22  23
ENDBRANCH  21  22
ENDBRANCH   1  21
TORSDOF 8
ENDMDL
MODEL 9
REMARK VINA RESULT:      -7.5      2.684      6.080
REMARK  Name = 
REMARK  8 active torsions:
REMARK  status: ('A' for Active; 'I' for Inactive)
REMARK    1  A    between atoms: C_2  and  C_3
REMARK    2  A    between atoms: C_3  and  O_4
REMARK    3  A    between atoms: O_4  and  C_5
REMARK    4  A    between atoms: N_7  and  C_8
REMARK    5  A    between atoms: C_8  and  C_9
REMARK    6  A    between atoms: C_8  and  C_17
REMARK    7  A    between atoms: C_9  and  C_10
REMARK    8  A    between atoms: C_10  and  C_11
REMARK                            x       y       z     vdW  Elec       q    Type
REMARK                         _______ _______ _______ _____ _____    ______ ____
ROOT
ATOM      1  C   UNL     1       5.374   6.464  17.145  0.00  0.00    +0.000 C 
ENDROOT
BRANCH   1   2
ATOM      2  C   UNL     1       4.118   6.225  18.009  0.00  0.00    +0.000 C 
ATOM      3  O   UNL     1       3.105   6.908  17.817  0.00  0.00    +0.000 OA
ATOM      4  N   UNL     1       4.153   5.271  19.006  0.00  0.00    +0.000 N 
ATOM      5  C   UNL     1       5.217   4.338  19.354  0.00  0.00    +0.000 C 
ATOM      6  C   UNL     1       4.479   3.046  19.701  0.00  0.00    +0.000 C 
ATOM      7  O   UNL     1       4.412   2.209  18.536  0.00  0.00    +0.000 OA
ATOM      8  N   UNL     1       3.059   1.954  18.221  0.00  0.00    +0.000 NA
ATOM      9  C   UNL     1       2.337   2.644  19.036  0.00  0.00    +0.000 C 
ATOM     10 BR   UNL     1       0.488   2.545  18.935  0.00  0.00    +0.000 Br
ATOM     11  C   UNL     1       3.056   3.454  20.042  0.00  0.00    +0.000 C 
ATOM     12  C   UNL     1       2.962   4.946  19.772  0.00  0.00    +0.000 C 
ENDBRANCH   1   2
BRANCH   1  15
ATOM     13  C   UNL     1       7.624   7.408  17.457  0.00  0.00    +0.000 C 
ATOM     14  O   UNL     1       8.041   6.988  16.387  0.00  0.00    +0.000 OA
ATOM     15  N   UNL     1       6.352   7.226  17.905  0.00  0.00    +0.000 N 
ATOM     16  H   UNL     1       6.104   7.602  18.812  0.00  0.00    +0.000 HD
BRANCH  13  17
ATOM     17  O   UNL     1       8.346   8.096  18.371  0.00  0.00    +0.000 OA
BRANCH  17  18
ATOM     18  C   UNL     1       8.381   9.519  18.190  0.00  0.00    +0.000 C 
BRANCH  18  20
ATOM     19  C   UNL     1      10.234  11.013  19.084  0.00  0.00    +0.000 C 
ATOM     20  C   UNL     1       9.192  10.188  19.262  0.00  0.00    +0.000 C 
ENDBRANCH  18  20
ENDBRANCH  17  18
ENDBRANCH  13  17
ENDBRANCH   1  15
BRANCH   1  21
ATOM     21  C   UNL     1       5.975   5.157  16.610  0.00  0.00    +0.000 C 
BRANCH  21  22
ATOM     22  C   UNL     1       5.080   4.409  15.610  0.00  0.00    +0.000 C 
BRANCH  22  23
ATOM     23  C   UNL     1       5.761   4.279  14.266  0.00  0.00    +0.000 A 
ATOM     24  C   UNL     1       5.206   3.480  13.257  0.00  0.00    +0.000 A 
ATOM     25  C   UNL     1       5.866   3.321  12.037  0.00  0.00    +0.000 A 
ATOM     26  C   UNL     1       7.087   3.956  11.814  0.00  0.00    +0.000 A 
ATOM     27  C   UNL     1       7.642   4.759  12.808  0.00  0.00    +0.000 A 
ATOM     28  C   UNL     1       6.984   4.920  14.028  0.00  0.00    +0.000 A 
ENDBRANCH  22  23
ENDBRANCH  21  22
ENDBRANCH   1  21
TORSDOF 8
ENDMDL
