MODEL 1
REMARK VINA RESULT:      -7.0      0.000      0.000
REMARK  Name = 
REMARK  8 active torsions:
REMARK  status: ('A' for Active; 'I' for Inactive)
REMARK    1  A    between atoms: C_1  and  C_2
REMARK    2  A    between atoms: C_2  and  C_3
REMARK    3  A    between atoms: C_3  and  C_4
REMARK    4  A    between atoms: C_3  and  O_5
REMARK    5  A    between atoms: C_3  and  C_6
REMARK    6  A    between atoms: N_8  and  C_9
REMARK    7  A    between atoms: C_13  and  C_14
REMARK    8  A    between atoms: C_13  and  C_15
REMARK                            x       y       z     vdW  Elec       q    Type
REMARK                         _______ _______ _______ _____ _____    ______ ____
ROOT
ATOM      1  C   UNL     1      -5.245  12.969  19.015  0.00  0.00    +0.000 C 
ATOM      2  C   UNL     1      -3.992  12.191  18.856  0.00  0.00    +0.000 C 
ATOM      3  C   UNL     1      -4.062  11.421  17.780  0.00  0.00    +0.000 C 
ATOM      4  O   UNL     1      -5.233  11.520  17.043  0.00  0.00    +0.000 OA
ATOM      5  C   UNL     1      -6.074  12.448  17.796  0.00  0.00    +0.000 C 
ATOM      6  C   UNL     1      -6.408  13.608  16.845  0.00  0.00    +0.000 C 
ATOM      7  C   UNL     1      -7.363  11.683  18.113  0.00  0.00    +0.000 C 
ATOM      8  C   UNL     1      -2.947  10.550  17.356  0.00  0.00    +0.000 C 
ATOM      9  O   UNL     1      -3.017   9.837  16.359  0.00  0.00    +0.000 OA
ATOM     10  C   UNL     1      -1.722  10.594  18.187  0.00  0.00    +0.000 A 
ATOM     11  C   UNL     1      -0.621   9.808  17.821  0.00  0.00    +0.000 A 
ATOM     12  C   UNL     1       0.556   9.864  18.568  0.00  0.00    +0.000 A 
ATOM     13  C   UNL     1       0.637  10.704  19.680  0.00  0.00    +0.000 A 
ATOM     14  C   UNL     1      -0.460  11.486  20.051  0.00  0.00    +0.000 A 
ATOM     15  C   UNL     1      -1.646  11.433  19.305  0.00  0.00    +0.000 A 
ATOM     16  C   UNL     1      -2.793  12.291  19.686  0.00  0.00    +0.000 C 
ATOM     17  O   UNL     1      -2.730  13.088  20.612  0.00  0.00    +0.000 OA
ENDROOT
BRANCH   1  20
ATOM     18  C   UNL     1      -6.292  13.080  22.427  0.00  0.00    +0.000 A 
ATOM     19  C   UNL     1      -5.921  13.784  21.299  0.00  0.00    +0.000 A 
ATOM     20  N   UNL     1      -5.854  12.834  20.323  0.00  0.00    +0.000 N 
ATOM     21  N   UNL     1      -6.295  11.645  20.776  0.00  0.00    +0.000 NA
ATOM     22  N   UNL     1      -6.559  11.783  22.067  0.00  0.00    +0.000 NA
BRANCH  18  23
ATOM     23  C   UNL     1      -6.305  13.518  23.867  0.00  0.00    +0.000 C 
ATOM     24  C   UNL     1      -7.745  13.616  24.399  0.00  0.00    +0.000 C 
BRANCH  23  26
ATOM     25  C   UNL     1      -4.001  12.513  24.512  0.00  0.00    +0.000 C 
ATOM     26  C   UNL     1      -5.510  12.523  24.751  0.00  0.00    +0.000 C 
ENDBRANCH  23  26
BRANCH  23  27
ATOM     27  O   UNL     1      -5.711  14.821  24.003  0.00  0.00    +0.000 OA
ATOM     28  H   UNL     1      -6.383  15.474  23.742  0.00  0.00    +0.000 HD
ENDBRANCH  23  27
ENDBRANCH  18  23
ENDBRANCH   1  20
TORSDOF 4
ENDMDL
MODEL 2
REMARK VINA RESULT:      -6.8      3.880      7.280
REMARK  Name = 
REMARK  8 active torsions:
REMARK  status: ('A' for Active; 'I' for Inactive)
REMARK    1  A    between atoms: C_1  and  C_2
REMARK    2  A    between atoms: C_2  and  C_3
REMARK    3  A    between atoms: C_3  and  C_4
REMARK    4  A    between atoms: C_3  and  O_5
REMARK    5  A    between atoms: C_3  and  C_6
REMARK    6  A    between atoms: N_8  and  C_9
REMARK    7  A    between atoms: C_13  and  C_14
REMARK    8  A    between atoms: C_13  and  C_15
REMARK                            x       y       z     vdW  Elec       q    Type
REMARK                         _______ _______ _______ _____ _____    ______ ____
ROOT
ATOM      1  C   UNL     1       0.402  10.932  19.830  0.00  0.00    +0.000 C 
ATOM      2  C   UNL     1      -0.945  11.120  19.238  0.00  0.00    +0.000 C 
ATOM      3  C   UNL     1      -1.059  10.416  18.122  0.00  0.00    +0.000 C 
ATOM      4  O   UNL     1       0.048   9.659  17.770  0.00  0.00    +0.000 OA
ATOM      5  C   UNL     1       1.056   9.976  18.780  0.00  0.00    +0.000 C 
ATOM      6  C   UNL     1       1.447   8.645  19.443  0.00  0.00    +0.000 C 
ATOM      7  C   UNL     1       2.265  10.518  18.010  0.00  0.00    +0.000 C 
ATOM      8  C   UNL     1      -2.304  10.390  17.326  0.00  0.00    +0.000 C 
ATOM      9  O   UNL     1      -2.405   9.737  16.292  0.00  0.00    +0.000 OA
ATOM     10  C   UNL     1      -3.440  11.181  17.852  0.00  0.00    +0.000 A 
ATOM     11  C   UNL     1      -4.656  11.177  17.154  0.00  0.00    +0.000 A 
ATOM     12  C   UNL     1      -5.750  11.884  17.652  0.00  0.00    +0.000 A 
ATOM     13  C   UNL     1      -5.634  12.596  18.848  0.00  0.00    +0.000 A 
ATOM     14  C   UNL     1      -4.423  12.607  19.544  0.00  0.00    +0.000 A 
ATOM     15  C   UNL     1      -3.319  11.900  19.048  0.00  0.00    +0.000 A 
ATOM     16  C   UNL     1      -2.048  11.889  19.811  0.00  0.00    +0.000 C 
ATOM     17  O   UNL     1      -1.936  12.444  20.895  0.00  0.00    +0.000 OA
ENDROOT
BRANCH   1  20
ATOM     18  C   UNL     1       2.312  13.949  19.877  0.00  0.00    +0.000 A 
ATOM     19  C   UNL     1       1.382  13.169  19.219  0.00  0.00    +0.000 A 
ATOM     20  N   UNL     1       1.098  12.172  20.105  0.00  0.00    +0.000 N 
ATOM     21  N   UNL     1       1.698  12.396  21.291  0.00  0.00    +0.000 NA
ATOM     22  N   UNL     1       2.451  13.478  21.159  0.00  0.00    +0.000 NA
BRANCH  18  23
ATOM     23  C   UNL     1       3.181  15.056  19.345  0.00  0.00    +0.000 C 
ATOM     24  C   UNL     1       4.108  14.541  18.230  0.00  0.00    +0.000 C 
BRANCH  23  26
ATOM     25  C   UNL     1       2.804  16.799  17.459  0.00  0.00    +0.000 C 
ATOM     26  C   UNL     1       2.314  16.211  18.782  0.00  0.00    +0.000 C 
ENDBRANCH  23  26
BRANCH  23  27
ATOM     27  O   UNL     1       4.020  15.584  20.387  0.00  0.00    +0.000 OA
ATOM     28  H   UNL     1       4.943  15.458  20.107  0.00  0.00    +0.000 HD
ENDBRANCH  23  27
ENDBRANCH  18  23
ENDBRANCH   1  20
TORSDOF 4
ENDMDL
MODEL 3
REMARK VINA RESULT:      -6.7      0.965      1.495
REMARK  Name = 
REMARK  8 active torsions:
REMARK  status: ('A' for Active; 'I' for Inactive)
REMARK    1  A    between atoms: C_1  and  C_2
REMARK    2  A    between atoms: C_2  and  C_3
REMARK    3  A    between atoms: C_3  and  C_4
REMARK    4  A    between atoms: C_3  and  O_5
REMARK    5  A    between atoms: C_3  and  C_6
REMARK    6  A    between atoms: N_8  and  C_9
REMARK    7  A    between atoms: C_13  and  C_14
REMARK    8  A    between atoms: C_13  and  C_15
REMARK                            x       y       z     vdW  Elec       q    Type
REMARK                         _______ _______ _______ _____ _____    ______ ____
ROOT
ATOM      1  C   UNL     1      -5.092  12.851  18.955  0.00  0.00    +0.000 C 
ATOM      2  C   UNL     1      -3.784  12.154  18.899  0.00  0.00    +0.000 C 
ATOM      3  C   UNL     1      -3.789  11.244  17.937  0.00  0.00    +0.000 C 
ATOM      4  O   UNL     1      -4.958  11.157  17.196  0.00  0.00    +0.000 OA
ATOM      5  C   UNL     1      -5.871  12.112  17.819  0.00  0.00    +0.000 C 
ATOM      6  C   UNL     1      -6.282  13.106  16.722  0.00  0.00    +0.000 C 
ATOM      7  C   UNL     1      -7.102  11.302  18.239  0.00  0.00    +0.000 C 
ATOM      8  C   UNL     1      -2.609  10.410  17.631  0.00  0.00    +0.000 C 
ATOM      9  O   UNL     1      -2.619   9.567  16.738  0.00  0.00    +0.000 OA
ATOM     10  C   UNL     1      -1.397  10.656  18.445  0.00  0.00    +0.000 A 
ATOM     11  C   UNL     1      -0.237   9.911  18.186  0.00  0.00    +0.000 A 
ATOM     12  C   UNL     1       0.926  10.155  18.916  0.00  0.00    +0.000 A 
ATOM     13  C   UNL     1       0.936  11.140  19.905  0.00  0.00    +0.000 A 
ATOM     14  C   UNL     1      -0.218  11.880  20.170  0.00  0.00    +0.000 A 
ATOM     15  C   UNL     1      -1.392  11.640  19.441  0.00  0.00    +0.000 A 
ATOM     16  C   UNL     1      -2.602  12.454  19.706  0.00  0.00    +0.000 C 
ATOM     17  O   UNL     1      -2.605  13.370  20.516  0.00  0.00    +0.000 OA
ENDROOT
BRANCH   1  20
ATOM     18  C   UNL     1      -6.288  13.429  22.270  0.00  0.00    +0.000 A 
ATOM     19  C   UNL     1      -6.078  13.935  21.003  0.00  0.00    +0.000 A 
ATOM     20  N   UNL     1      -5.699  12.849  20.271  0.00  0.00    +0.000 N 
ATOM     21  N   UNL     1      -5.807  11.718  20.995  0.00  0.00    +0.000 NA
ATOM     22  N   UNL     1      -6.160  12.064  22.224  0.00  0.00    +0.000 NA
BRANCH  18  23
ATOM     23  C   UNL     1      -6.492  14.159  23.570  0.00  0.00    +0.000 C 
ATOM     24  C   UNL     1      -5.409  15.233  23.774  0.00  0.00    +0.000 C 
BRANCH  23  26
ATOM     25  C   UNL     1      -7.900  16.299  23.151  0.00  0.00    +0.000 C 
ATOM     26  C   UNL     1      -7.885  14.839  23.604  0.00  0.00    +0.000 C 
ENDBRANCH  23  26
BRANCH  23  27
ATOM     27  O   UNL     1      -6.404  13.248  24.680  0.00  0.00    +0.000 OA
ATOM     28  H   UNL     1      -7.100  13.495  25.313  0.00  0.00    +0.000 HD
ENDBRANCH  23  27
ENDBRANCH  18  23
ENDBRANCH   1  20
TORSDOF 4
ENDMDL
MODEL 4
REMARK VINA RESULT:      -6.7      0.823      1.074
REMARK  Name = 
REMARK  8 active torsions:
REMARK  status: ('A' for Active; 'I' for Inactive)
REMARK    1  A    between atoms: C_1  and  C_2
REMARK    2  A    between atoms: C_2  and  C_3
REMARK    3  A    between atoms: C_3  and  C_4
REMARK    4  A    between atoms: C_3  and  O_5
REMARK    5  A    between atoms: C_3  and  C_6
REMARK    6  A    between atoms: N_8  and  C_9
REMARK    7  A    between atoms: C_13  and  C_14
REMARK    8  A    between atoms: C_13  and  C_15
REMARK                            x       y       z     vdW  Elec       q    Type
REMARK                         _______ _______ _______ _____ _____    ______ ____
ROOT
ATOM      1  C   UNL     1      -5.025  12.859  18.998  0.00  0.00    +0.000 C 
ATOM      2  C   UNL     1      -3.783  12.073  18.796  0.00  0.00    +0.000 C 
ATOM      3  C   UNL     1      -3.945  11.203  17.811  0.00  0.00    +0.000 C 
ATOM      4  O   UNL     1      -5.180  11.226  17.182  0.00  0.00    +0.000 OA
ATOM      5  C   UNL     1      -5.959  12.220  17.919  0.00  0.00    +0.000 C 
ATOM      6  C   UNL     1      -6.395  13.280  16.897  0.00  0.00    +0.000 C 
ATOM      7  C   UNL     1      -7.202  11.484  18.429  0.00  0.00    +0.000 C 
ATOM      8  C   UNL     1      -2.863  10.298  17.368  0.00  0.00    +0.000 C 
ATOM      9  O   UNL     1      -3.018   9.492  16.456  0.00  0.00    +0.000 OA
ATOM     10  C   UNL     1      -1.567  10.428  18.071  0.00  0.00    +0.000 A 
ATOM     11  C   UNL     1      -0.494   9.613  17.680  0.00  0.00    +0.000 A 
ATOM     12  C   UNL     1       0.747   9.745  18.303  0.00  0.00    +0.000 A 
ATOM     13  C   UNL     1       0.922  10.690  19.316  0.00  0.00    +0.000 A 
ATOM     14  C   UNL     1      -0.145  11.500  19.713  0.00  0.00    +0.000 A 
ATOM     15  C   UNL     1      -1.396  11.370  19.092  0.00  0.00    +0.000 A 
ATOM     16  C   UNL     1      -2.513  12.257  19.495  0.00  0.00    +0.000 C 
ATOM     17  O   UNL     1      -2.373  13.140  20.330  0.00  0.00    +0.000 OA
ENDROOT
BRANCH   1  20
ATOM     18  C   UNL     1      -5.678  13.207  22.491  0.00  0.00    +0.000 A 
ATOM     19  C   UNL     1      -5.325  13.820  21.305  0.00  0.00    +0.000 A 
ATOM     20  N   UNL     1      -5.507  12.850  20.365  0.00  0.00    +0.000 N 
ATOM     21  N   UNL     1      -6.074  11.754  20.905  0.00  0.00    +0.000 NA
ATOM     22  N   UNL     1      -6.176  11.959  22.209  0.00  0.00    +0.000 NA
BRANCH  18  23
ATOM     23  C   UNL     1      -5.473  13.674  23.907  0.00  0.00    +0.000 C 
ATOM     24  C   UNL     1      -4.664  12.643  24.714  0.00  0.00    +0.000 C 
BRANCH  23  26
ATOM     25  C   UNL     1      -3.461  15.053  24.792  0.00  0.00    +0.000 C 
ATOM     26  C   UNL     1      -4.726  15.031  23.935  0.00  0.00    +0.000 C 
ENDBRANCH  23  26
BRANCH  23  27
ATOM     27  O   UNL     1      -6.739  13.837  24.573  0.00  0.00    +0.000 OA
ATOM     28  H   UNL     1      -6.657  14.605  25.164  0.00  0.00    +0.000 HD
ENDBRANCH  23  27
ENDBRANCH  18  23
ENDBRANCH   1  20
TORSDOF 4
ENDMDL
MODEL 5
REMARK VINA RESULT:      -6.7      3.667      6.993
REMARK  Name = 
REMARK  8 active torsions:
REMARK  status: ('A' for Active; 'I' for Inactive)
REMARK    1  A    between atoms: C_1  and  C_2
REMARK    2  A    between atoms: C_2  and  C_3
REMARK    3  A    between atoms: C_3  and  C_4
REMARK    4  A    between atoms: C_3  and  O_5
REMARK    5  A    between atoms: C_3  and  C_6
REMARK    6  A    between atoms: N_8  and  C_9
REMARK    7  A    between atoms: C_13  and  C_14
REMARK    8  A    between atoms: C_13  and  C_15
REMARK                            x       y       z     vdW  Elec       q    Type
REMARK                         _______ _______ _______ _____ _____    ______ ____
ROOT
ATOM      1  C   UNL     1       0.166  11.155  19.927  0.00  0.00    +0.000 C 
ATOM      2  C   UNL     1      -1.168  11.300  19.295  0.00  0.00    +0.000 C 
ATOM      3  C   UNL     1      -1.214  10.625  18.157  0.00  0.00    +0.000 C 
ATOM      4  O   UNL     1      -0.062   9.930  17.821  0.00  0.00    +0.000 OA
ATOM      5  C   UNL     1       0.897  10.261  18.873  0.00  0.00    +0.000 C 
ATOM      6  C   UNL     1       1.327   8.930  19.510  0.00  0.00    +0.000 C 
ATOM      7  C   UNL     1       2.104  10.880  18.160  0.00  0.00    +0.000 C 
ATOM      8  C   UNL     1      -2.429  10.567  17.319  0.00  0.00    +0.000 C 
ATOM      9  O   UNL     1      -2.466   9.941  16.263  0.00  0.00    +0.000 OA
ATOM     10  C   UNL     1      -3.617  11.290  17.828  0.00  0.00    +0.000 A 
ATOM     11  C   UNL     1      -4.808  11.253  17.089  0.00  0.00    +0.000 A 
ATOM     12  C   UNL     1      -5.949  11.895  17.570  0.00  0.00    +0.000 A 
ATOM     13  C   UNL     1      -5.905  12.574  18.789  0.00  0.00    +0.000 A 
ATOM     14  C   UNL     1      -4.719  12.619  19.526  0.00  0.00    +0.000 A 
ATOM     15  C   UNL     1      -3.568  11.977  19.047  0.00  0.00    +0.000 A 
ATOM     16  C   UNL     1      -2.324  12.000  19.852  0.00  0.00    +0.000 C 
ATOM     17  O   UNL     1      -2.272  12.528  20.954  0.00  0.00    +0.000 OA
ENDROOT
BRANCH   1  20
ATOM     18  C   UNL     1       1.747  14.352  20.095  0.00  0.00    +0.000 A 
ATOM     19  C   UNL     1       0.753  13.572  19.538  0.00  0.00    +0.000 A 
ATOM     20  N   UNL     1       0.795  12.417  20.261  0.00  0.00    +0.000 N 
ATOM     21  N   UNL     1       1.655  12.524  21.293  0.00  0.00    +0.000 NA
ATOM     22  N   UNL     1       2.249  13.704  21.195  0.00  0.00    +0.000 NA
BRANCH  18  23
ATOM     23  C   UNL     1       2.348  15.637  19.593  0.00  0.00    +0.000 C 
ATOM     24  C   UNL     1       3.431  16.151  20.557  0.00  0.00    +0.000 C 
BRANCH  23  26
ATOM     25  C   UNL     1       4.142  14.448  18.144  0.00  0.00    +0.000 C 
ATOM     26  C   UNL     1       2.979  15.438  18.191  0.00  0.00    +0.000 C 
ENDBRANCH  23  26
BRANCH  23  27
ATOM     27  O   UNL     1       1.342  16.662  19.497  0.00  0.00    +0.000 OA
ATOM     28  H   UNL     1       0.692  16.495  20.201  0.00  0.00    +0.000 HD
ENDBRANCH  23  27
ENDBRANCH  18  23
ENDBRANCH   1  20
TORSDOF 4
ENDMDL
MODEL 6
REMARK VINA RESULT:      -6.6      3.938      7.359
REMARK  Name = 
REMARK  8 active torsions:
REMARK  status: ('A' for Active; 'I' for Inactive)
REMARK    1  A    between atoms: C_1  and  C_2
REMARK    2  A    between atoms: C_2  and  C_3
REMARK    3  A    between atoms: C_3  and  C_4
REMARK    4  A    between atoms: C_3  and  O_5
REMARK    5  A    between atoms: C_3  and  C_6
REMARK    6  A    between atoms: N_8  and  C_9
REMARK    7  A    between atoms: C_13  and  C_14
REMARK    8  A    between atoms: C_13  and  C_15
REMARK                            x       y       z     vdW  Elec       q    Type
REMARK                         _______ _______ _______ _____ _____    ______ ____
ROOT
ATOM      1  C   UNL     1       0.420  10.933  19.804  0.00  0.00    +0.000 C 
ATOM      2  C   UNL     1      -0.941  11.116  19.244  0.00  0.00    +0.000 C 
ATOM      3  C   UNL     1      -1.100  10.363  18.166  0.00  0.00    +0.000 C 
ATOM      4  O   UNL     1      -0.014   9.573  17.817  0.00  0.00    +0.000 OA
ATOM      5  C   UNL     1       1.028   9.919  18.781  0.00  0.00    +0.000 C 
ATOM      6  C   UNL     1       1.419   8.614  19.492  0.00  0.00    +0.000 C 
ATOM      7  C   UNL     1       2.221  10.406  17.952  0.00  0.00    +0.000 C 
ATOM      8  C   UNL     1      -2.368  10.321  17.409  0.00  0.00    +0.000 C 
ATOM      9  O   UNL     1      -2.509   9.622  16.409  0.00  0.00    +0.000 OA
ATOM     10  C   UNL     1      -3.475  11.153  17.930  0.00  0.00    +0.000 A 
ATOM     11  C   UNL     1      -4.712  11.137  17.269  0.00  0.00    +0.000 A 
ATOM     12  C   UNL     1      -5.780  11.884  17.766  0.00  0.00    +0.000 A 
ATOM     13  C   UNL     1      -5.618  12.647  18.924  0.00  0.00    +0.000 A 
ATOM     14  C   UNL     1      -4.387  12.671  19.583  0.00  0.00    +0.000 A 
ATOM     15  C   UNL     1      -3.309  11.924  19.087  0.00  0.00    +0.000 A 
ATOM     16  C   UNL     1      -2.016  11.927  19.813  0.00  0.00    +0.000 C 
ATOM     17  O   UNL     1      -1.863  12.529  20.866  0.00  0.00    +0.000 OA
ENDROOT
BRANCH   1  20
ATOM     18  C   UNL     1       2.366  13.923  19.653  0.00  0.00    +0.000 A 
ATOM     19  C   UNL     1       1.398  13.132  19.066  0.00  0.00    +0.000 A 
ATOM     20  N   UNL     1       1.142  12.173  20.001  0.00  0.00    +0.000 N 
ATOM     21  N   UNL     1       1.797  12.432  21.150  0.00  0.00    +0.000 NA
ATOM     22  N   UNL     1       2.556  13.499  20.944  0.00  0.00    +0.000 NA
BRANCH  18  23
ATOM     23  C   UNL     1       3.223  14.998  19.041  0.00  0.00    +0.000 C 
ATOM     24  C   UNL     1       2.480  16.345  19.014  0.00  0.00    +0.000 C 
BRANCH  23  26
ATOM     25  C   UNL     1       5.796  15.327  18.980  0.00  0.00    +0.000 C 
ATOM     26  C   UNL     1       4.541  15.168  19.837  0.00  0.00    +0.000 C 
ENDBRANCH  23  26
BRANCH  23  27
ATOM     27  O   UNL     1       3.553  14.667  17.681  0.00  0.00    +0.000 OA
ATOM     28  H   UNL     1       3.903  15.472  17.264  0.00  0.00    +0.000 HD
ENDBRANCH  23  27
ENDBRANCH  18  23
ENDBRANCH   1  20
TORSDOF 4
ENDMDL
MODEL 7
REMARK VINA RESULT:      -6.6      4.799      7.704
REMARK  Name = 
REMARK  8 active torsions:
REMARK  status: ('A' for Active; 'I' for Inactive)
REMARK    1  A    between atoms: C_1  and  C_2
REMARK    2  A    between atoms: C_2  and  C_3
REMARK    3  A    between atoms: C_3  and  C_4
REMARK    4  A    between atoms: C_3  and  O_5
REMARK    5  A    between atoms: C_3  and  C_6
REMARK    6  A    between atoms: N_8  and  C_9
REMARK    7  A    between atoms: C_13  and  C_14
REMARK    8  A    between atoms: C_13  and  C_15
REMARK                            x       y       z     vdW  Elec       q    Type
REMARK                         _______ _______ _______ _____ _____    ______ ____
ROOT
ATOM      1  C   UNL     1       0.038  12.358  19.839  0.00  0.00    +0.000 C 
ATOM      2  C   UNL     1       0.499  10.953  19.955  0.00  0.00    +0.000 C 
ATOM      3  C   UNL     1      -0.075  10.365  20.993  0.00  0.00    +0.000 C 
ATOM      4  O   UNL     1      -0.971  11.145  21.709  0.00  0.00    +0.000 OA
ATOM      5  C   UNL     1      -0.916  12.460  21.073  0.00  0.00    +0.000 C 
ATOM      6  C   UNL     1      -2.346  12.785  20.615  0.00  0.00    +0.000 C 
ATOM      7  C   UNL     1      -0.516  13.443  22.177  0.00  0.00    +0.000 C 
ATOM      8  C   UNL     1       0.177   8.951  21.341  0.00  0.00    +0.000 C 
ATOM      9  O   UNL     1      -0.357   8.411  22.306  0.00  0.00    +0.000 OA
ATOM     10  C   UNL     1       1.095   8.206  20.450  0.00  0.00    +0.000 A 
ATOM     11  C   UNL     1       1.355   6.854  20.715  0.00  0.00    +0.000 A 
ATOM     12  C   UNL     1       2.187   6.123  19.866  0.00  0.00    +0.000 A 
ATOM     13  C   UNL     1       2.761   6.739  18.752  0.00  0.00    +0.000 A 
ATOM     14  C   UNL     1       2.509   8.087  18.488  0.00  0.00    +0.000 A 
ATOM     15  C   UNL     1       1.675   8.827  19.338  0.00  0.00    +0.000 A 
ATOM     16  C   UNL     1       1.386  10.249  19.031  0.00  0.00    +0.000 C 
ATOM     17  O   UNL     1       1.816  10.797  18.026  0.00  0.00    +0.000 OA
ENDROOT
BRANCH   1  20
ATOM     18  C   UNL     1       2.535  14.777  19.023  0.00  0.00    +0.000 A 
ATOM     19  C   UNL     1       1.216  14.382  18.913  0.00  0.00    +0.000 A 
ATOM     20  N   UNL     1       1.117  13.323  19.767  0.00  0.00    +0.000 N 
ATOM     21  N   UNL     1       2.254  13.162  20.471  0.00  0.00    +0.000 NA
ATOM     22  N   UNL     1       3.132  14.044  20.017  0.00  0.00    +0.000 NA
BRANCH  18  23
ATOM     23  C   UNL     1       3.320  15.736  18.168  0.00  0.00    +0.000 C 
ATOM     24  C   UNL     1       2.446  16.922  17.727  0.00  0.00    +0.000 C 
BRANCH  23  26
ATOM     25  C   UNL     1       5.901  15.771  18.438  0.00  0.00    +0.000 C 
ATOM     26  C   UNL     1       4.549  16.278  18.940  0.00  0.00    +0.000 C 
ENDBRANCH  23  26
BRANCH  23  27
ATOM     27  O   UNL     1       3.785  15.082  16.974  0.00  0.00    +0.000 OA
ATOM     28  H   UNL     1       4.721  14.857  17.114  0.00  0.00    +0.000 HD
ENDBRANCH  23  27
ENDBRANCH  18  23
ENDBRANCH   1  20
TORSDOF 4
ENDMDL
MODEL 8
REMARK VINA RESULT:      -6.5      4.556      7.028
REMARK  Name = 
REMARK  8 active torsions:
REMARK  status: ('A' for Active; 'I' for Inactive)
REMARK    1  A    between atoms: C_1  and  C_2
REMARK    2  A    between atoms: C_2  and  C_3
REMARK    3  A    between atoms: C_3  and  C_4
REMARK    4  A    between atoms: C_3  and  O_5
REMARK    5  A    between atoms: C_3  and  C_6
REMARK    6  A    between atoms: N_8  and  C_9
REMARK    7  A    between atoms: C_13  and  C_14
REMARK    8  A    between atoms: C_13  and  C_15
REMARK                            x       y       z     vdW  Elec       q    Type
REMARK                         _______ _______ _______ _____ _____    ______ ____
ROOT
ATOM      1  C   UNL     1      -0.709  13.211  20.495  0.00  0.00    +0.000 C 
ATOM      2  C   UNL     1      -0.025  11.914  20.272  0.00  0.00    +0.000 C 
ATOM      3  C   UNL     1      -0.238  11.100  21.294  0.00  0.00    +0.000 C 
ATOM      4  O   UNL     1      -1.046  11.599  22.305  0.00  0.00    +0.000 OA
ATOM      5  C   UNL     1      -1.346  12.972  21.903  0.00  0.00    +0.000 C 
ATOM      6  C   UNL     1      -2.876  13.081  21.820  0.00  0.00    +0.000 C 
ATOM      7  C   UNL     1      -0.848  13.861  23.047  0.00  0.00    +0.000 C 
ATOM      8  C   UNL     1       0.301   9.725  21.336  0.00  0.00    +0.000 C 
ATOM      9  O   UNL     1       0.102   8.974  22.287  0.00  0.00    +0.000 OA
ATOM     10  C   UNL     1       1.083   9.286  20.158  0.00  0.00    +0.000 A 
ATOM     11  C   UNL     1       1.602   7.984  20.130  0.00  0.00    +0.000 A 
ATOM     12  C   UNL     1       2.309   7.538  19.013  0.00  0.00    +0.000 A 
ATOM     13  C   UNL     1       2.500   8.389  17.922  0.00  0.00    +0.000 A 
ATOM     14  C   UNL     1       1.990   9.689  17.949  0.00  0.00    +0.000 A 
ATOM     15  C   UNL     1       1.280  10.144  19.069  0.00  0.00    +0.000 A 
ATOM     16  C   UNL     1       0.713  11.514  19.075  0.00  0.00    +0.000 C 
ATOM     17  O   UNL     1       0.803  12.259  18.109  0.00  0.00    +0.000 OA
ENDROOT
BRANCH   1  20
ATOM     18  C   UNL     1       1.153  16.115  19.570  0.00  0.00    +0.000 A 
ATOM     19  C   UNL     1      -0.079  15.494  19.639  0.00  0.00    +0.000 A 
ATOM     20  N   UNL     1       0.162  14.362  20.361  0.00  0.00    +0.000 N 
ATOM     21  N   UNL     1       1.422  14.351  20.836  0.00  0.00    +0.000 NA
ATOM     22  N   UNL     1       2.040  15.417  20.350  0.00  0.00    +0.000 NA
BRANCH  18  23
ATOM     23  C   UNL     1       1.592  17.276  18.719  0.00  0.00    +0.000 C 
ATOM     24  C   UNL     1       2.528  16.807  17.591  0.00  0.00    +0.000 C 
BRANCH  23  26
ATOM     25  C   UNL     1       0.518  18.343  16.612  0.00  0.00    +0.000 C 
ATOM     26  C   UNL     1       0.368  17.990  18.091  0.00  0.00    +0.000 C 
ENDBRANCH  23  26
BRANCH  23  27
ATOM     27  O   UNL     1       2.321  18.233  19.508  0.00  0.00    +0.000 OA
ATOM     28  H   UNL     1       1.972  18.186  20.414  0.00  0.00    +0.000 HD
ENDBRANCH  23  27
ENDBRANCH  18  23
ENDBRANCH   1  20
TORSDOF 4
ENDMDL
MODEL 9
REMARK VINA RESULT:      -6.5      3.874      6.366
REMARK  Name = 
REMARK  8 active torsions:
REMARK  status: ('A' for Active; 'I' for Inactive)
REMARK    1  A    between atoms: C_1  and  C_2
REMARK    2  A    between atoms: C_2  and  C_3
REMARK    3  A    between atoms: C_3  and  C_4
REMARK    4  A    between atoms: C_3  and  O_5
REMARK    5  A    between atoms: C_3  and  C_6
REMARK    6  A    between atoms: N_8  and  C_9
REMARK    7  A    between atoms: C_13  and  C_14
REMARK    8  A    between atoms: C_13  and  C_15
REMARK                            x       y       z     vdW  Elec       q    Type
REMARK                         _______ _______ _______ _____ _____    ______ ____
ROOT
ATOM      1  C   UNL     1      -1.745  12.708  21.195  0.00  0.00    +0.000 C 
ATOM      2  C   UNL     1      -0.808  11.625  20.808  0.00  0.00    +0.000 C 
ATOM      3  C   UNL     1      -0.317  11.035  21.888  0.00  0.00    +0.000 C 
ATOM      4  O   UNL     1      -0.783  11.516  23.102  0.00  0.00    +0.000 OA
ATOM      5  C   UNL     1      -1.660  12.632  22.754  0.00  0.00    +0.000 C 
ATOM      6  C   UNL     1      -3.040  12.307  23.347  0.00  0.00    +0.000 C 
ATOM      7  C   UNL     1      -1.088  13.856  23.476  0.00  0.00    +0.000 C 
ATOM      8  C   UNL     1       0.627   9.901  21.810  0.00  0.00    +0.000 C 
ATOM      9  O   UNL     1       1.080   9.359  22.814  0.00  0.00    +0.000 OA
ATOM     10  C   UNL     1       0.985   9.433  20.452  0.00  0.00    +0.000 A 
ATOM     11  C   UNL     1       1.858   8.344  20.313  0.00  0.00    +0.000 A 
ATOM     12  C   UNL     1       2.178   7.863  19.044  0.00  0.00    +0.000 A 
ATOM     13  C   UNL     1       1.629   8.465  17.911  0.00  0.00    +0.000 A 
ATOM     14  C   UNL     1       0.763   9.554  18.044  0.00  0.00    +0.000 A 
ATOM     15  C   UNL     1       0.439  10.043  19.317  0.00  0.00    +0.000 A 
ATOM     16  C   UNL     1      -0.508  11.176  19.450  0.00  0.00    +0.000 C 
ATOM     17  O   UNL     1      -1.059  11.680  18.482  0.00  0.00    +0.000 OA
ENDROOT
BRANCH   1  20
ATOM     18  C   UNL     1      -0.392  15.772  19.954  0.00  0.00    +0.000 A 
ATOM     19  C   UNL     1      -0.229  14.411  20.127  0.00  0.00    +0.000 A 
ATOM     20  N   UNL     1      -1.441  13.988  20.587  0.00  0.00    +0.000 N 
ATOM     21  N   UNL     1      -2.342  14.989  20.564  0.00  0.00    +0.000 NA
ATOM     22  N   UNL     1      -1.707  16.088  20.184  0.00  0.00    +0.000 NA
BRANCH  18  23
ATOM     23  C   UNL     1       0.642  16.834  19.693  0.00  0.00    +0.000 C 
ATOM     24  C   UNL     1       1.781  16.288  18.815  0.00  0.00    +0.000 C 
BRANCH  23  26
ATOM     25  C   UNL     1       0.036  18.007  17.459  0.00  0.00    +0.000 C 
ATOM     26  C   UNL     1       0.005  18.057  18.987  0.00  0.00    +0.000 C 
ENDBRANCH  23  26
BRANCH  23  27
ATOM     27  O   UNL     1       1.231  17.278  20.929  0.00  0.00    +0.000 OA
ATOM     28  H   UNL     1       1.133  16.555  21.572  0.00  0.00    +0.000 HD
ENDBRANCH  23  27
ENDBRANCH  18  23
ENDBRANCH   1  20
TORSDOF 4
ENDMDL
