MODEL 1
REMARK VINA RESULT:      -8.8      0.000      0.000
REMARK  Name = 
REMARK  8 active torsions:
REMARK  status: ('A' for Active; 'I' for Inactive)
REMARK    1  A    between atoms: C_1  and  O_2
REMARK    2  A    between atoms: O_2  and  C_3
REMARK    3  A    between atoms: C_5  and  N_6
REMARK    4  A    between atoms: C_9  and  C_10
REMARK    5  A    between atoms: C_12  and  C_13
REMARK    6  A    between atoms: C_18  and  O_19
REMARK    7  A    between atoms: O_19  and  C_20
REMARK    8  A    between atoms: C_26  and  C_27
REMARK                            x       y       z     vdW  Elec       q    Type
REMARK                         _______ _______ _______ _____ _____    ______ ____
ROOT
ATOM      1  N   UNL     1       1.881   8.483  18.336  0.00  0.00    +0.000 N 
ATOM      2  C   UNL     1       2.522   7.317  18.766  0.00  0.00    +0.000 A 
ATOM      3  N   UNL     1       1.913   6.528  19.659  0.00  0.00    +0.000 NA
ATOM      4  C   UNL     1       2.517   5.386  20.028  0.00  0.00    +0.000 A 
ATOM      5  C   UNL     1       1.778   4.522  20.997  0.00  0.00    +0.000 C 
ATOM      6  C   UNL     1       3.733   5.012  19.509  0.00  0.00    +0.000 A 
ATOM      7  C   UNL     1       4.297   5.875  18.589  0.00  0.00    +0.000 A 
ATOM      8  N   UNL     1       3.707   7.031  18.214  0.00  0.00    +0.000 NA
ATOM      9  H   UNL     1       2.556   9.034  17.824  0.00  0.00    +0.000 HD
ENDROOT
BRANCH   7  10
ATOM     10  C   UNL     1       5.562   5.542  17.949  0.00  0.00    +0.000 A 
ATOM     11  C   UNL     1       6.841   5.331  18.516  0.00  0.00    +0.000 A 
ATOM     12  N   UNL     1       7.764   4.979  17.621  0.00  0.00    +0.000 NA
ATOM     13  N   UNL     1       7.096   4.970  16.458  0.00  0.00    +0.000 N 
ATOM     14  N   UNL     1       7.745   4.624  15.323  0.00  0.00    +0.000 NA
ATOM     15  C   UNL     1       6.969   4.660  14.299  0.00  0.00    +0.000 A 
ATOM     16  C   UNL     1       5.543   5.034  14.251  0.00  0.00    +0.000 A 
ATOM     17  C   UNL     1       4.974   5.345  15.421  0.00  0.00    +0.000 A 
ATOM     18  C   UNL     1       5.763   5.320  16.596  0.00  0.00    +0.000 A 
BRANCH  15  19
ATOM     19  O   UNL     1       7.377   4.348  13.042  0.00  0.00    +0.000 OA
ATOM     20  C   UNL     1       6.487   3.520  12.285  0.00  0.00    +0.000 C 
ENDBRANCH  15  19
ENDBRANCH   7  10
BRANCH   1  23
ATOM     21  C   UNL     1       0.297  10.291  21.200  0.00  0.00    +0.000 A 
ATOM     22  C   UNL     1       1.152   9.458  20.473  0.00  0.00    +0.000 A 
ATOM     23  C   UNL     1       0.987   9.257  19.097  0.00  0.00    +0.000 A 
ATOM     24  C   UNL     1      -0.050   9.932  18.446  0.00  0.00    +0.000 A 
ATOM     25  C   UNL     1      -0.923  10.773  19.155  0.00  0.00    +0.000 A 
ATOM     26  C   UNL     1      -0.742  10.942  20.540  0.00  0.00    +0.000 A 
BRANCH  25  27
ATOM     27  C   UNL     1      -2.030  11.510  18.447  0.00  0.00    +0.000 C 
ATOM     28  F   UNL     1      -2.610  12.486  19.200  0.00  0.00    +0.000 F 
ATOM     29  F   UNL     1      -1.609  12.120  17.304  0.00  0.00    +0.000 F 
ATOM     30  F   UNL     1      -3.044  10.680  18.074  0.00  0.00    +0.000 F 
ENDBRANCH  25  27
BRANCH  21  32
ATOM     31  C   UNL     1      -0.136   9.581  23.428  0.00  0.00    +0.000 C 
ATOM     32  O   UNL     1       0.605  10.390  22.527  0.00  0.00    +0.000 OA
ENDBRANCH  21  32
ENDBRANCH   1  23
TORSDOF 5
ENDMDL
MODEL 2
REMARK VINA RESULT:      -8.8      2.173      2.786
REMARK  Name = 
REMARK  8 active torsions:
REMARK  status: ('A' for Active; 'I' for Inactive)
REMARK    1  A    between atoms: C_1  and  O_2
REMARK    2  A    between atoms: O_2  and  C_3
REMARK    3  A    between atoms: C_5  and  N_6
REMARK    4  A    between atoms: C_9  and  C_10
REMARK    5  A    between atoms: C_12  and  C_13
REMARK    6  A    between atoms: C_18  and  O_19
REMARK    7  A    between atoms: O_19  and  C_20
REMARK    8  A    between atoms: C_26  and  C_27
REMARK                            x       y       z     vdW  Elec       q    Type
REMARK                         _______ _______ _______ _____ _____    ______ ____
ROOT
ATOM      1  N   UNL     1       1.604   9.038  18.094  0.00  0.00    +0.000 N 
ATOM      2  C   UNL     1       2.397   7.934  18.422  0.00  0.00    +0.000 A 
ATOM      3  N   UNL     1       1.968   7.075  19.355  0.00  0.00    +0.000 NA
ATOM      4  C   UNL     1       2.716   5.993  19.626  0.00  0.00    +0.000 A 
ATOM      5  C   UNL     1       2.174   5.045  20.646  0.00  0.00    +0.000 C 
ATOM      6  C   UNL     1       3.898   5.748  18.969  0.00  0.00    +0.000 A 
ATOM      7  C   UNL     1       4.273   6.678  18.017  0.00  0.00    +0.000 A 
ATOM      8  N   UNL     1       3.537   7.776  17.738  0.00  0.00    +0.000 NA
ATOM      9  H   UNL     1       2.163   9.661  17.527  0.00  0.00    +0.000 HD
ENDROOT
BRANCH   7  10
ATOM     10  C   UNL     1       5.485   6.481  17.236  0.00  0.00    +0.000 A 
ATOM     11  C   UNL     1       6.792   6.983  17.442  0.00  0.00    +0.000 A 
ATOM     12  N   UNL     1       7.676   6.540  16.547  0.00  0.00    +0.000 NA
ATOM     13  N   UNL     1       6.948   5.753  15.741  0.00  0.00    +0.000 N 
ATOM     14  N   UNL     1       7.554   5.112  14.716  0.00  0.00    +0.000 NA
ATOM     15  C   UNL     1       6.726   4.396  14.042  0.00  0.00    +0.000 A 
ATOM     16  C   UNL     1       5.276   4.238  14.259  0.00  0.00    +0.000 A 
ATOM     17  C   UNL     1       4.760   4.892  15.305  0.00  0.00    +0.000 A 
ATOM     18  C   UNL     1       5.612   5.695  16.102  0.00  0.00    +0.000 A 
BRANCH  15  19
ATOM     19  O   UNL     1       7.087   3.649  12.968  0.00  0.00    +0.000 OA
ATOM     20  C   UNL     1       6.015   3.200  12.131  0.00  0.00    +0.000 C 
ENDBRANCH  15  19
ENDBRANCH   7  10
BRANCH   1  23
ATOM     21  C   UNL     1      -1.146  11.220  19.382  0.00  0.00    +0.000 A 
ATOM     22  C   UNL     1      -0.234  10.618  18.511  0.00  0.00    +0.000 A 
ATOM     23  C   UNL     1       0.728   9.709  18.967  0.00  0.00    +0.000 A 
ATOM     24  C   UNL     1       0.748   9.389  20.328  0.00  0.00    +0.000 A 
ATOM     25  C   UNL     1      -0.156   9.982  21.223  0.00  0.00    +0.000 A 
ATOM     26  C   UNL     1      -1.101  10.904  20.738  0.00  0.00    +0.000 A 
BRANCH  25  27
ATOM     27  C   UNL     1      -0.140   9.623  22.687  0.00  0.00    +0.000 C 
ATOM     28  F   UNL     1      -0.687  10.575  23.492  0.00  0.00    +0.000 F 
ATOM     29  F   UNL     1      -0.819   8.473  22.954  0.00  0.00    +0.000 F 
ATOM     30  F   UNL     1       1.124   9.425  23.154  0.00  0.00    +0.000 F 
ENDBRANCH  25  27
BRANCH  21  32
ATOM     31  C   UNL     1      -3.262  12.303  19.432  0.00  0.00    +0.000 C 
ATOM     32  O   UNL     1      -2.026  12.070  18.775  0.00  0.00    +0.000 OA
ENDBRANCH  21  32
ENDBRANCH   1  23
TORSDOF 5
ENDMDL
MODEL 3
REMARK VINA RESULT:      -8.8      1.125      1.313
REMARK  Name = 
REMARK  8 active torsions:
REMARK  status: ('A' for Active; 'I' for Inactive)
REMARK    1  A    between atoms: C_1  and  O_2
REMARK    2  A    between atoms: O_2  and  C_3
REMARK    3  A    between atoms: C_5  and  N_6
REMARK    4  A    between atoms: C_9  and  C_10
REMARK    5  A    between atoms: C_12  and  C_13
REMARK    6  A    between atoms: C_18  and  O_19
REMARK    7  A    between atoms: O_19  and  C_20
REMARK    8  A    between atoms: C_26  and  C_27
REMARK                            x       y       z     vdW  Elec       q    Type
REMARK                         _______ _______ _______ _____ _____    ______ ____
ROOT
ATOM      1  N   UNL     1       1.664   8.879  17.731  0.00  0.00    +0.000 N 
ATOM      2  C   UNL     1       2.386   7.806  18.262  0.00  0.00    +0.000 A 
ATOM      3  N   UNL     1       1.855   7.091  19.261  0.00  0.00    +0.000 NA
ATOM      4  C   UNL     1       2.537   6.034  19.730  0.00  0.00    +0.000 A 
ATOM      5  C   UNL     1       1.882   5.246  20.818  0.00  0.00    +0.000 C 
ATOM      6  C   UNL     1       3.754   5.669  19.207  0.00  0.00    +0.000 A 
ATOM      7  C   UNL     1       4.236   6.452  18.175  0.00  0.00    +0.000 A 
ATOM      8  N   UNL     1       3.567   7.524  17.698  0.00  0.00    +0.000 NA
ATOM      9  H   UNL     1       2.289   9.405  17.134  0.00  0.00    +0.000 HD
ENDROOT
BRANCH   7  10
ATOM     10  C   UNL     1       5.495   6.117  17.526  0.00  0.00    +0.000 A 
ATOM     11  C   UNL     1       6.824   6.256  17.992  0.00  0.00    +0.000 A 
ATOM     12  N   UNL     1       7.734   5.782  17.140  0.00  0.00    +0.000 NA
ATOM     13  N   UNL     1       7.006   5.342  16.104  0.00  0.00    +0.000 N 
ATOM     14  N   UNL     1       7.629   4.767  15.051  0.00  0.00    +0.000 NA
ATOM     15  C   UNL     1       6.796   4.395  14.146  0.00  0.00    +0.000 A 
ATOM     16  C   UNL     1       5.329   4.545  14.144  0.00  0.00    +0.000 A 
ATOM     17  C   UNL     1       4.791   5.107  15.232  0.00  0.00    +0.000 A 
ATOM     18  C   UNL     1       5.645   5.535  16.277  0.00  0.00    +0.000 A 
BRANCH  15  19
ATOM     19  O   UNL     1       7.170   3.785  12.993  0.00  0.00    +0.000 OA
ATOM     20  C   UNL     1       6.108   3.226  12.210  0.00  0.00    +0.000 C 
ENDBRANCH  15  19
ENDBRANCH   7  10
BRANCH   1  23
ATOM     21  C   UNL     1       0.227  11.285  20.205  0.00  0.00    +0.000 A 
ATOM     22  C   UNL     1       1.126  10.431  19.560  0.00  0.00    +0.000 A 
ATOM     23  C   UNL     1       0.753   9.686  18.436  0.00  0.00    +0.000 A 
ATOM     24  C   UNL     1      -0.548   9.828  17.945  0.00  0.00    +0.000 A 
ATOM     25  C   UNL     1      -1.470  10.678  18.576  0.00  0.00    +0.000 A 
ATOM     26  C   UNL     1      -1.071  11.402  19.714  0.00  0.00    +0.000 A 
BRANCH  25  27
ATOM     27  C   UNL     1      -2.867  10.840  18.035  0.00  0.00    +0.000 C 
ATOM     28  F   UNL     1      -2.922  11.499  16.844  0.00  0.00    +0.000 F 
ATOM     29  F   UNL     1      -3.496   9.649  17.833  0.00  0.00    +0.000 F 
ATOM     30  F   UNL     1      -3.668  11.544  18.883  0.00  0.00    +0.000 F 
ENDBRANCH  25  27
BRANCH  21  32
ATOM     31  C   UNL     1       0.013  13.048  21.788  0.00  0.00    +0.000 C 
ATOM     32  O   UNL     1       0.753  11.950  21.276  0.00  0.00    +0.000 OA
ENDBRANCH  21  32
ENDBRANCH   1  23
TORSDOF 5
ENDMDL
MODEL 4
REMARK VINA RESULT:      -8.7      1.971      2.689
REMARK  Name = 
REMARK  8 active torsions:
REMARK  status: ('A' for Active; 'I' for Inactive)
REMARK    1  A    between atoms: C_1  and  O_2
REMARK    2  A    between atoms: O_2  and  C_3
REMARK    3  A    between atoms: C_5  and  N_6
REMARK    4  A    between atoms: C_9  and  C_10
REMARK    5  A    between atoms: C_12  and  C_13
REMARK    6  A    between atoms: C_18  and  O_19
REMARK    7  A    between atoms: O_19  and  C_20
REMARK    8  A    between atoms: C_26  and  C_27
REMARK                            x       y       z     vdW  Elec       q    Type
REMARK                         _______ _______ _______ _____ _____    ______ ____
ROOT
ATOM      1  N   UNL     1       1.909   8.652  18.260  0.00  0.00    +0.000 N 
ATOM      2  C   UNL     1       2.528   7.481  18.707  0.00  0.00    +0.000 A 
ATOM      3  N   UNL     1       1.901   6.711  19.604  0.00  0.00    +0.000 NA
ATOM      4  C   UNL     1       2.485   5.564  19.989  0.00  0.00    +0.000 A 
ATOM      5  C   UNL     1       1.725   4.722  20.962  0.00  0.00    +0.000 C 
ATOM      6  C   UNL     1       3.698   5.166  19.483  0.00  0.00    +0.000 A 
ATOM      7  C   UNL     1       4.282   6.010  18.558  0.00  0.00    +0.000 A 
ATOM      8  N   UNL     1       3.713   7.171  18.167  0.00  0.00    +0.000 NA
ATOM      9  H   UNL     1       2.596   9.187  17.747  0.00  0.00    +0.000 HD
ENDROOT
BRANCH   7  10
ATOM     10  C   UNL     1       5.546   5.651  17.931  0.00  0.00    +0.000 A 
ATOM     11  C   UNL     1       6.834   5.504  18.498  0.00  0.00    +0.000 A 
ATOM     12  N   UNL     1       7.755   5.101  17.621  0.00  0.00    +0.000 NA
ATOM     13  N   UNL     1       7.075   4.993  16.470  0.00  0.00    +0.000 N 
ATOM     14  N   UNL     1       7.718   4.574  15.357  0.00  0.00    +0.000 NA
ATOM     15  C   UNL     1       6.931   4.519  14.341  0.00  0.00    +0.000 A 
ATOM     16  C   UNL     1       5.499   4.865  14.282  0.00  0.00    +0.000 A 
ATOM     17  C   UNL     1       4.936   5.254  15.431  0.00  0.00    +0.000 A 
ATOM     18  C   UNL     1       5.737   5.330  16.596  0.00  0.00    +0.000 A 
BRANCH  15  19
ATOM     19  O   UNL     1       7.332   4.120  13.108  0.00  0.00    +0.000 OA
ATOM     20  C   UNL     1       6.337   3.469  12.308  0.00  0.00    +0.000 C 
ENDBRANCH  15  19
ENDBRANCH   7  10
BRANCH   1  23
ATOM     21  C   UNL     1      -0.741  11.132  19.154  0.00  0.00    +0.000 A 
ATOM     22  C   UNL     1       0.188  10.402  18.409  0.00  0.00    +0.000 A 
ATOM     23  C   UNL     1       1.021   9.448  19.006  0.00  0.00    +0.000 A 
ATOM     24  C   UNL     1       0.892   9.218  20.379  0.00  0.00    +0.000 A 
ATOM     25  C   UNL     1      -0.033   9.940  21.149  0.00  0.00    +0.000 A 
ATOM     26  C   UNL     1      -0.846  10.904  20.524  0.00  0.00    +0.000 A 
BRANCH  25  27
ATOM     27  C   UNL     1      -0.180   9.677  22.626  0.00  0.00    +0.000 C 
ATOM     28  F   UNL     1       0.996   9.404  23.255  0.00  0.00    +0.000 F 
ATOM     29  F   UNL     1      -0.728  10.729  23.296  0.00  0.00    +0.000 F 
ATOM     30  F   UNL     1      -0.991   8.612  22.879  0.00  0.00    +0.000 F 
ENDBRANCH  25  27
BRANCH  21  32
ATOM     31  C   UNL     1      -2.437  11.463  17.519  0.00  0.00    +0.000 C 
ATOM     32  O   UNL     1      -1.486  12.011  18.419  0.00  0.00    +0.000 OA
ENDBRANCH  21  32
ENDBRANCH   1  23
TORSDOF 5
ENDMDL
MODEL 5
REMARK VINA RESULT:      -8.2      3.405      4.305
REMARK  Name = 
REMARK  8 active torsions:
REMARK  status: ('A' for Active; 'I' for Inactive)
REMARK    1  A    between atoms: C_1  and  O_2
REMARK    2  A    between atoms: O_2  and  C_3
REMARK    3  A    between atoms: C_5  and  N_6
REMARK    4  A    between atoms: C_9  and  C_10
REMARK    5  A    between atoms: C_12  and  C_13
REMARK    6  A    between atoms: C_18  and  O_19
REMARK    7  A    between atoms: O_19  and  C_20
REMARK    8  A    between atoms: C_26  and  C_27
REMARK                            x       y       z     vdW  Elec       q    Type
REMARK                         _______ _______ _______ _____ _____    ______ ____
ROOT
ATOM      1  N   UNL     1       1.320  10.619  17.821  0.00  0.00    +0.000 N 
ATOM      2  C   UNL     1       1.524   9.550  18.700  0.00  0.00    +0.000 A 
ATOM      3  N   UNL     1       1.192   9.690  19.988  0.00  0.00    +0.000 NA
ATOM      4  C   UNL     1       1.348   8.640  20.811  0.00  0.00    +0.000 A 
ATOM      5  C   UNL     1       0.924   8.836  22.231  0.00  0.00    +0.000 C 
ATOM      6  C   UNL     1       1.831   7.435  20.362  0.00  0.00    +0.000 A 
ATOM      7  C   UNL     1       2.149   7.366  19.019  0.00  0.00    +0.000 A 
ATOM      8  N   UNL     1       2.007   8.415  18.179  0.00  0.00    +0.000 NA
ATOM      9  H   UNL     1       1.797  10.402  16.956  0.00  0.00    +0.000 HD
ENDROOT
BRANCH   7  10
ATOM     10  C   UNL     1       2.625   6.118  18.440  0.00  0.00    +0.000 A 
ATOM     11  C   UNL     1       2.050   4.825  18.466  0.00  0.00    +0.000 A 
ATOM     12  N   UNL     1       2.744   3.924  17.770  0.00  0.00    +0.000 NA
ATOM     13  N   UNL     1       3.786   4.621  17.292  0.00  0.00    +0.000 N 
ATOM     14  N   UNL     1       4.694   4.001  16.506  0.00  0.00    +0.000 NA
ATOM     15  C   UNL     1       5.626   4.802  16.128  0.00  0.00    +0.000 A 
ATOM     16  C   UNL     1       5.790   6.228  16.465  0.00  0.00    +0.000 A 
ATOM     17  C   UNL     1       4.837   6.768  17.232  0.00  0.00    +0.000 A 
ATOM     18  C   UNL     1       3.772   5.951  17.682  0.00  0.00    +0.000 A 
BRANCH  15  19
ATOM     19  O   UNL     1       6.653   4.425  15.325  0.00  0.00    +0.000 OA
ATOM     20  C   UNL     1       6.294   4.019  13.999  0.00  0.00    +0.000 C 
ENDBRANCH  15  19
ENDBRANCH   7  10
BRANCH   1  23
ATOM     21  C   UNL     1       0.387  13.978  19.169  0.00  0.00    +0.000 A 
ATOM     22  C   UNL     1       0.295  12.643  18.769  0.00  0.00    +0.000 A 
ATOM     23  C   UNL     1       1.369  11.982  18.161  0.00  0.00    +0.000 A 
ATOM     24  C   UNL     1       2.564  12.685  17.976  0.00  0.00    +0.000 A 
ATOM     25  C   UNL     1       2.680  14.029  18.367  0.00  0.00    +0.000 A 
ATOM     26  C   UNL     1       1.578  14.671  18.961  0.00  0.00    +0.000 A 
BRANCH  25  27
ATOM     27  C   UNL     1       3.974  14.778  18.180  0.00  0.00    +0.000 C 
ATOM     28  F   UNL     1       5.029  13.980  17.856  0.00  0.00    +0.000 F 
ATOM     29  F   UNL     1       3.901  15.719  17.199  0.00  0.00    +0.000 F 
ATOM     30  F   UNL     1       4.348  15.445  19.308  0.00  0.00    +0.000 F 
ENDBRANCH  25  27
BRANCH  21  32
ATOM     31  C   UNL     1      -1.008  14.062  21.093  0.00  0.00    +0.000 C 
ATOM     32  O   UNL     1      -0.744  14.467  19.759  0.00  0.00    +0.000 OA
ENDBRANCH  21  32
ENDBRANCH   1  23
TORSDOF 5
ENDMDL
MODEL 6
REMARK VINA RESULT:      -8.2      3.505      4.731
REMARK  Name = 
REMARK  8 active torsions:
REMARK  status: ('A' for Active; 'I' for Inactive)
REMARK    1  A    between atoms: C_1  and  O_2
REMARK    2  A    between atoms: O_2  and  C_3
REMARK    3  A    between atoms: C_5  and  N_6
REMARK    4  A    between atoms: C_9  and  C_10
REMARK    5  A    between atoms: C_12  and  C_13
REMARK    6  A    between atoms: C_18  and  O_19
REMARK    7  A    between atoms: O_19  and  C_20
REMARK    8  A    between atoms: C_26  and  C_27
REMARK                            x       y       z     vdW  Elec       q    Type
REMARK                         _______ _______ _______ _____ _____    ______ ____
ROOT
ATOM      1  N   UNL     1       1.245  10.683  18.234  0.00  0.00    +0.000 N 
ATOM      2  C   UNL     1       1.321   9.746  19.269  0.00  0.00    +0.000 A 
ATOM      3  N   UNL     1       0.824  10.059  20.471  0.00  0.00    +0.000 NA
ATOM      4  C   UNL     1       0.859   9.132  21.443  0.00  0.00    +0.000 A 
ATOM      5  C   UNL     1       0.255   9.518  22.755  0.00  0.00    +0.000 C 
ATOM      6  C   UNL     1       1.383   7.881  21.230  0.00  0.00    +0.000 A 
ATOM      7  C   UNL     1       1.873   7.631  19.962  0.00  0.00    +0.000 A 
ATOM      8  N   UNL     1       1.854   8.554  18.976  0.00  0.00    +0.000 NA
ATOM      9  H   UNL     1       1.828  10.354  17.477  0.00  0.00    +0.000 HD
ENDROOT
BRANCH   7  10
ATOM     10  C   UNL     1       2.407   6.318  19.627  0.00  0.00    +0.000 A 
ATOM     11  C   UNL     1       2.148   5.055  20.210  0.00  0.00    +0.000 A 
ATOM     12  N   UNL     1       2.778   4.052  19.596  0.00  0.00    +0.000 NA
ATOM     13  N   UNL     1       3.462   4.656  18.613  0.00  0.00    +0.000 N 
ATOM     14  N   UNL     1       4.206   3.908  17.767  0.00  0.00    +0.000 NA
ATOM     15  C   UNL     1       4.795   4.631  16.882  0.00  0.00    +0.000 A 
ATOM     16  C   UNL     1       4.750   6.098  16.729  0.00  0.00    +0.000 A 
ATOM     17  C   UNL     1       3.976   6.759  17.597  0.00  0.00    +0.000 A 
ATOM     18  C   UNL     1       3.287   6.030  18.596  0.00  0.00    +0.000 A 
BRANCH  15  19
ATOM     19  O   UNL     1       5.595   4.119  15.912  0.00  0.00    +0.000 OA
ATOM     20  C   UNL     1       6.900   4.701  15.808  0.00  0.00    +0.000 C 
ENDBRANCH  15  19
ENDBRANCH   7  10
BRANCH   1  23
ATOM     21  C   UNL     1       0.238  14.173  19.119  0.00  0.00    +0.000 A 
ATOM     22  C   UNL     1       0.175  12.794  18.903  0.00  0.00    +0.000 A 
ATOM     23  C   UNL     1       1.265  12.081  18.388  0.00  0.00    +0.000 A 
ATOM     24  C   UNL     1       2.445  12.778  18.111  0.00  0.00    +0.000 A 
ATOM     25  C   UNL     1       2.532  14.164  18.318  0.00  0.00    +0.000 A 
ATOM     26  C   UNL     1       1.415  14.856  18.821  0.00  0.00    +0.000 A 
BRANCH  25  27
ATOM     27  C   UNL     1       3.810  14.909  18.033  0.00  0.00    +0.000 C 
ATOM     28  F   UNL     1       3.767  15.659  16.897  0.00  0.00    +0.000 F 
ATOM     29  F   UNL     1       4.156  15.764  19.034  0.00  0.00    +0.000 F 
ATOM     30  F   UNL     1       4.871  14.067  17.881  0.00  0.00    +0.000 F 
ENDBRANCH  25  27
BRANCH  21  32
ATOM     31  C   UNL     1      -0.957  16.125  19.766  0.00  0.00    +0.000 C 
ATOM     32  O   UNL     1      -0.905  14.713  19.639  0.00  0.00    +0.000 OA
ENDBRANCH  21  32
ENDBRANCH   1  23
TORSDOF 5
ENDMDL
MODEL 7
REMARK VINA RESULT:      -8.0      4.675     10.159
REMARK  Name = 
REMARK  8 active torsions:
REMARK  status: ('A' for Active; 'I' for Inactive)
REMARK    1  A    between atoms: C_1  and  O_2
REMARK    2  A    between atoms: O_2  and  C_3
REMARK    3  A    between atoms: C_5  and  N_6
REMARK    4  A    between atoms: C_9  and  C_10
REMARK    5  A    between atoms: C_12  and  C_13
REMARK    6  A    between atoms: C_18  and  O_19
REMARK    7  A    between atoms: O_19  and  C_20
REMARK    8  A    between atoms: C_26  and  C_27
REMARK                            x       y       z     vdW  Elec       q    Type
REMARK                         _______ _______ _______ _____ _____    ______ ____
ROOT
ATOM      1  N   UNL     1       1.558   8.124  20.683  0.00  0.00    +0.000 N 
ATOM      2  C   UNL     1       0.939   9.258  20.148  0.00  0.00    +0.000 A 
ATOM      3  N   UNL     1       0.136   9.125  19.086  0.00  0.00    +0.000 NA
ATOM      4  C   UNL     1      -0.490  10.215  18.612  0.00  0.00    +0.000 A 
ATOM      5  C   UNL     1      -1.406  10.006  17.450  0.00  0.00    +0.000 C 
ATOM      6  C   UNL     1      -0.329  11.450  19.191  0.00  0.00    +0.000 A 
ATOM      7  C   UNL     1       0.512  11.508  20.286  0.00  0.00    +0.000 A 
ATOM      8  N   UNL     1       1.156  10.423  20.770  0.00  0.00    +0.000 NA
ATOM      9  H   UNL     1       2.259   8.437  21.341  0.00  0.00    +0.000 HD
ENDROOT
BRANCH   7  10
ATOM     10  C   UNL     1       0.710  12.763  20.995  0.00  0.00    +0.000 A 
ATOM     11  C   UNL     1       1.705  13.756  20.829  0.00  0.00    +0.000 A 
ATOM     12  N   UNL     1       1.535  14.813  21.624  0.00  0.00    +0.000 NA
ATOM     13  N   UNL     1       0.431  14.513  22.325  0.00  0.00    +0.000 N 
ATOM     14  N   UNL     1      -0.044  15.402  23.226  0.00  0.00    +0.000 NA
ATOM     15  C   UNL     1      -1.105  14.970  23.810  0.00  0.00    +0.000 A 
ATOM     16  C   UNL     1      -1.790  13.679  23.612  0.00  0.00    +0.000 A 
ATOM     17  C   UNL     1      -1.264  12.866  22.689  0.00  0.00    +0.000 A 
ATOM     18  C   UNL     1      -0.100  13.276  21.996  0.00  0.00    +0.000 A 
BRANCH  15  19
ATOM     19  O   UNL     1      -1.780  15.678  24.751  0.00  0.00    +0.000 OA
ATOM     20  C   UNL     1      -2.935  15.038  25.304  0.00  0.00    +0.000 C 
ENDBRANCH  15  19
ENDBRANCH   7  10
BRANCH   1  23
ATOM     21  C   UNL     1       3.227   5.884  18.199  0.00  0.00    +0.000 A 
ATOM     22  C   UNL     1       2.799   7.038  18.859  0.00  0.00    +0.000 A 
ATOM     23  C   UNL     1       1.938   6.978  19.962  0.00  0.00    +0.000 A 
ATOM     24  C   UNL     1       1.524   5.722  20.414  0.00  0.00    +0.000 A 
ATOM     25  C   UNL     1       1.939   4.547  19.767  0.00  0.00    +0.000 A 
ATOM     26  C   UNL     1       2.791   4.640  18.651  0.00  0.00    +0.000 A 
BRANCH  25  27
ATOM     27  C   UNL     1       1.503   3.194  20.268  0.00  0.00    +0.000 C 
ATOM     28  F   UNL     1       2.400   2.201  20.016  0.00  0.00    +0.000 F 
ATOM     29  F   UNL     1       1.289   3.174  21.612  0.00  0.00    +0.000 F 
ATOM     30  F   UNL     1       0.333   2.789  19.699  0.00  0.00    +0.000 F 
ENDBRANCH  25  27
BRANCH  21  32
ATOM     31  C   UNL     1       5.321   6.726  17.450  0.00  0.00    +0.000 C 
ATOM     32  O   UNL     1       4.075   6.116  17.153  0.00  0.00    +0.000 OA
ENDBRANCH  21  32
ENDBRANCH   1  23
TORSDOF 5
ENDMDL
MODEL 8
REMARK VINA RESULT:      -7.9      3.044      3.942
REMARK  Name = 
REMARK  8 active torsions:
REMARK  status: ('A' for Active; 'I' for Inactive)
REMARK    1  A    between atoms: C_1  and  O_2
REMARK    2  A    between atoms: O_2  and  C_3
REMARK    3  A    between atoms: C_5  and  N_6
REMARK    4  A    between atoms: C_9  and  C_10
REMARK    5  A    between atoms: C_12  and  C_13
REMARK    6  A    between atoms: C_18  and  O_19
REMARK    7  A    between atoms: O_19  and  C_20
REMARK    8  A    between atoms: C_26  and  C_27
REMARK                            x       y       z     vdW  Elec       q    Type
REMARK                         _______ _______ _______ _____ _____    ______ ____
ROOT
ATOM      1  N   UNL     1       1.605  10.719  17.826  0.00  0.00    +0.000 N 
ATOM      2  C   UNL     1       1.722   9.580  18.629  0.00  0.00    +0.000 A 
ATOM      3  N   UNL     1       1.257   9.614  19.883  0.00  0.00    +0.000 NA
ATOM      4  C   UNL     1       1.332   8.499  20.628  0.00  0.00    +0.000 A 
ATOM      5  C   UNL     1       0.763   8.578  22.007  0.00  0.00    +0.000 C 
ATOM      6  C   UNL     1       1.865   7.334  20.133  0.00  0.00    +0.000 A 
ATOM      7  C   UNL     1       2.320   7.375  18.828  0.00  0.00    +0.000 A 
ATOM      8  N   UNL     1       2.261   8.490  18.069  0.00  0.00    +0.000 NA
ATOM      9  H   UNL     1       2.170  10.573  17.000  0.00  0.00    +0.000 HD
ENDROOT
BRANCH   7  10
ATOM     10  C   UNL     1       2.859   6.177  18.201  0.00  0.00    +0.000 A 
ATOM     11  C   UNL     1       2.270   4.904  18.013  0.00  0.00    +0.000 A 
ATOM     12  N   UNL     1       3.046   4.057  17.336  0.00  0.00    +0.000 NA
ATOM     13  N   UNL     1       4.155   4.769  17.085  0.00  0.00    +0.000 N 
ATOM     14  N   UNL     1       5.160   4.205  16.378  0.00  0.00    +0.000 NA
ATOM     15  C   UNL     1       6.146   5.013  16.220  0.00  0.00    +0.000 A 
ATOM     16  C   UNL     1       6.278   6.395  16.719  0.00  0.00    +0.000 A 
ATOM     17  C   UNL     1       5.231   6.882  17.394  0.00  0.00    +0.000 A 
ATOM     18  C   UNL     1       4.102   6.054  17.601  0.00  0.00    +0.000 A 
BRANCH  15  19
ATOM     19  O   UNL     1       7.275   4.689  15.539  0.00  0.00    +0.000 OA
ATOM     20  C   UNL     1       7.181   4.753  14.111  0.00  0.00    +0.000 C 
ENDBRANCH  15  19
ENDBRANCH   7  10
BRANCH   1  23
ATOM     21  C   UNL     1       2.647  14.257  18.436  0.00  0.00    +0.000 A 
ATOM     22  C   UNL     1       2.686  12.917  18.042  0.00  0.00    +0.000 A 
ATOM     23  C   UNL     1       1.613  12.049  18.281  0.00  0.00    +0.000 A 
ATOM     24  C   UNL     1       0.473  12.559  18.910  0.00  0.00    +0.000 A 
ATOM     25  C   UNL     1       0.410  13.901  19.317  0.00  0.00    +0.000 A 
ATOM     26  C   UNL     1       1.511  14.745  19.078  0.00  0.00    +0.000 A 
BRANCH  25  27
ATOM     27  C   UNL     1      -0.826  14.450  19.980  0.00  0.00    +0.000 C 
ATOM     28  F   UNL     1      -1.925  13.658  19.835  0.00  0.00    +0.000 F 
ATOM     29  F   UNL     1      -0.669  14.630  21.321  0.00  0.00    +0.000 F 
ATOM     30  F   UNL     1      -1.179  15.668  19.481  0.00  0.00    +0.000 F 
ENDBRANCH  25  27
BRANCH  21  32
ATOM     31  C   UNL     1       3.664  16.385  18.131  0.00  0.00    +0.000 C 
ATOM     32  O   UNL     1       3.767  14.970  18.115  0.00  0.00    +0.000 OA
ENDBRANCH  21  32
ENDBRANCH   1  23
TORSDOF 5
ENDMDL
MODEL 9
REMARK VINA RESULT:      -7.9      4.750      9.873
REMARK  Name = 
REMARK  8 active torsions:
REMARK  status: ('A' for Active; 'I' for Inactive)
REMARK    1  A    between atoms: C_1  and  O_2
REMARK    2  A    between atoms: O_2  and  C_3
REMARK    3  A    between atoms: C_5  and  N_6
REMARK    4  A    between atoms: C_9  and  C_10
REMARK    5  A    between atoms: C_12  and  C_13
REMARK    6  A    between atoms: C_18  and  O_19
REMARK    7  A    between atoms: O_19  and  C_20
REMARK    8  A    between atoms: C_26  and  C_27
REMARK                            x       y       z     vdW  Elec       q    Type
REMARK                         _______ _______ _______ _____ _____    ______ ____
ROOT
ATOM      1  N   UNL     1       2.037   8.416  17.498  0.00  0.00    +0.000 N 
ATOM      2  C   UNL     1       1.052   9.091  18.227  0.00  0.00    +0.000 A 
ATOM      3  N   UNL     1       1.261   9.347  19.524  0.00  0.00    +0.000 NA
ATOM      4  C   UNL     1       0.329  10.038  20.201  0.00  0.00    +0.000 A 
ATOM      5  C   UNL     1       0.627  10.332  21.635  0.00  0.00    +0.000 C 
ATOM      6  C   UNL     1      -0.819  10.488  19.596  0.00  0.00    +0.000 A 
ATOM      7  C   UNL     1      -0.962  10.188  18.254  0.00  0.00    +0.000 A 
ATOM      8  N   UNL     1      -0.039   9.486  17.560  0.00  0.00    +0.000 NA
ATOM      9  H   UNL     1       1.633   8.148  16.610  0.00  0.00    +0.000 HD
ENDROOT
BRANCH   7  10
ATOM     10  C   UNL     1      -2.123  10.661  17.515  0.00  0.00    +0.000 A 
ATOM     11  C   UNL     1      -2.453  10.513  16.146  0.00  0.00    +0.000 A 
ATOM     12  N   UNL     1      -3.640  11.031  15.831  0.00  0.00    +0.000 NA
ATOM     13  N   UNL     1      -4.090  11.533  16.990  0.00  0.00    +0.000 N 
ATOM     14  N   UNL     1      -5.306  12.124  17.031  0.00  0.00    +0.000 NA
ATOM     15  C   UNL     1      -5.593  12.549  18.210  0.00  0.00    +0.000 A 
ATOM     16  C   UNL     1      -4.767  12.471  19.429  0.00  0.00    +0.000 A 
ATOM     17  C   UNL     1      -3.586  11.856  19.306  0.00  0.00    +0.000 A 
ATOM     18  C   UNL     1      -3.203  11.352  18.039  0.00  0.00    +0.000 A 
BRANCH  15  19
ATOM     19  O   UNL     1      -6.759  13.171  18.515  0.00  0.00    +0.000 OA
ATOM     20  C   UNL     1      -7.524  13.644  17.400  0.00  0.00    +0.000 C 
ENDBRANCH  15  19
ENDBRANCH   7  10
BRANCH   1  23
ATOM     21  C   UNL     1       3.441   5.538  19.426  0.00  0.00    +0.000 A 
ATOM     22  C   UNL     1       2.557   6.523  18.978  0.00  0.00    +0.000 A 
ATOM     23  C   UNL     1       2.935   7.466  18.014  0.00  0.00    +0.000 A 
ATOM     24  C   UNL     1       4.225   7.391  17.481  0.00  0.00    +0.000 A 
ATOM     25  C   UNL     1       5.132   6.411  17.916  0.00  0.00    +0.000 A 
ATOM     26  C   UNL     1       4.729   5.487  18.898  0.00  0.00    +0.000 A 
BRANCH  25  27
ATOM     27  C   UNL     1       6.517   6.324  17.327  0.00  0.00    +0.000 C 
ATOM     28  F   UNL     1       6.557   5.724  16.106  0.00  0.00    +0.000 F 
ATOM     29  F   UNL     1       7.097   7.545  17.164  0.00  0.00    +0.000 F 
ATOM     30  F   UNL     1       7.367   5.611  18.118  0.00  0.00    +0.000 F 
ENDBRANCH  25  27
BRANCH  21  32
ATOM     31  C   UNL     1       1.519   4.792  20.613  0.00  0.00    +0.000 C 
ATOM     32  O   UNL     1       2.911   4.689  20.356  0.00  0.00    +0.000 OA
ENDBRANCH  21  32
ENDBRANCH   1  23
TORSDOF 5
ENDMDL
