MODEL 1
REMARK VINA RESULT:      -6.7      0.000      0.000
REMARK  Name = 
REMARK  5 active torsions:
REMARK  status: ('A' for Active; 'I' for Inactive)
REMARK    1  A    between atoms: C_1  and  C_2
REMARK    2  A    between atoms: C_4  and  C_5
REMARK    3  A    between atoms: C_5  and  N_6
REMARK    4  A    between atoms: N_14  and  C_15
REMARK    5  A    between atoms: C_15  and  C_16
REMARK                            x       y       z     vdW  Elec       q    Type
REMARK                         _______ _______ _______ _____ _____    ______ ____
ROOT
ATOM      1  N   UNL     1       0.273  10.381  21.168  0.00  0.00    +0.000 N 
ATOM      2  C   UNL     1       0.684   9.461  22.139  0.00  0.00    +0.000 C 
ATOM      3  O   UNL     1       0.724   9.647  23.345  0.00  0.00    +0.000 OA
ATOM      4  C   UNL     1       1.113   8.179  21.417  0.00  0.00    +0.000 C 
ATOM      5  C   UNL     1       1.551   8.802  20.097  0.00  0.00    +0.000 C 
ATOM      6  C   UNL     1       0.410   9.778  19.883  0.00  0.00    +0.000 C 
ATOM      7  C   UNL     1       0.869  10.498  18.647  0.00  0.00    +0.000 C 
ATOM      8  C   UNL     1       1.461   9.338  17.840  0.00  0.00    +0.000 C 
ATOM      9  N   UNL     1       1.620   8.181  18.774  0.00  0.00    +0.000 NA
ENDROOT
BRANCH   1  10
ATOM     10  C   UNL     1       0.094  11.793  21.409  0.00  0.00    +0.000 C 
BRANCH  10  14
ATOM     11  C   UNL     1      -3.937  12.402  24.255  0.00  0.00    +0.000 C 
ATOM     12  C   UNL     1      -3.087  12.395  23.030  0.00  0.00    +0.000 A 
ATOM     13  N   UNL     1      -1.819  12.032  22.993  0.00  0.00    +0.000 NA
ATOM     14  C   UNL     1      -1.329  12.153  21.694  0.00  0.00    +0.000 A 
ATOM     15  C   UNL     1      -2.253  12.604  20.771  0.00  0.00    +0.000 A 
ATOM     16  S   UNL     1      -3.750  12.916  21.533  0.00  0.00    +0.000 S 
ENDBRANCH  10  14
ENDBRANCH   1  10
BRANCH   9  17
ATOM     17  C   UNL     1       2.878   7.464  18.528  0.00  0.00    +0.000 C 
BRANCH  17  18
ATOM     18  C   UNL     1       2.819   5.981  18.969  0.00  0.00    +0.000 C 
ATOM     19  C   UNL     1       4.214   5.377  19.178  0.00  0.00    +0.000 C 
ATOM     20  C   UNL     1       4.125   3.882  19.458  0.00  0.00    +0.000 C 
ATOM     21  O   UNL     1       3.400   3.213  18.427  0.00  0.00    +0.000 OA
ATOM     22  C   UNL     1       2.054   3.672  18.338  0.00  0.00    +0.000 C 
ATOM     23  C   UNL     1       2.016   5.148  17.963  0.00  0.00    +0.000 C 
ENDBRANCH  17  18
ENDBRANCH   9  17
TORSDOF 4
ENDMDL
MODEL 2
REMARK VINA RESULT:      -6.7      3.970      8.834
REMARK  Name = 
REMARK  5 active torsions:
REMARK  status: ('A' for Active; 'I' for Inactive)
REMARK    1  A    between atoms: C_1  and  C_2
REMARK    2  A    between atoms: C_4  and  C_5
REMARK    3  A    between atoms: C_5  and  N_6
REMARK    4  A    between atoms: N_14  and  C_15
REMARK    5  A    between atoms: C_15  and  C_16
REMARK                            x       y       z     vdW  Elec       q    Type
REMARK                         _______ _______ _______ _____ _____    ______ ____
ROOT
ATOM      1  N   UNL     1       3.142   4.546  19.012  0.00  0.00    +0.000 N 
ATOM      2  C   UNL     1       2.656   3.757  20.061  0.00  0.00    +0.000 C 
ATOM      3  O   UNL     1       2.608   2.537  20.090  0.00  0.00    +0.000 OA
ATOM      4  C   UNL     1       2.157   4.698  21.162  0.00  0.00    +0.000 C 
ATOM      5  C   UNL     1       1.782   5.888  20.286  0.00  0.00    +0.000 C 
ATOM      6  C   UNL     1       2.988   5.918  19.366  0.00  0.00    +0.000 C 
ATOM      7  C   UNL     1       2.597   7.008  18.408  0.00  0.00    +0.000 C 
ATOM      8  C   UNL     1       1.944   8.012  19.364  0.00  0.00    +0.000 C 
ATOM      9  N   UNL     1       1.695   7.301  20.656  0.00  0.00    +0.000 NA
ENDROOT
BRANCH   1  10
ATOM     10  C   UNL     1       3.409   4.056  17.680  0.00  0.00    +0.000 C 
BRANCH  10  14
ATOM     11  C   UNL     1       7.083   4.805  14.417  0.00  0.00    +0.000 C 
ATOM     12  C   UNL     1       6.409   4.616  15.732  0.00  0.00    +0.000 A 
ATOM     13  N   UNL     1       5.114   4.418  15.896  0.00  0.00    +0.000 NA
ATOM     14  C   UNL     1       4.821   4.290  17.253  0.00  0.00    +0.000 A 
ATOM     15  C   UNL     1       5.917   4.390  18.088  0.00  0.00    +0.000 A 
ATOM     16  S   UNL     1       7.334   4.681  17.179  0.00  0.00    +0.000 S 
ENDBRANCH  10  14
ENDBRANCH   1  10
BRANCH   9  17
ATOM     17  C   UNL     1       0.397   7.677  21.232  0.00  0.00    +0.000 C 
BRANCH  17  18
ATOM     18  C   UNL     1       0.267   9.200  21.474  0.00  0.00    +0.000 C 
ATOM     19  C   UNL     1      -0.478   9.524  22.776  0.00  0.00    +0.000 C 
ATOM     20  C   UNL     1      -0.725  11.022  22.905  0.00  0.00    +0.000 C 
ATOM     21  O   UNL     1      -1.407  11.527  21.758  0.00  0.00    +0.000 OA
ATOM     22  C   UNL     1      -0.642  11.361  20.567  0.00  0.00    +0.000 C 
ATOM     23  C   UNL     1      -0.412   9.882  20.280  0.00  0.00    +0.000 C 
ENDBRANCH  17  18
ENDBRANCH   9  17
TORSDOF 4
ENDMDL
MODEL 3
REMARK VINA RESULT:      -6.7      1.657      2.081
REMARK  Name = 
REMARK  5 active torsions:
REMARK  status: ('A' for Active; 'I' for Inactive)
REMARK    1  A    between atoms: C_1  and  C_2
REMARK    2  A    between atoms: C_4  and  C_5
REMARK    3  A    between atoms: C_5  and  N_6
REMARK    4  A    between atoms: N_14  and  C_15
REMARK    5  A    between atoms: C_15  and  C_16
REMARK                            x       y       z     vdW  Elec       q    Type
REMARK                         _______ _______ _______ _____ _____    ______ ____
ROOT
ATOM      1  N   UNL     1       0.743  10.212  20.575  0.00  0.00    +0.000 N 
ATOM      2  C   UNL     1       0.790   9.547  21.806  0.00  0.00    +0.000 C 
ATOM      3  O   UNL     1       0.658  10.053  22.909  0.00  0.00    +0.000 OA
ATOM      4  C   UNL     1       1.075   8.067  21.529  0.00  0.00    +0.000 C 
ATOM      5  C   UNL     1       1.849   8.229  20.226  0.00  0.00    +0.000 C 
ATOM      6  C   UNL     1       0.977   9.262  19.537  0.00  0.00    +0.000 C 
ATOM      7  C   UNL     1       1.776   9.537  18.294  0.00  0.00    +0.000 C 
ATOM      8  C   UNL     1       2.257   8.124  17.943  0.00  0.00    +0.000 C 
ATOM      9  N   UNL     1       2.020   7.262  19.141  0.00  0.00    +0.000 NA
ENDROOT
BRANCH   1  10
ATOM     10  C   UNL     1       0.808  11.645  20.421  0.00  0.00    +0.000 C 
BRANCH  10  14
ATOM     11  C   UNL     1      -4.051  12.480  19.779  0.00  0.00    +0.000 C 
ATOM     12  C   UNL     1      -2.675  12.629  20.333  0.00  0.00    +0.000 A 
ATOM     13  N   UNL     1      -1.627  11.922  19.955  0.00  0.00    +0.000 NA
ATOM     14  C   UNL     1      -0.504  12.313  20.681  0.00  0.00    +0.000 A 
ATOM     15  C   UNL     1      -0.734  13.322  21.596  0.00  0.00    +0.000 A 
ATOM     16  S   UNL     1      -2.382  13.775  21.580  0.00  0.00    +0.000 S 
ENDBRANCH  10  14
ENDBRANCH   1  10
BRANCH   9  17
ATOM     17  C   UNL     1       3.135   6.330  19.358  0.00  0.00    +0.000 C 
BRANCH  17  18
ATOM     18  C   UNL     1       2.674   4.855  19.453  0.00  0.00    +0.000 C 
ATOM     19  C   UNL     1       1.807   4.436  18.259  0.00  0.00    +0.000 C 
ATOM     20  C   UNL     1       1.245   3.034  18.459  0.00  0.00    +0.000 C 
ATOM     21  O   UNL     1       0.536   2.940  19.695  0.00  0.00    +0.000 OA
ATOM     22  C   UNL     1       1.384   3.182  20.814  0.00  0.00    +0.000 C 
ATOM     23  C   UNL     1       1.934   4.603  20.772  0.00  0.00    +0.000 C 
ENDBRANCH  17  18
ENDBRANCH   9  17
TORSDOF 4
ENDMDL
MODEL 4
REMARK VINA RESULT:      -6.7      5.350      9.819
REMARK  Name = 
REMARK  5 active torsions:
REMARK  status: ('A' for Active; 'I' for Inactive)
REMARK    1  A    between atoms: C_1  and  C_2
REMARK    2  A    between atoms: C_4  and  C_5
REMARK    3  A    between atoms: C_5  and  N_6
REMARK    4  A    between atoms: N_14  and  C_15
REMARK    5  A    between atoms: C_15  and  C_16
REMARK                            x       y       z     vdW  Elec       q    Type
REMARK                         _______ _______ _______ _____ _____    ______ ____
ROOT
ATOM      1  N   UNL     1       5.767   5.442  16.421  0.00  0.00    +0.000 N 
ATOM      2  C   UNL     1       6.208   6.668  16.935  0.00  0.00    +0.000 C 
ATOM      3  O   UNL     1       7.341   7.117  16.868  0.00  0.00    +0.000 OA
ATOM      4  C   UNL     1       5.019   7.337  17.634  0.00  0.00    +0.000 C 
ATOM      5  C   UNL     1       4.255   6.079  18.029  0.00  0.00    +0.000 C 
ATOM      6  C   UNL     1       4.386   5.285  16.743  0.00  0.00    +0.000 C 
ATOM      7  C   UNL     1       3.745   3.984  17.136  0.00  0.00    +0.000 C 
ATOM      8  C   UNL     1       2.567   4.486  17.978  0.00  0.00    +0.000 C 
ATOM      9  N   UNL     1       2.823   5.926  18.290  0.00  0.00    +0.000 NA
ENDROOT
BRANCH   1  10
ATOM     10  C   UNL     1       6.642   4.385  15.973  0.00  0.00    +0.000 C 
BRANCH  10  14
ATOM     11  C   UNL     1       5.256   2.645  11.527  0.00  0.00    +0.000 C 
ATOM     12  C   UNL     1       6.013   3.439  12.535  0.00  0.00    +0.000 A 
ATOM     13  N   UNL     1       5.812   3.395  13.838  0.00  0.00    +0.000 NA
ATOM     14  C   UNL     1       6.686   4.268  14.483  0.00  0.00    +0.000 A 
ATOM     15  C   UNL     1       7.540   4.953  13.640  0.00  0.00    +0.000 A 
ATOM     16  S   UNL     1       7.232   4.533  12.013  0.00  0.00    +0.000 S 
ENDBRANCH  10  14
ENDBRANCH   1  10
BRANCH   9  17
ATOM     17  C   UNL     1       2.441   6.251  19.670  0.00  0.00    +0.000 C 
BRANCH  17  18
ATOM     18  C   UNL     1       2.130   7.754  19.868  0.00  0.00    +0.000 C 
ATOM     19  C   UNL     1       1.146   8.001  21.019  0.00  0.00    +0.000 C 
ATOM     20  C   UNL     1       0.742   9.468  21.087  0.00  0.00    +0.000 C 
ATOM     21  O   UNL     1       0.223   9.913  19.834  0.00  0.00    +0.000 OA
ATOM     22  C   UNL     1       1.193   9.824  18.794  0.00  0.00    +0.000 C 
ATOM     23  C   UNL     1       1.605   8.375  18.568  0.00  0.00    +0.000 C 
ENDBRANCH  17  18
ENDBRANCH   9  17
TORSDOF 4
ENDMDL
MODEL 5
REMARK VINA RESULT:      -6.6      1.109      1.159
REMARK  Name = 
REMARK  5 active torsions:
REMARK  status: ('A' for Active; 'I' for Inactive)
REMARK    1  A    between atoms: C_1  and  C_2
REMARK    2  A    between atoms: C_4  and  C_5
REMARK    3  A    between atoms: C_5  and  N_6
REMARK    4  A    between atoms: N_14  and  C_15
REMARK    5  A    between atoms: C_15  and  C_16
REMARK                            x       y       z     vdW  Elec       q    Type
REMARK                         _______ _______ _______ _____ _____    ______ ____
ROOT
ATOM      1  N   UNL     1       0.707  10.416  20.913  0.00  0.00    +0.000 N 
ATOM      2  C   UNL     1       0.875   9.480  21.940  0.00  0.00    +0.000 C 
ATOM      3  O   UNL     1       0.879   9.712  23.139  0.00  0.00    +0.000 OA
ATOM      4  C   UNL     1       1.089   8.108  21.293  0.00  0.00    +0.000 C 
ATOM      5  C   UNL     1       1.717   8.574  19.984  0.00  0.00    +0.000 C 
ATOM      6  C   UNL     1       0.800   9.739  19.661  0.00  0.00    +0.000 C 
ATOM      7  C   UNL     1       1.462  10.300  18.434  0.00  0.00    +0.000 C 
ATOM      8  C   UNL     1       1.864   9.012  17.709  0.00  0.00    +0.000 C 
ATOM      9  N   UNL     1       1.741   7.890  18.691  0.00  0.00    +0.000 NA
ENDROOT
BRANCH   1  10
ATOM     10  C   UNL     1       0.791  11.846  21.093  0.00  0.00    +0.000 C 
BRANCH  10  14
ATOM     11  C   UNL     1      -1.543  14.704  24.425  0.00  0.00    +0.000 C 
ATOM     12  C   UNL     1      -1.362  13.709  23.330  0.00  0.00    +0.000 A 
ATOM     13  N   UNL     1      -0.199  13.346  22.824  0.00  0.00    +0.000 NA
ATOM     14  C   UNL     1      -0.393  12.406  21.813  0.00  0.00    +0.000 A 
ATOM     15  C   UNL     1      -1.715  12.076  21.583  0.00  0.00    +0.000 A 
ATOM     16  S   UNL     1      -2.740  12.971  22.616  0.00  0.00    +0.000 S 
ENDBRANCH  10  14
ENDBRANCH   1  10
BRANCH   9  17
ATOM     17  C   UNL     1       2.849   6.936  18.554  0.00  0.00    +0.000 C 
BRANCH  17  18
ATOM     18  C   UNL     1       2.471   5.508  19.018  0.00  0.00    +0.000 C 
ATOM     19  C   UNL     1       3.669   4.745  19.598  0.00  0.00    +0.000 C 
ATOM     20  C   UNL     1       3.300   3.297  19.899  0.00  0.00    +0.000 C 
ATOM     21  O   UNL     1       2.766   2.656  18.741  0.00  0.00    +0.000 OA
ATOM     22  C   UNL     1       1.564   3.278  18.294  0.00  0.00    +0.000 C 
ATOM     23  C   UNL     1       1.832   4.717  17.870  0.00  0.00    +0.000 C 
ENDBRANCH  17  18
ENDBRANCH   9  17
TORSDOF 4
ENDMDL
MODEL 6
REMARK VINA RESULT:      -6.6      1.314      1.597
REMARK  Name = 
REMARK  5 active torsions:
REMARK  status: ('A' for Active; 'I' for Inactive)
REMARK    1  A    between atoms: C_1  and  C_2
REMARK    2  A    between atoms: C_4  and  C_5
REMARK    3  A    between atoms: C_5  and  N_6
REMARK    4  A    between atoms: N_14  and  C_15
REMARK    5  A    between atoms: C_15  and  C_16
REMARK                            x       y       z     vdW  Elec       q    Type
REMARK                         _______ _______ _______ _____ _____    ______ ____
ROOT
ATOM      1  N   UNL     1       0.916  10.197  20.612  0.00  0.00    +0.000 N 
ATOM      2  C   UNL     1       0.966   9.345  21.722  0.00  0.00    +0.000 C 
ATOM      3  O   UNL     1       0.917   9.679  22.895  0.00  0.00    +0.000 OA
ATOM      4  C   UNL     1       1.131   7.912  21.206  0.00  0.00    +0.000 C 
ATOM      5  C   UNL     1       1.860   8.226  19.904  0.00  0.00    +0.000 C 
ATOM      6  C   UNL     1       1.037   9.409  19.429  0.00  0.00    +0.000 C 
ATOM      7  C   UNL     1       1.802   9.823  18.203  0.00  0.00    +0.000 C 
ATOM      8  C   UNL     1       2.164   8.455  17.614  0.00  0.00    +0.000 C 
ATOM      9  N   UNL     1       1.916   7.432  18.676  0.00  0.00    +0.000 NA
ENDROOT
BRANCH   1  10
ATOM     10  C   UNL     1       1.078  11.630  20.677  0.00  0.00    +0.000 C 
BRANCH  10  14
ATOM     11  C   UNL     1      -1.577  14.367  23.867  0.00  0.00    +0.000 C 
ATOM     12  C   UNL     1      -1.265  13.551  22.660  0.00  0.00    +0.000 A 
ATOM     13  N   UNL     1      -0.089  13.014  22.394  0.00  0.00    +0.000 NA
ATOM     14  C   UNL     1      -0.145  12.325  21.183  0.00  0.00    +0.000 A 
ATOM     15  C   UNL     1      -1.378  12.355  20.562  0.00  0.00    +0.000 A 
ATOM     16  S   UNL     1      -2.483  13.282  21.478  0.00  0.00    +0.000 S 
ENDBRANCH  10  14
ENDBRANCH   1  10
BRANCH   9  17
ATOM     17  C   UNL     1       2.968   6.408  18.689  0.00  0.00    +0.000 C 
BRANCH  17  18
ATOM     18  C   UNL     1       2.432   4.993  18.359  0.00  0.00    +0.000 C 
ATOM     19  C   UNL     1       1.625   4.389  19.515  0.00  0.00    +0.000 C 
ATOM     20  C   UNL     1       1.247   2.943  19.219  0.00  0.00    +0.000 C 
ATOM     21  O   UNL     1       2.403   2.166  18.910  0.00  0.00    +0.000 OA
ATOM     22  C   UNL     1       3.067   2.641  17.741  0.00  0.00    +0.000 C 
ATOM     23  C   UNL     1       3.580   4.059  17.956  0.00  0.00    +0.000 C 
ENDBRANCH  17  18
ENDBRANCH   9  17
TORSDOF 4
ENDMDL
MODEL 7
REMARK VINA RESULT:      -6.6      2.985      4.238
REMARK  Name = 
REMARK  5 active torsions:
REMARK  status: ('A' for Active; 'I' for Inactive)
REMARK    1  A    between atoms: C_1  and  C_2
REMARK    2  A    between atoms: C_4  and  C_5
REMARK    3  A    between atoms: C_5  and  N_6
REMARK    4  A    between atoms: N_14  and  C_15
REMARK    5  A    between atoms: C_15  and  C_16
REMARK                            x       y       z     vdW  Elec       q    Type
REMARK                         _______ _______ _______ _____ _____    ______ ____
ROOT
ATOM      1  N   UNL     1       1.747   8.365  19.347  0.00  0.00    +0.000 N 
ATOM      2  C   UNL     1       2.212   8.718  18.075  0.00  0.00    +0.000 C 
ATOM      3  O   UNL     1       1.828   9.658  17.397  0.00  0.00    +0.000 OA
ATOM      4  C   UNL     1       3.270   7.689  17.661  0.00  0.00    +0.000 C 
ATOM      5  C   UNL     1       2.747   6.499  18.456  0.00  0.00    +0.000 C 
ATOM      6  C   UNL     1       2.431   7.188  19.770  0.00  0.00    +0.000 C 
ATOM      7  C   UNL     1       1.799   6.065  20.544  0.00  0.00    +0.000 C 
ATOM      8  C   UNL     1       2.693   4.891  20.130  0.00  0.00    +0.000 C 
ATOM      9  N   UNL     1       3.484   5.331  18.940  0.00  0.00    +0.000 NA
ENDROOT
BRANCH   1  10
ATOM     10  C   UNL     1       0.543   8.889  19.948  0.00  0.00    +0.000 C 
BRANCH  10  14
ATOM     11  C   UNL     1       1.961  13.565  20.864  0.00  0.00    +0.000 C 
ATOM     12  C   UNL     1       1.152  12.439  20.319  0.00  0.00    +0.000 A 
ATOM     13  N   UNL     1       1.405  11.159  20.519  0.00  0.00    +0.000 NA
ATOM     14  C   UNL     1       0.457  10.378  19.860  0.00  0.00    +0.000 A 
ATOM     15  C   UNL     1      -0.503  11.098  19.176  0.00  0.00    +0.000 A 
ATOM     16  S   UNL     1      -0.208  12.774  19.323  0.00  0.00    +0.000 S 
ENDBRANCH  10  14
ENDBRANCH   1  10
BRANCH   9  17
ATOM     17  C   UNL     1       3.597   4.257  17.945  0.00  0.00    +0.000 C 
BRANCH  17  18
ATOM     18  C   UNL     1       5.047   4.055  17.441  0.00  0.00    +0.000 C 
ATOM     19  C   UNL     1       6.079   4.751  18.338  0.00  0.00    +0.000 C 
ATOM     20  C   UNL     1       7.474   4.664  17.732  0.00  0.00    +0.000 C 
ATOM     21  O   UNL     1       7.485   5.181  16.401  0.00  0.00    +0.000 OA
ATOM     22  C   UNL     1       6.637   4.434  15.533  0.00  0.00    +0.000 C 
ATOM     23  C   UNL     1       5.187   4.528  15.990  0.00  0.00    +0.000 C 
ENDBRANCH  17  18
ENDBRANCH   9  17
TORSDOF 4
ENDMDL
MODEL 8
REMARK VINA RESULT:      -6.5      2.466      3.541
REMARK  Name = 
REMARK  5 active torsions:
REMARK  status: ('A' for Active; 'I' for Inactive)
REMARK    1  A    between atoms: C_1  and  C_2
REMARK    2  A    between atoms: C_4  and  C_5
REMARK    3  A    between atoms: C_5  and  N_6
REMARK    4  A    between atoms: N_14  and  C_15
REMARK    5  A    between atoms: C_15  and  C_16
REMARK                            x       y       z     vdW  Elec       q    Type
REMARK                         _______ _______ _______ _____ _____    ______ ____
ROOT
ATOM      1  N   UNL     1       1.170   8.978  19.799  0.00  0.00    +0.000 N 
ATOM      2  C   UNL     1       1.012   8.324  21.027  0.00  0.00    +0.000 C 
ATOM      3  O   UNL     1       0.615   8.822  22.068  0.00  0.00    +0.000 OA
ATOM      4  C   UNL     1       1.463   6.871  20.845  0.00  0.00    +0.000 C 
ATOM      5  C   UNL     1       2.476   7.089  19.727  0.00  0.00    +0.000 C 
ATOM      6  C   UNL     1       1.688   8.046  18.851  0.00  0.00    +0.000 C 
ATOM      7  C   UNL     1       2.704   8.379  17.795  0.00  0.00    +0.000 C 
ATOM      8  C   UNL     1       3.356   7.009  17.580  0.00  0.00    +0.000 C 
ATOM      9  N   UNL     1       2.944   6.135  18.721  0.00  0.00    +0.000 NA
ENDROOT
BRANCH   1  10
ATOM     10  C   UNL     1       1.153  10.411  19.631  0.00  0.00    +0.000 C 
BRANCH  10  14
ATOM     11  C   UNL     1      -3.250  10.670  17.338  0.00  0.00    +0.000 C 
ATOM     12  C   UNL     1      -2.162  11.002  18.301  0.00  0.00    +0.000 A 
ATOM     13  N   UNL     1      -0.993  10.392  18.360  0.00  0.00    +0.000 NA
ATOM     14  C   UNL     1      -0.219  10.946  19.378  0.00  0.00    +0.000 A 
ATOM     15  C   UNL     1      -0.829  11.977  20.066  0.00  0.00    +0.000 A 
ATOM     16  S   UNL     1      -2.405  12.245  19.463  0.00  0.00    +0.000 S 
ENDBRANCH  10  14
ENDBRANCH   1  10
BRANCH   9  17
ATOM     17  C   UNL     1       4.058   5.297  19.183  0.00  0.00    +0.000 C 
BRANCH  17  18
ATOM     18  C   UNL     1       5.334   5.468  18.323  0.00  0.00    +0.000 C 
ATOM     19  C   UNL     1       5.485   4.359  17.274  0.00  0.00    +0.000 C 
ATOM     20  C   UNL     1       6.822   4.469  16.552  0.00  0.00    +0.000 C 
ATOM     21  O   UNL     1       7.904   4.476  17.483  0.00  0.00    +0.000 OA
ATOM     22  C   UNL     1       7.844   5.596  18.362  0.00  0.00    +0.000 C 
ATOM     23  C   UNL     1       6.581   5.541  19.213  0.00  0.00    +0.000 C 
ENDBRANCH  17  18
ENDBRANCH   9  17
TORSDOF 4
ENDMDL
MODEL 9
REMARK VINA RESULT:      -6.5      1.962      2.852
REMARK  Name = 
REMARK  5 active torsions:
REMARK  status: ('A' for Active; 'I' for Inactive)
REMARK    1  A    between atoms: C_1  and  C_2
REMARK    2  A    between atoms: C_4  and  C_5
REMARK    3  A    between atoms: C_5  and  N_6
REMARK    4  A    between atoms: N_14  and  C_15
REMARK    5  A    between atoms: C_15  and  C_16
REMARK                            x       y       z     vdW  Elec       q    Type
REMARK                         _______ _______ _______ _____ _____    ______ ____
ROOT
ATOM      1  N   UNL     1       0.975   9.288  20.006  0.00  0.00    +0.000 N 
ATOM      2  C   UNL     1       0.932   8.515  21.172  0.00  0.00    +0.000 C 
ATOM      3  O   UNL     1       0.587   8.893  22.280  0.00  0.00    +0.000 OA
ATOM      4  C   UNL     1       1.431   7.109  20.821  0.00  0.00    +0.000 C 
ATOM      5  C   UNL     1       2.352   7.482  19.665  0.00  0.00    +0.000 C 
ATOM      6  C   UNL     1       1.465   8.476  18.940  0.00  0.00    +0.000 C 
ATOM      7  C   UNL     1       2.389   8.957  17.857  0.00  0.00    +0.000 C 
ATOM      8  C   UNL     1       3.082   7.647  17.467  0.00  0.00    +0.000 C 
ATOM      9  N   UNL     1       2.789   6.650  18.543  0.00  0.00    +0.000 NA
ENDROOT
BRANCH   1  10
ATOM     10  C   UNL     1       0.885  10.729  19.979  0.00  0.00    +0.000 C 
BRANCH  10  14
ATOM     11  C   UNL     1      -3.201  11.186  17.186  0.00  0.00    +0.000 C 
ATOM     12  C   UNL     1      -2.278  11.373  18.340  0.00  0.00    +0.000 A 
ATOM     13  N   UNL     1      -1.074  10.842  18.440  0.00  0.00    +0.000 NA
ATOM     14  C   UNL     1      -0.489  11.214  19.648  0.00  0.00    +0.000 A 
ATOM     15  C   UNL     1      -1.274  12.032  20.438  0.00  0.00    +0.000 A 
ATOM     16  S   UNL     1      -2.780  12.320  19.684  0.00  0.00    +0.000 S 
ENDBRANCH  10  14
ENDBRANCH   1  10
BRANCH   9  17
ATOM     17  C   UNL     1       3.968   5.829  18.847  0.00  0.00    +0.000 C 
BRANCH  17  18
ATOM     18  C   UNL     1       3.786   4.345  18.445  0.00  0.00    +0.000 C 
ATOM     19  C   UNL     1       2.349   4.030  18.008  0.00  0.00    +0.000 C 
ATOM     20  C   UNL     1       2.167   2.536  17.768  0.00  0.00    +0.000 C 
ATOM     21  O   UNL     1       2.554   1.785  18.918  0.00  0.00    +0.000 OA
ATOM     22  C   UNL     1       3.933   1.963  19.232  0.00  0.00    +0.000 C 
ATOM     23  C   UNL     1       4.218   3.417  19.586  0.00  0.00    +0.000 C 
ENDBRANCH  17  18
ENDBRANCH   9  17
TORSDOF 4
ENDMDL
