MODEL 1
REMARK VINA RESULT:      -8.5      0.000      0.000
REMARK  Name = 
REMARK  11 active torsions:
REMARK  status: ('A' for Active; 'I' for Inactive)
REMARK    1  A    between atoms: C_1  and  O_2
REMARK    2  A    between atoms: O_2  and  C_3
REMARK    3  A    between atoms: C_8  and  C_9
REMARK    4  A    between atoms: N_11  and  C_12
REMARK    5  A    between atoms: N_20  and  C_21
REMARK    6  A    between atoms: C_23  and  C_24
REMARK    7  A    between atoms: C_24  and  O_25
REMARK    8  A    between atoms: O_25  and  S_26
REMARK    9  A    between atoms: S_26  and  N_27
REMARK   10  A    between atoms: C_30  and  O_31
REMARK   11  A    between atoms: C_32  and  O_33
REMARK                            x       y       z     vdW  Elec       q    Type
REMARK                         _______ _______ _______ _____ _____    ______ ____
ROOT
ATOM      1  C   UNL     1       1.600   9.134  19.388  0.00  0.00    +0.000 A 
ATOM      2  N   UNL     1       2.169   9.405  18.188  0.00  0.00    +0.000 NA
ATOM      3  C   UNL     1       2.820   8.429  17.533  0.00  0.00    +0.000 A 
ATOM      4  N   UNL     1       2.961   7.144  17.905  0.00  0.00    +0.000 NA
ATOM      5  C   UNL     1       2.408   6.923  19.107  0.00  0.00    +0.000 A 
ATOM      6  C   UNL     1       1.746   7.840  19.911  0.00  0.00    +0.000 A 
ATOM      7  N   UNL     1       1.328   7.247  21.086  0.00  0.00    +0.000 NA
ATOM      8  C   UNL     1       1.697   5.986  20.973  0.00  0.00    +0.000 A 
ATOM      9  N   UNL     1       2.306   5.732  19.771  0.00  0.00    +0.000 N 
ENDROOT
BRANCH   9  10
ATOM     10  C   UNL     1       2.593   4.413  19.244  0.00  0.00    +0.000 C 
ATOM     11  O   UNL     1       3.991   4.102  19.404  0.00  0.00    +0.000 OA
ATOM     12  C   UNL     1       4.473   3.483  18.182  0.00  0.00    +0.000 C 
ATOM     13  C   UNL     1       3.235   3.169  17.340  0.00  0.00    +0.000 C 
ATOM     14  C   UNL     1       2.234   4.229  17.769  0.00  0.00    +0.000 C 
BRANCH  13  15
ATOM     15  O   UNL     1       2.679   1.882  17.668  0.00  0.00    +0.000 OA
ATOM     16  H   UNL     1       2.035   1.985  18.393  0.00  0.00    +0.000 HD
ENDBRANCH  13  15
BRANCH  14  17
ATOM     17  O   UNL     1       0.886   3.792  17.590  0.00  0.00    +0.000 OA
ATOM     18  H   UNL     1       0.662   3.963  16.652  0.00  0.00    +0.000 HD
ENDBRANCH  14  17
BRANCH  12  19
ATOM     19  C   UNL     1       5.462   4.416  17.479  0.00  0.00    +0.000 C 
BRANCH  19  20
ATOM     20  O   UNL     1       5.929   5.383  18.414  0.00  0.00    +0.000 OA
BRANCH  20  21
ATOM     21  S   UNL     1       7.534   5.557  18.553  0.00  0.00    +0.000 S 
ATOM     22  O   UNL     1       8.151   4.401  17.950  0.00  0.00    +0.000 OA
ATOM     23  O   UNL     1       7.881   6.909  18.188  0.00  0.00    +0.000 OA
BRANCH  21  24
ATOM     24  N   UNL     1       7.761   5.420  20.201  0.00  0.00    +0.000 NA
ATOM     25  H   UNL     1       8.597   4.882  20.418  0.00  0.00    +0.000 HD
ATOM     26  H   UNL     1       6.913   5.098  20.663  0.00  0.00    +0.000 HD
ENDBRANCH  21  24
ENDBRANCH  20  21
ENDBRANCH  19  20
ENDBRANCH  12  19
ENDBRANCH   9  10
BRANCH   1  29
ATOM     27  C   UNL     1      -0.436  10.457  19.780  0.00  0.00    +0.000 C 
ATOM     28  O   UNL     1      -1.082  10.004  18.838  0.00  0.00    +0.000 OA
ATOM     29  N   UNL     1       0.853  10.088  20.095  0.00  0.00    +0.000 N 
ATOM     30  H   UNL     1       1.296  10.489  20.918  0.00  0.00    +0.000 HD
BRANCH  27  36
ATOM     31  C   UNL     1      -0.860  11.707  22.015  0.00  0.00    +0.000 A 
ATOM     32  C   UNL     1      -1.576  12.720  22.682  0.00  0.00    +0.000 A 
ATOM     33  C   UNL     1      -2.503  13.519  22.006  0.00  0.00    +0.000 A 
ATOM     34  C   UNL     1      -2.737  13.314  20.657  0.00  0.00    +0.000 A 
ATOM     35  C   UNL     1      -2.050  12.304  19.987  0.00  0.00    +0.000 A 
ATOM     36  C   UNL     1      -1.106  11.488  20.646  0.00  0.00    +0.000 A 
BRANCH  31  38
ATOM     37  C   UNL     1      -0.473   9.759  23.332  0.00  0.00    +0.000 C 
ATOM     38  O   UNL     1       0.051  10.903  22.656  0.00  0.00    +0.000 OA
ENDBRANCH  31  38
ENDBRANCH  27  36
ENDBRANCH   1  29
TORSDOF 10
ENDMDL
MODEL 2
REMARK VINA RESULT:      -8.2      1.610      2.258
REMARK  Name = 
REMARK  11 active torsions:
REMARK  status: ('A' for Active; 'I' for Inactive)
REMARK    1  A    between atoms: C_1  and  O_2
REMARK    2  A    between atoms: O_2  and  C_3
REMARK    3  A    between atoms: C_8  and  C_9
REMARK    4  A    between atoms: N_11  and  C_12
REMARK    5  A    between atoms: N_20  and  C_21
REMARK    6  A    between atoms: C_23  and  C_24
REMARK    7  A    between atoms: C_24  and  O_25
REMARK    8  A    between atoms: O_25  and  S_26
REMARK    9  A    between atoms: S_26  and  N_27
REMARK   10  A    between atoms: C_30  and  O_31
REMARK   11  A    between atoms: C_32  and  O_33
REMARK                            x       y       z     vdW  Elec       q    Type
REMARK                         _______ _______ _______ _____ _____    ______ ____
ROOT
ATOM      1  C   UNL     1       1.707   8.434  19.238  0.00  0.00    +0.000 A 
ATOM      2  N   UNL     1       2.464   8.774  18.166  0.00  0.00    +0.000 NA
ATOM      3  C   UNL     1       3.350   7.888  17.680  0.00  0.00    +0.000 A 
ATOM      4  N   UNL     1       3.574   6.632  18.107  0.00  0.00    +0.000 NA
ATOM      5  C   UNL     1       2.825   6.345  19.183  0.00  0.00    +0.000 A 
ATOM      6  C   UNL     1       1.908   7.171  19.815  0.00  0.00    +0.000 A 
ATOM      7  N   UNL     1       1.342   6.531  20.901  0.00  0.00    +0.000 NA
ATOM      8  C   UNL     1       1.882   5.329  20.898  0.00  0.00    +0.000 A 
ATOM      9  N   UNL     1       2.744   5.152  19.846  0.00  0.00    +0.000 N 
ENDROOT
BRANCH   9  10
ATOM     10  C   UNL     1       3.293   3.879  19.422  0.00  0.00    +0.000 C 
ATOM     11  O   UNL     1       4.581   4.070  18.803  0.00  0.00    +0.000 OA
ATOM     12  C   UNL     1       4.652   3.240  17.614  0.00  0.00    +0.000 C 
ATOM     13  C   UNL     1       3.443   2.306  17.666  0.00  0.00    +0.000 C 
ATOM     14  C   UNL     1       2.410   3.103  18.445  0.00  0.00    +0.000 C 
BRANCH  13  15
ATOM     15  O   UNL     1       3.726   1.106  18.412  0.00  0.00    +0.000 OA
ATOM     16  H   UNL     1       2.889   0.727  18.739  0.00  0.00    +0.000 HD
ENDBRANCH  13  15
BRANCH  14  17
ATOM     17  O   UNL     1       1.478   2.255  19.117  0.00  0.00    +0.000 OA
ATOM     18  H   UNL     1       0.957   1.808  18.417  0.00  0.00    +0.000 HD
ENDBRANCH  14  17
BRANCH  12  19
ATOM     19  C   UNL     1       4.683   4.122  16.363  0.00  0.00    +0.000 C 
BRANCH  19  20
ATOM     20  O   UNL     1       5.885   3.864  15.645  0.00  0.00    +0.000 OA
BRANCH  20  21
ATOM     21  S   UNL     1       7.096   4.924  15.834  0.00  0.00    +0.000 S 
ATOM     22  O   UNL     1       7.937   4.440  16.901  0.00  0.00    +0.000 OA
ATOM     23  O   UNL     1       7.608   5.271  14.531  0.00  0.00    +0.000 OA
BRANCH  21  24
ATOM     24  N   UNL     1       6.299   6.268  16.422  0.00  0.00    +0.000 NA
ATOM     25  H   UNL     1       6.315   6.295  17.438  0.00  0.00    +0.000 HD
ATOM     26  H   UNL     1       5.375   6.358  16.005  0.00  0.00    +0.000 HD
ENDBRANCH  21  24
ENDBRANCH  20  21
ENDBRANCH  19  20
ENDBRANCH  12  19
ENDBRANCH   9  10
BRANCH   1  29
ATOM     27  C   UNL     1       0.784   9.888  20.995  0.00  0.00    +0.000 C 
ATOM     28  O   UNL     1       1.705   9.743  21.795  0.00  0.00    +0.000 OA
ATOM     29  N   UNL     1       0.720   9.286  19.757  0.00  0.00    +0.000 N 
ATOM     30  H   UNL     1      -0.063   9.495  19.145  0.00  0.00    +0.000 HD
BRANCH  27  36
ATOM     31  C   UNL     1      -1.063  11.658  20.553  0.00  0.00    +0.000 A 
ATOM     32  C   UNL     1      -2.105  12.433  21.096  0.00  0.00    +0.000 A 
ATOM     33  C   UNL     1      -2.456  12.337  22.446  0.00  0.00    +0.000 A 
ATOM     34  C   UNL     1      -1.766  11.472  23.278  0.00  0.00    +0.000 A 
ATOM     35  C   UNL     1      -0.720  10.710  22.761  0.00  0.00    +0.000 A 
ATOM     36  C   UNL     1      -0.350  10.787  21.401  0.00  0.00    +0.000 A 
BRANCH  31  38
ATOM     37  C   UNL     1      -1.730  12.029  18.296  0.00  0.00    +0.000 C 
ATOM     38  O   UNL     1      -0.692  11.738  19.233  0.00  0.00    +0.000 OA
ENDBRANCH  31  38
ENDBRANCH  27  36
ENDBRANCH   1  29
TORSDOF 10
ENDMDL
MODEL 3
REMARK VINA RESULT:      -8.2      1.799      2.432
REMARK  Name = 
REMARK  11 active torsions:
REMARK  status: ('A' for Active; 'I' for Inactive)
REMARK    1  A    between atoms: C_1  and  O_2
REMARK    2  A    between atoms: O_2  and  C_3
REMARK    3  A    between atoms: C_8  and  C_9
REMARK    4  A    between atoms: N_11  and  C_12
REMARK    5  A    between atoms: N_20  and  C_21
REMARK    6  A    between atoms: C_23  and  C_24
REMARK    7  A    between atoms: C_24  and  O_25
REMARK    8  A    between atoms: O_25  and  S_26
REMARK    9  A    between atoms: S_26  and  N_27
REMARK   10  A    between atoms: C_30  and  O_31
REMARK   11  A    between atoms: C_32  and  O_33
REMARK                            x       y       z     vdW  Elec       q    Type
REMARK                         _______ _______ _______ _____ _____    ______ ____
ROOT
ATOM      1  C   UNL     1       1.399   8.924  19.173  0.00  0.00    +0.000 A 
ATOM      2  N   UNL     1       2.095   9.327  18.080  0.00  0.00    +0.000 NA
ATOM      3  C   UNL     1       3.019   8.508  17.551  0.00  0.00    +0.000 A 
ATOM      4  N   UNL     1       3.340   7.264  17.951  0.00  0.00    +0.000 NA
ATOM      5  C   UNL     1       2.650   6.915  19.048  0.00  0.00    +0.000 A 
ATOM      6  C   UNL     1       1.703   7.670  19.723  0.00  0.00    +0.000 A 
ATOM      7  N   UNL     1       1.219   6.981  20.818  0.00  0.00    +0.000 NA
ATOM      8  C   UNL     1       1.836   5.817  20.779  0.00  0.00    +0.000 A 
ATOM      9  N   UNL     1       2.671   5.711  19.695  0.00  0.00    +0.000 N 
ENDROOT
BRANCH   9  10
ATOM     10  C   UNL     1       3.288   4.483  19.235  0.00  0.00    +0.000 C 
ATOM     11  O   UNL     1       4.713   4.528  19.445  0.00  0.00    +0.000 OA
ATOM     12  C   UNL     1       5.374   4.001  18.265  0.00  0.00    +0.000 C 
ATOM     13  C   UNL     1       4.281   3.365  17.405  0.00  0.00    +0.000 C 
ATOM     14  C   UNL     1       3.038   4.164  17.760  0.00  0.00    +0.000 C 
BRANCH  13  15
ATOM     15  O   UNL     1       4.041   1.993  17.774  0.00  0.00    +0.000 OA
ATOM     16  H   UNL     1       4.195   1.421  17.000  0.00  0.00    +0.000 HD
ENDBRANCH  13  15
BRANCH  14  17
ATOM     17  O   UNL     1       1.843   3.407  17.566  0.00  0.00    +0.000 OA
ATOM     18  H   UNL     1       1.837   2.716  18.261  0.00  0.00    +0.000 HD
ENDBRANCH  14  17
BRANCH  12  19
ATOM     19  C   UNL     1       6.133   5.120  17.548  0.00  0.00    +0.000 C 
BRANCH  19  20
ATOM     20  O   UNL     1       6.944   4.547  16.527  0.00  0.00    +0.000 OA
BRANCH  20  21
ATOM     21  S   UNL     1       6.679   5.049  15.009  0.00  0.00    +0.000 S 
ATOM     22  O   UNL     1       5.494   5.873  15.023  0.00  0.00    +0.000 OA
ATOM     23  O   UNL     1       7.932   5.492  14.448  0.00  0.00    +0.000 OA
BRANCH  21  24
ATOM     24  N   UNL     1       6.269   3.629  14.234  0.00  0.00    +0.000 NA
ATOM     25  H   UNL     1       7.094   3.123  13.924  0.00  0.00    +0.000 HD
ATOM     26  H   UNL     1       5.570   3.793  13.512  0.00  0.00    +0.000 HD
ENDBRANCH  21  24
ENDBRANCH  20  21
ENDBRANCH  19  20
ENDBRANCH  12  19
ENDBRANCH   9  10
BRANCH   1  29
ATOM     27  C   UNL     1       0.477  10.360  20.944  0.00  0.00    +0.000 C 
ATOM     28  O   UNL     1       1.466  10.337  21.673  0.00  0.00    +0.000 OA
ATOM     29  N   UNL     1       0.378   9.702  19.738  0.00  0.00    +0.000 N 
ATOM     30  H   UNL     1      -0.467   9.811  19.183  0.00  0.00    +0.000 HD
BRANCH  27  36
ATOM     31  C   UNL     1      -1.526  11.974  20.596  0.00  0.00    +0.000 A 
ATOM     32  C   UNL     1      -2.599  12.666  21.190  0.00  0.00    +0.000 A 
ATOM     33  C   UNL     1      -2.874  12.546  22.556  0.00  0.00    +0.000 A 
ATOM     34  C   UNL     1      -2.076  11.742  23.352  0.00  0.00    +0.000 A 
ATOM     35  C   UNL     1      -0.999  11.065  22.783  0.00  0.00    +0.000 A 
ATOM     36  C   UNL     1      -0.705  11.166  21.406  0.00  0.00    +0.000 A 
BRANCH  31  38
ATOM     37  C   UNL     1      -2.280  11.762  18.346  0.00  0.00    +0.000 C 
ATOM     38  O   UNL     1      -1.229  12.080  19.259  0.00  0.00    +0.000 OA
ENDBRANCH  31  38
ENDBRANCH  27  36
ENDBRANCH   1  29
TORSDOF 10
ENDMDL
MODEL 4
REMARK VINA RESULT:      -8.2      1.258      1.269
REMARK  Name = 
REMARK  11 active torsions:
REMARK  status: ('A' for Active; 'I' for Inactive)
REMARK    1  A    between atoms: C_1  and  O_2
REMARK    2  A    between atoms: O_2  and  C_3
REMARK    3  A    between atoms: C_8  and  C_9
REMARK    4  A    between atoms: N_11  and  C_12
REMARK    5  A    between atoms: N_20  and  C_21
REMARK    6  A    between atoms: C_23  and  C_24
REMARK    7  A    between atoms: C_24  and  O_25
REMARK    8  A    between atoms: O_25  and  S_26
REMARK    9  A    between atoms: S_26  and  N_27
REMARK   10  A    between atoms: C_30  and  O_31
REMARK   11  A    between atoms: C_32  and  O_33
REMARK                            x       y       z     vdW  Elec       q    Type
REMARK                         _______ _______ _______ _____ _____    ______ ____
ROOT
ATOM      1  C   UNL     1       1.712   8.832  19.290  0.00  0.00    +0.000 A 
ATOM      2  N   UNL     1       2.287   9.097  18.091  0.00  0.00    +0.000 NA
ATOM      3  C   UNL     1       2.975   8.128  17.464  0.00  0.00    +0.000 A 
ATOM      4  N   UNL     1       3.150   6.855  17.863  0.00  0.00    +0.000 NA
ATOM      5  C   UNL     1       2.589   6.642  19.063  0.00  0.00    +0.000 A 
ATOM      6  C   UNL     1       1.891   7.554  19.840  0.00  0.00    +0.000 A 
ATOM      7  N   UNL     1       1.476   6.971  21.022  0.00  0.00    +0.000 NA
ATOM      8  C   UNL     1       1.885   5.721  20.939  0.00  0.00    +0.000 A 
ATOM      9  N   UNL     1       2.515   5.461  19.749  0.00  0.00    +0.000 N 
ENDROOT
BRANCH   9  10
ATOM     10  C   UNL     1       2.849   4.141  19.252  0.00  0.00    +0.000 C 
ATOM     11  O   UNL     1       4.188   4.130  18.718  0.00  0.00    +0.000 OA
ATOM     12  C   UNL     1       4.184   3.387  17.470  0.00  0.00    +0.000 C 
ATOM     13  C   UNL     1       2.823   2.696  17.383  0.00  0.00    +0.000 C 
ATOM     14  C   UNL     1       1.904   3.616  18.170  0.00  0.00    +0.000 C 
BRANCH  13  15
ATOM     15  O   UNL     1       2.831   1.415  18.042  0.00  0.00    +0.000 OA
ATOM     16  H   UNL     1       2.841   0.708  17.370  0.00  0.00    +0.000 HD
ENDBRANCH  13  15
BRANCH  14  17
ATOM     17  O   UNL     1       0.790   2.913  18.721  0.00  0.00    +0.000 OA
ATOM     18  H   UNL     1       0.062   3.564  18.796  0.00  0.00    +0.000 HD
ENDBRANCH  14  17
BRANCH  12  19
ATOM     19  C   UNL     1       4.458   4.334  16.299  0.00  0.00    +0.000 C 
BRANCH  19  20
ATOM     20  O   UNL     1       5.734   4.026  15.745  0.00  0.00    +0.000 OA
BRANCH  20  21
ATOM     21  S   UNL     1       6.909   5.121  15.953  0.00  0.00    +0.000 S 
ATOM     22  O   UNL     1       7.691   5.158  14.740  0.00  0.00    +0.000 OA
ATOM     23  O   UNL     1       6.334   6.302  16.549  0.00  0.00    +0.000 OA
BRANCH  21  24
ATOM     24  N   UNL     1       7.863   4.399  17.118  0.00  0.00    +0.000 NA
ATOM     25  H   UNL     1       8.682   4.962  17.330  0.00  0.00    +0.000 HD
ATOM     26  H   UNL     1       8.059   3.428  16.881  0.00  0.00    +0.000 HD
ENDBRANCH  21  24
ENDBRANCH  20  21
ENDBRANCH  19  20
ENDBRANCH  12  19
ENDBRANCH   9  10
BRANCH   1  29
ATOM     27  C   UNL     1      -0.270  10.273  19.504  0.00  0.00    +0.000 C 
ATOM     28  O   UNL     1      -0.790   9.957  18.436  0.00  0.00    +0.000 OA
ATOM     29  N   UNL     1       0.927   9.777  19.969  0.00  0.00    +0.000 N 
ATOM     30  H   UNL     1       1.262  10.067  20.884  0.00  0.00    +0.000 HD
BRANCH  27  36
ATOM     31  C   UNL     1      -0.782  11.505  21.731  0.00  0.00    +0.000 A 
ATOM     32  C   UNL     1      -1.552  12.485  22.385  0.00  0.00    +0.000 A 
ATOM     33  C   UNL     1      -2.505  13.242  21.694  0.00  0.00    +0.000 A 
ATOM     34  C   UNL     1      -2.709  13.025  20.343  0.00  0.00    +0.000 A 
ATOM     35  C   UNL     1      -1.968  12.046  19.684  0.00  0.00    +0.000 A 
ATOM     36  C   UNL     1      -0.998  11.273  20.358  0.00  0.00    +0.000 A 
BRANCH  31  38
ATOM     37  C   UNL     1      -0.347   9.732  23.263  0.00  0.00    +0.000 C 
ATOM     38  O   UNL     1       0.154  10.742  22.386  0.00  0.00    +0.000 OA
ENDBRANCH  31  38
ENDBRANCH  27  36
ENDBRANCH   1  29
TORSDOF 10
ENDMDL
MODEL 5
REMARK VINA RESULT:      -8.0      3.004      4.301
REMARK  Name = 
REMARK  11 active torsions:
REMARK  status: ('A' for Active; 'I' for Inactive)
REMARK    1  A    between atoms: C_1  and  O_2
REMARK    2  A    between atoms: O_2  and  C_3
REMARK    3  A    between atoms: C_8  and  C_9
REMARK    4  A    between atoms: N_11  and  C_12
REMARK    5  A    between atoms: N_20  and  C_21
REMARK    6  A    between atoms: C_23  and  C_24
REMARK    7  A    between atoms: C_24  and  O_25
REMARK    8  A    between atoms: O_25  and  S_26
REMARK    9  A    between atoms: S_26  and  N_27
REMARK   10  A    between atoms: C_30  and  O_31
REMARK   11  A    between atoms: C_32  and  O_33
REMARK                            x       y       z     vdW  Elec       q    Type
REMARK                         _______ _______ _______ _____ _____    ______ ____
ROOT
ATOM      1  C   UNL     1       1.718   7.103  20.098  0.00  0.00    +0.000 A 
ATOM      2  N   UNL     1       1.763   5.997  20.883  0.00  0.00    +0.000 NA
ATOM      3  C   UNL     1       2.672   5.043  20.621  0.00  0.00    +0.000 A 
ATOM      4  N   UNL     1       3.617   5.049  19.663  0.00  0.00    +0.000 NA
ATOM      5  C   UNL     1       3.521   6.145  18.895  0.00  0.00    +0.000 A 
ATOM      6  C   UNL     1       2.611   7.184  19.020  0.00  0.00    +0.000 A 
ATOM      7  N   UNL     1       2.813   8.131  18.034  0.00  0.00    +0.000 NA
ATOM      8  C   UNL     1       3.850   7.687  17.353  0.00  0.00    +0.000 A 
ATOM      9  N   UNL     1       4.346   6.517  17.870  0.00  0.00    +0.000 N 
ENDROOT
BRANCH   9  10
ATOM     10  C   UNL     1       5.616   5.918  17.510  0.00  0.00    +0.000 C 
ATOM     11  O   UNL     1       5.999   6.317  16.179  0.00  0.00    +0.000 OA
ATOM     12  C   UNL     1       6.511   5.155  15.475  0.00  0.00    +0.000 C 
ATOM     13  C   UNL     1       6.686   4.057  16.525  0.00  0.00    +0.000 C 
ATOM     14  C   UNL     1       5.634   4.391  17.569  0.00  0.00    +0.000 C 
BRANCH  13  15
ATOM     15  O   UNL     1       7.975   4.127  17.163  0.00  0.00    +0.000 OA
ATOM     16  H   UNL     1       8.181   3.264  17.568  0.00  0.00    +0.000 HD
ENDBRANCH  13  15
BRANCH  14  17
ATOM     17  O   UNL     1       5.993   3.904  18.863  0.00  0.00    +0.000 OA
ATOM     18  H   UNL     1       5.247   4.124  19.458  0.00  0.00    +0.000 HD
ENDBRANCH  14  17
BRANCH  12  19
ATOM     19  C   UNL     1       5.554   4.766  14.346  0.00  0.00    +0.000 C 
BRANCH  19  20
ATOM     20  O   UNL     1       5.995   3.540  13.769  0.00  0.00    +0.000 OA
BRANCH  20  21
ATOM     21  S   UNL     1       6.011   3.453  12.151  0.00  0.00    +0.000 S 
ATOM     22  O   UNL     1       4.666   3.693  11.688  0.00  0.00    +0.000 OA
ATOM     23  O   UNL     1       7.150   4.193  11.664  0.00  0.00    +0.000 OA
BRANCH  21  24
ATOM     24  N   UNL     1       6.329   1.835  11.889  0.00  0.00    +0.000 NA
ATOM     25  H   UNL     1       6.413   1.629  10.897  0.00  0.00    +0.000 HD
ATOM     26  H   UNL     1       5.671   1.245  12.395  0.00  0.00    +0.000 HD
ENDBRANCH  21  24
ENDBRANCH  20  21
ENDBRANCH  19  20
ENDBRANCH  12  19
ENDBRANCH   9  10
BRANCH   1  29
ATOM     27  C   UNL     1       0.946   9.028  21.420  0.00  0.00    +0.000 C 
ATOM     28  O   UNL     1       1.820   8.966  22.282  0.00  0.00    +0.000 OA
ATOM     29  N   UNL     1       0.837   8.165  20.353  0.00  0.00    +0.000 N 
ATOM     30  H   UNL     1       0.103   8.316  19.667  0.00  0.00    +0.000 HD
BRANCH  27  36
ATOM     31  C   UNL     1      -0.573  10.918  20.494  0.00  0.00    +0.000 A 
ATOM     32  C   UNL     1      -1.531  11.908  20.783  0.00  0.00    +0.000 A 
ATOM     33  C   UNL     1      -2.007  12.101  22.084  0.00  0.00    +0.000 A 
ATOM     34  C   UNL     1      -1.527  11.315  23.118  0.00  0.00    +0.000 A 
ATOM     35  C   UNL     1      -0.565  10.343  22.851  0.00  0.00    +0.000 A 
ATOM     36  C   UNL     1      -0.073  10.126  21.546  0.00  0.00    +0.000 A 
BRANCH  31  38
ATOM     37  C   UNL     1      -1.042  10.400  18.216  0.00  0.00    +0.000 C 
ATOM     38  O   UNL     1      -0.083  10.712  19.227  0.00  0.00    +0.000 OA
ENDBRANCH  31  38
ENDBRANCH  27  36
ENDBRANCH   1  29
TORSDOF 10
ENDMDL
MODEL 6
REMARK VINA RESULT:      -8.0      1.632      1.865
REMARK  Name = 
REMARK  11 active torsions:
REMARK  status: ('A' for Active; 'I' for Inactive)
REMARK    1  A    between atoms: C_1  and  O_2
REMARK    2  A    between atoms: O_2  and  C_3
REMARK    3  A    between atoms: C_8  and  C_9
REMARK    4  A    between atoms: N_11  and  C_12
REMARK    5  A    between atoms: N_20  and  C_21
REMARK    6  A    between atoms: C_23  and  C_24
REMARK    7  A    between atoms: C_24  and  O_25
REMARK    8  A    between atoms: O_25  and  S_26
REMARK    9  A    between atoms: S_26  and  N_27
REMARK   10  A    between atoms: C_30  and  O_31
REMARK   11  A    between atoms: C_32  and  O_33
REMARK                            x       y       z     vdW  Elec       q    Type
REMARK                         _______ _______ _______ _____ _____    ______ ____
ROOT
ATOM      1  C   UNL     1       1.497   8.736  19.249  0.00  0.00    +0.000 A 
ATOM      2  N   UNL     1       2.141   9.117  18.119  0.00  0.00    +0.000 NA
ATOM      3  C   UNL     1       3.021   8.277  17.549  0.00  0.00    +0.000 A 
ATOM      4  N   UNL     1       3.339   7.030  17.942  0.00  0.00    +0.000 NA
ATOM      5  C   UNL     1       2.701   6.702  19.077  0.00  0.00    +0.000 A 
ATOM      6  C   UNL     1       1.805   7.481  19.794  0.00  0.00    +0.000 A 
ATOM      7  N   UNL     1       1.367   6.809  20.919  0.00  0.00    +0.000 NA
ATOM      8  C   UNL     1       1.959   5.633  20.857  0.00  0.00    +0.000 A 
ATOM      9  N   UNL     1       2.733   5.503  19.732  0.00  0.00    +0.000 N 
ENDROOT
BRANCH   9  10
ATOM     10  C   UNL     1       3.302   4.260  19.250  0.00  0.00    +0.000 C 
ATOM     11  O   UNL     1       4.732   4.259  19.432  0.00  0.00    +0.000 OA
ATOM     12  C   UNL     1       5.352   3.721  18.235  0.00  0.00    +0.000 C 
ATOM     13  C   UNL     1       4.222   3.126  17.393  0.00  0.00    +0.000 C 
ATOM     14  C   UNL     1       3.012   3.961  17.779  0.00  0.00    +0.000 C 
BRANCH  13  15
ATOM     15  O   UNL     1       3.947   1.760  17.757  0.00  0.00    +0.000 OA
ATOM     16  H   UNL     1       4.789   1.290  17.905  0.00  0.00    +0.000 HD
ENDBRANCH  13  15
BRANCH  14  17
ATOM     17  O   UNL     1       1.791   3.242  17.604  0.00  0.00    +0.000 OA
ATOM     18  H   UNL     1       1.688   3.102  16.640  0.00  0.00    +0.000 HD
ENDBRANCH  14  17
BRANCH  12  19
ATOM     19  C   UNL     1       6.131   4.821  17.510  0.00  0.00    +0.000 C 
BRANCH  19  20
ATOM     20  O   UNL     1       6.748   4.265  16.354  0.00  0.00    +0.000 OA
BRANCH  20  21
ATOM     21  S   UNL     1       6.446   4.992  14.937  0.00  0.00    +0.000 S 
ATOM     22  O   UNL     1       7.682   5.577  14.475  0.00  0.00    +0.000 OA
ATOM     23  O   UNL     1       5.651   4.102  14.126  0.00  0.00    +0.000 OA
BRANCH  21  24
ATOM     24  N   UNL     1       5.456   6.256  15.394  0.00  0.00    +0.000 NA
ATOM     25  H   UNL     1       4.988   6.670  14.592  0.00  0.00    +0.000 HD
ATOM     26  H   UNL     1       5.954   6.916  15.987  0.00  0.00    +0.000 HD
ENDBRANCH  21  24
ENDBRANCH  20  21
ENDBRANCH  19  20
ENDBRANCH  12  19
ENDBRANCH   9  10
BRANCH   1  29
ATOM     27  C   UNL     1       0.595  10.910  19.966  0.00  0.00    +0.000 C 
ATOM     28  O   UNL     1       1.526  11.593  19.547  0.00  0.00    +0.000 OA
ATOM     29  N   UNL     1       0.521   9.538  19.861  0.00  0.00    +0.000 N 
ATOM     30  H   UNL     1      -0.308   9.059  20.202  0.00  0.00    +0.000 HD
BRANCH  27  36
ATOM     31  C   UNL     1      -0.808  11.644  22.022  0.00  0.00    +0.000 A 
ATOM     32  C   UNL     1      -1.918  12.371  22.493  0.00  0.00    +0.000 A 
ATOM     33  C   UNL     1      -2.741  13.088  21.618  0.00  0.00    +0.000 A 
ATOM     34  C   UNL     1      -2.473  13.084  20.260  0.00  0.00    +0.000 A 
ATOM     35  C   UNL     1      -1.389  12.355  19.776  0.00  0.00    +0.000 A 
ATOM     36  C   UNL     1      -0.542  11.627  20.639  0.00  0.00    +0.000 A 
BRANCH  31  38
ATOM     37  C   UNL     1      -0.459   9.638  23.260  0.00  0.00    +0.000 C 
ATOM     38  O   UNL     1       0.012  10.925  22.858  0.00  0.00    +0.000 OA
ENDBRANCH  31  38
ENDBRANCH  27  36
ENDBRANCH   1  29
TORSDOF 10
ENDMDL
MODEL 7
REMARK VINA RESULT:      -7.9      1.351      1.438
REMARK  Name = 
REMARK  11 active torsions:
REMARK  status: ('A' for Active; 'I' for Inactive)
REMARK    1  A    between atoms: C_1  and  O_2
REMARK    2  A    between atoms: O_2  and  C_3
REMARK    3  A    between atoms: C_8  and  C_9
REMARK    4  A    between atoms: N_11  and  C_12
REMARK    5  A    between atoms: N_20  and  C_21
REMARK    6  A    between atoms: C_23  and  C_24
REMARK    7  A    between atoms: C_24  and  O_25
REMARK    8  A    between atoms: O_25  and  S_26
REMARK    9  A    between atoms: S_26  and  N_27
REMARK   10  A    between atoms: C_30  and  O_31
REMARK   11  A    between atoms: C_32  and  O_33
REMARK                            x       y       z     vdW  Elec       q    Type
REMARK                         _______ _______ _______ _____ _____    ______ ____
ROOT
ATOM      1  C   UNL     1       1.481   9.348  19.396  0.00  0.00    +0.000 A 
ATOM      2  N   UNL     1       2.035   9.633  18.192  0.00  0.00    +0.000 NA
ATOM      3  C   UNL     1       2.716   8.676  17.539  0.00  0.00    +0.000 A 
ATOM      4  N   UNL     1       2.901   7.398  17.915  0.00  0.00    +0.000 NA
ATOM      5  C   UNL     1       2.361   7.164  19.121  0.00  0.00    +0.000 A 
ATOM      6  C   UNL     1       1.673   8.062  19.924  0.00  0.00    +0.000 A 
ATOM      7  N   UNL     1       1.280   7.460  21.104  0.00  0.00    +0.000 NA
ATOM      8  C   UNL     1       1.691   6.213  20.995  0.00  0.00    +0.000 A 
ATOM      9  N   UNL     1       2.302   5.973  19.790  0.00  0.00    +0.000 N 
ENDROOT
BRANCH   9  10
ATOM     10  C   UNL     1       2.631   4.662  19.268  0.00  0.00    +0.000 C 
ATOM     11  O   UNL     1       3.954   4.273  19.687  0.00  0.00    +0.000 OA
ATOM     12  C   UNL     1       4.643   3.676  18.557  0.00  0.00    +0.000 C 
ATOM     13  C   UNL     1       3.587   3.461  17.472  0.00  0.00    +0.000 C 
ATOM     14  C   UNL     1       2.568   4.554  17.744  0.00  0.00    +0.000 C 
BRANCH  13  15
ATOM     15  O   UNL     1       2.920   2.192  17.620  0.00  0.00    +0.000 OA
ATOM     16  H   UNL     1       3.044   1.667  16.807  0.00  0.00    +0.000 HD
ENDBRANCH  13  15
BRANCH  14  17
ATOM     17  O   UNL     1       1.265   4.196  17.281  0.00  0.00    +0.000 OA
ATOM     18  H   UNL     1       1.231   4.441  16.333  0.00  0.00    +0.000 HD
ENDBRANCH  14  17
BRANCH  12  19
ATOM     19  C   UNL     1       5.793   4.582  18.110  0.00  0.00    +0.000 C 
BRANCH  19  20
ATOM     20  O   UNL     1       5.973   4.440  16.704  0.00  0.00    +0.000 OA
BRANCH  20  21
ATOM     21  S   UNL     1       6.488   5.745  15.893  0.00  0.00    +0.000 S 
ATOM     22  O   UNL     1       5.327   6.412  15.358  0.00  0.00    +0.000 OA
ATOM     23  O   UNL     1       7.478   6.421  16.695  0.00  0.00    +0.000 OA
BRANCH  21  24
ATOM     24  N   UNL     1       7.290   5.061  14.598  0.00  0.00    +0.000 NA
ATOM     25  H   UNL     1       7.117   5.577  13.739  0.00  0.00    +0.000 HD
ATOM     26  H   UNL     1       7.108   4.061  14.541  0.00  0.00    +0.000 HD
ENDBRANCH  21  24
ENDBRANCH  20  21
ENDBRANCH  19  20
ENDBRANCH  12  19
ENDBRANCH   9  10
BRANCH   1  29
ATOM     27  C   UNL     1      -0.607  10.579  19.812  0.00  0.00    +0.000 C 
ATOM     28  O   UNL     1      -1.253  10.075  18.896  0.00  0.00    +0.000 OA
ATOM     29  N   UNL     1       0.705  10.280  20.102  0.00  0.00    +0.000 N 
ATOM     30  H   UNL     1       1.148  10.719  20.905  0.00  0.00    +0.000 HD
BRANCH  27  36
ATOM     31  C   UNL     1      -1.054  11.838  22.038  0.00  0.00    +0.000 A 
ATOM     32  C   UNL     1      -1.799  12.831  22.701  0.00  0.00    +0.000 A 
ATOM     33  C   UNL     1      -2.763  13.588  22.026  0.00  0.00    +0.000 A 
ATOM     34  C   UNL     1      -3.003  13.359  20.683  0.00  0.00    +0.000 A 
ATOM     35  C   UNL     1      -2.287  12.367  20.016  0.00  0.00    +0.000 A 
ATOM     36  C   UNL     1      -1.306  11.594  20.674  0.00  0.00    +0.000 A 
BRANCH  31  38
ATOM     37  C   UNL     1      -0.568   9.872  23.294  0.00  0.00    +0.000 C 
ATOM     38  O   UNL     1      -0.107  11.075  22.678  0.00  0.00    +0.000 OA
ENDBRANCH  31  38
ENDBRANCH  27  36
ENDBRANCH   1  29
TORSDOF 10
ENDMDL
MODEL 8
REMARK VINA RESULT:      -7.8      1.561      1.809
REMARK  Name = 
REMARK  11 active torsions:
REMARK  status: ('A' for Active; 'I' for Inactive)
REMARK    1  A    between atoms: C_1  and  O_2
REMARK    2  A    between atoms: O_2  and  C_3
REMARK    3  A    between atoms: C_8  and  C_9
REMARK    4  A    between atoms: N_11  and  C_12
REMARK    5  A    between atoms: N_20  and  C_21
REMARK    6  A    between atoms: C_23  and  C_24
REMARK    7  A    between atoms: C_24  and  O_25
REMARK    8  A    between atoms: O_25  and  S_26
REMARK    9  A    between atoms: S_26  and  N_27
REMARK   10  A    between atoms: C_30  and  O_31
REMARK   11  A    between atoms: C_32  and  O_33
REMARK                            x       y       z     vdW  Elec       q    Type
REMARK                         _______ _______ _______ _____ _____    ______ ____
ROOT
ATOM      1  C   UNL     1       1.848   8.808  18.989  0.00  0.00    +0.000 A 
ATOM      2  N   UNL     1       2.495   8.959  17.807  0.00  0.00    +0.000 NA
ATOM      3  C   UNL     1       3.159   7.915  17.283  0.00  0.00    +0.000 A 
ATOM      4  N   UNL     1       3.244   6.666  17.775  0.00  0.00    +0.000 NA
ATOM      5  C   UNL     1       2.614   6.565  18.955  0.00  0.00    +0.000 A 
ATOM      6  C   UNL     1       1.930   7.564  19.632  0.00  0.00    +0.000 A 
ATOM      7  N   UNL     1       1.426   7.087  20.827  0.00  0.00    +0.000 NA
ATOM      8  C   UNL     1       1.769   5.814  20.849  0.00  0.00    +0.000 A 
ATOM      9  N   UNL     1       2.442   5.441  19.714  0.00  0.00    +0.000 N 
ENDROOT
BRANCH   9  10
ATOM     10  C   UNL     1       2.726   4.074  19.325  0.00  0.00    +0.000 C 
ATOM     11  O   UNL     1       4.130   3.915  19.040  0.00  0.00    +0.000 OA
ATOM     12  C   UNL     1       4.273   3.118  17.835  0.00  0.00    +0.000 C 
ATOM     13  C   UNL     1       2.887   2.551  17.525  0.00  0.00    +0.000 C 
ATOM     14  C   UNL     1       1.939   3.587  18.107  0.00  0.00    +0.000 C 
BRANCH  13  15
ATOM     15  O   UNL     1       2.653   1.307  18.213  0.00  0.00    +0.000 OA
ATOM     16  H   UNL     1       2.517   0.598  17.557  0.00  0.00    +0.000 HD
ENDBRANCH  13  15
BRANCH  14  17
ATOM     17  O   UNL     1       0.682   3.015  18.469  0.00  0.00    +0.000 OA
ATOM     18  H   UNL     1       0.759   2.750  19.410  0.00  0.00    +0.000 HD
ENDBRANCH  14  17
BRANCH  12  19
ATOM     19  C   UNL     1       4.840   3.980  16.704  0.00  0.00    +0.000 C 
BRANCH  19  20
ATOM     20  O   UNL     1       6.036   4.606  17.157  0.00  0.00    +0.000 OA
BRANCH  20  21
ATOM     21  S   UNL     1       6.813   5.558  16.100  0.00  0.00    +0.000 S 
ATOM     22  O   UNL     1       7.503   6.576  16.855  0.00  0.00    +0.000 OA
ATOM     23  O   UNL     1       7.476   4.719  15.131  0.00  0.00    +0.000 OA
BRANCH  21  24
ATOM     24  N   UNL     1       5.551   6.315  15.312  0.00  0.00    +0.000 NA
ATOM     25  H   UNL     1       5.778   7.280  15.088  0.00  0.00    +0.000 HD
ATOM     26  H   UNL     1       4.675   6.187  15.815  0.00  0.00    +0.000 HD
ENDBRANCH  21  24
ENDBRANCH  20  21
ENDBRANCH  19  20
ENDBRANCH  12  19
ENDBRANCH   9  10
BRANCH   1  29
ATOM     27  C   UNL     1      -0.048  10.375  18.992  0.00  0.00    +0.000 C 
ATOM     28  O   UNL     1      -0.519  10.027  17.911  0.00  0.00    +0.000 OA
ATOM     29  N   UNL     1       1.085   9.837  19.561  0.00  0.00    +0.000 N 
ATOM     30  H   UNL     1       1.380  10.161  20.478  0.00  0.00    +0.000 HD
BRANCH  27  36
ATOM     31  C   UNL     1      -0.194  12.321  20.703  0.00  0.00    +0.000 A 
ATOM     32  C   UNL     1      -1.006  13.298  21.311  0.00  0.00    +0.000 A 
ATOM     33  C   UNL     1      -2.351  13.446  20.959  0.00  0.00    +0.000 A 
ATOM     34  C   UNL     1      -2.909  12.616  20.002  0.00  0.00    +0.000 A 
ATOM     35  C   UNL     1      -2.124  11.632  19.404  0.00  0.00    +0.000 A 
ATOM     36  C   UNL     1      -0.763  11.466  19.739  0.00  0.00    +0.000 A 
BRANCH  31  38
ATOM     37  C   UNL     1       2.028  13.181  20.628  0.00  0.00    +0.000 C 
ATOM     38  O   UNL     1       1.128  12.149  21.035  0.00  0.00    +0.000 OA
ENDBRANCH  31  38
ENDBRANCH  27  36
ENDBRANCH   1  29
TORSDOF 10
ENDMDL
MODEL 9
REMARK VINA RESULT:      -7.8      1.542      2.183
REMARK  Name = 
REMARK  11 active torsions:
REMARK  status: ('A' for Active; 'I' for Inactive)
REMARK    1  A    between atoms: C_1  and  O_2
REMARK    2  A    between atoms: O_2  and  C_3
REMARK    3  A    between atoms: C_8  and  C_9
REMARK    4  A    between atoms: N_11  and  C_12
REMARK    5  A    between atoms: N_20  and  C_21
REMARK    6  A    between atoms: C_23  and  C_24
REMARK    7  A    between atoms: C_24  and  O_25
REMARK    8  A    between atoms: O_25  and  S_26
REMARK    9  A    between atoms: S_26  and  N_27
REMARK   10  A    between atoms: C_30  and  O_31
REMARK   11  A    between atoms: C_32  and  O_33
REMARK                            x       y       z     vdW  Elec       q    Type
REMARK                         _______ _______ _______ _____ _____    ______ ____
ROOT
ATOM      1  C   UNL     1       0.921   9.502  19.325  0.00  0.00    +0.000 A 
ATOM      2  N   UNL     1       1.508   9.835  18.149  0.00  0.00    +0.000 NA
ATOM      3  C   UNL     1       2.417   9.005  17.610  0.00  0.00    +0.000 A 
ATOM      4  N   UNL     1       2.817   7.810  18.080  0.00  0.00    +0.000 NA
ATOM      5  C   UNL     1       2.233   7.530  19.256  0.00  0.00    +0.000 A 
ATOM      6  C   UNL     1       1.317   8.308  19.946  0.00  0.00    +0.000 A 
ATOM      7  N   UNL     1       0.951   7.697  21.130  0.00  0.00    +0.000 NA
ATOM      8  C   UNL     1       1.607   6.554  21.131  0.00  0.00    +0.000 A 
ATOM      9  N   UNL     1       2.353   6.385  19.993  0.00  0.00    +0.000 N 
ENDROOT
BRANCH   9  10
ATOM     10  C   UNL     1       2.977   5.143  19.581  0.00  0.00    +0.000 C 
ATOM     11  O   UNL     1       4.365   5.362  19.260  0.00  0.00    +0.000 OA
ATOM     12  C   UNL     1       4.681   4.637  18.043  0.00  0.00    +0.000 C 
ATOM     13  C   UNL     1       3.485   3.725  17.760  0.00  0.00    +0.000 C 
ATOM     14  C   UNL     1       2.314   4.472  18.377  0.00  0.00    +0.000 C 
BRANCH  13  15
ATOM     15  O   UNL     1       3.606   2.460  18.439  0.00  0.00    +0.000 OA
ATOM     16  H   UNL     1       4.464   2.424  18.901  0.00  0.00    +0.000 HD
ENDBRANCH  13  15
BRANCH  14  17
ATOM     17  O   UNL     1       1.262   3.588  18.764  0.00  0.00    +0.000 OA
ATOM     18  H   UNL     1       1.386   3.410  19.719  0.00  0.00    +0.000 HD
ENDBRANCH  14  17
BRANCH  12  19
ATOM     19  C   UNL     1       4.971   5.622  16.908  0.00  0.00    +0.000 C 
BRANCH  19  20
ATOM     20  O   UNL     1       5.692   4.947  15.883  0.00  0.00    +0.000 OA
BRANCH  20  21
ATOM     21  S   UNL     1       7.297   5.169  15.845  0.00  0.00    +0.000 S 
ATOM     22  O   UNL     1       7.893   4.197  16.730  0.00  0.00    +0.000 OA
ATOM     23  O   UNL     1       7.705   5.329  14.471  0.00  0.00    +0.000 OA
BRANCH  21  24
ATOM     24  N   UNL     1       7.464   6.657  16.583  0.00  0.00    +0.000 NA
ATOM     25  H   UNL     1       6.577   7.152  16.628  0.00  0.00    +0.000 HD
ATOM     26  H   UNL     1       8.230   7.187  16.170  0.00  0.00    +0.000 HD
ENDBRANCH  21  24
ENDBRANCH  20  21
ENDBRANCH  19  20
ENDBRANCH  12  19
ENDBRANCH   9  10
BRANCH   1  29
ATOM     27  C   UNL     1       0.157  11.308  20.811  0.00  0.00    +0.000 C 
ATOM     28  O   UNL     1       1.270  11.636  21.216  0.00  0.00    +0.000 OA
ATOM     29  N   UNL     1      -0.080  10.292  19.912  0.00  0.00    +0.000 N 
ATOM     30  H   UNL     1      -1.032  10.116  19.603  0.00  0.00    +0.000 HD
BRANCH  27  36
ATOM     31  C   UNL     1      -2.075  12.610  20.571  0.00  0.00    +0.000 A 
ATOM     32  C   UNL     1      -3.113  13.300  21.226  0.00  0.00    +0.000 A 
ATOM     33  C   UNL     1      -3.130  13.438  22.617  0.00  0.00    +0.000 A 
ATOM     34  C   UNL     1      -2.105  12.899  23.376  0.00  0.00    +0.000 A 
ATOM     35  C   UNL     1      -1.061  12.228  22.742  0.00  0.00    +0.000 A 
ATOM     36  C   UNL     1      -1.025  12.071  21.340  0.00  0.00    +0.000 A 
BRANCH  31  38
ATOM     37  C   UNL     1      -3.089  11.715  18.609  0.00  0.00    +0.000 C 
ATOM     38  O   UNL     1      -2.031  12.466  19.205  0.00  0.00    +0.000 OA
ENDBRANCH  31  38
ENDBRANCH  27  36
ENDBRANCH   1  29
TORSDOF 10
ENDMDL
