MODEL 1
REMARK VINA RESULT:      -8.3      0.000      0.000
REMARK  Name = 
REMARK  9 active torsions:
REMARK  status: ('A' for Active; 'I' for Inactive)
REMARK    1  A    between atoms: C_1  and  N_2
REMARK    2  A    between atoms: N_2  and  C_3
REMARK    3  A    between atoms: N_2  and  S_20
REMARK    4  A    between atoms: C_3  and  C_4
REMARK    5  A    between atoms: C_7  and  C_8
REMARK    6  A    between atoms: C_8  and  O_9
REMARK    7  A    between atoms: C_8  and  C_10
REMARK    8  A    between atoms: C_8  and  C_14
REMARK    9  A    between atoms: S_20  and  C_23
REMARK                            x       y       z     vdW  Elec       q    Type
REMARK                         _______ _______ _______ _____ _____    ______ ____
ROOT
ATOM      1  C   UNL     1       2.535   7.390  18.502  0.00  0.00    +0.000 A 
ATOM      2  C   UNL     1       2.212   7.104  19.831  0.00  0.00    +0.000 A 
ATOM      3  C   UNL     1       1.521   8.037  20.607  0.00  0.00    +0.000 A 
ATOM      4  C   UNL     1       1.148   9.291  20.085  0.00  0.00    +0.000 A 
ATOM      5  C   UNL     1       1.460   9.557  18.738  0.00  0.00    +0.000 A 
ATOM      6  C   UNL     1       2.153   8.622  17.962  0.00  0.00    +0.000 A 
ENDROOT
BRANCH   1   7
ATOM      7  C   UNL     1       3.255   6.371  17.643  0.00  0.00    +0.000 C 
BRANCH   7   9
ATOM      8  C   UNL     1       5.712   6.648  17.634  0.00  0.00    +0.000 C 
ATOM      9  N   UNL     1       4.552   5.943  18.234  0.00  0.00    +0.000 NA
BRANCH   9  10
ATOM     10  S   UNL     1       4.716   4.242  18.291  0.00  0.00    +0.000 S 
ATOM     11  O   UNL     1       4.750   3.740  16.931  0.00  0.00    +0.000 OA
ATOM     12  O   UNL     1       5.772   3.937  19.231  0.00  0.00    +0.000 OA
BRANCH  10  13
ATOM     13  C   UNL     1       3.158   3.751  18.988  0.00  0.00    +0.000 A 
ATOM     14  C   UNL     1       2.978   3.857  20.371  0.00  0.00    +0.000 A 
ATOM     15  C   UNL     1       1.783   3.421  20.940  0.00  0.00    +0.000 A 
ATOM     16  C   UNL     1       0.779   2.891  20.130  0.00  0.00    +0.000 A 
ATOM     17  C   UNL     1       0.957   2.805  18.747  0.00  0.00    +0.000 A 
ATOM     18  C   UNL     1       2.150   3.241  18.167  0.00  0.00    +0.000 A 
ENDBRANCH  10  13
ENDBRANCH   9  10
ENDBRANCH   7   9
ENDBRANCH   1   7
BRANCH   4  19
ATOM     19  C   UNL     1       0.457  10.360  20.956  0.00  0.00    +0.000 C 
BRANCH  19  20
ATOM     20  C   UNL     1      -0.787  10.954  20.240  0.00  0.00    +0.000 C 
ATOM     21  F   UNL     1      -1.420  10.049  19.452  0.00  0.00    +0.000 F 
ATOM     22  F   UNL     1      -1.733  11.504  21.016  0.00  0.00    +0.000 F 
ATOM     23  F   UNL     1      -0.377  11.934  19.379  0.00  0.00    +0.000 F 
ENDBRANCH  19  20
BRANCH  19  24
ATOM     24  C   UNL     1       0.067   9.819  22.361  0.00  0.00    +0.000 C 
ATOM     25  F   UNL     1      -0.509  10.769  23.143  0.00  0.00    +0.000 F 
ATOM     26  F   UNL     1      -0.852   8.820  22.270  0.00  0.00    +0.000 F 
ATOM     27  F   UNL     1       1.083   9.315  23.090  0.00  0.00    +0.000 F 
ENDBRANCH  19  24
BRANCH  19  28
ATOM     28  O   UNL     1       1.456  11.436  21.128  0.00  0.00    +0.000 OA
ATOM     29  H   UNL     1       0.998  12.188  21.554  0.00  0.00    +0.000 HD
ENDBRANCH  19  28
ENDBRANCH   4  19
TORSDOF 8
ENDMDL
MODEL 2
REMARK VINA RESULT:      -8.3      0.298      1.408
REMARK  Name = 
REMARK  9 active torsions:
REMARK  status: ('A' for Active; 'I' for Inactive)
REMARK    1  A    between atoms: C_1  and  N_2
REMARK    2  A    between atoms: N_2  and  C_3
REMARK    3  A    between atoms: N_2  and  S_20
REMARK    4  A    between atoms: C_3  and  C_4
REMARK    5  A    between atoms: C_7  and  C_8
REMARK    6  A    between atoms: C_8  and  O_9
REMARK    7  A    between atoms: C_8  and  C_10
REMARK    8  A    between atoms: C_8  and  C_14
REMARK    9  A    between atoms: S_20  and  C_23
REMARK                            x       y       z     vdW  Elec       q    Type
REMARK                         _______ _______ _______ _____ _____    ______ ____
ROOT
ATOM      1  C   UNL     1       2.598   7.359  18.379  0.00  0.00    +0.000 A 
ATOM      2  C   UNL     1       2.167   8.579  17.852  0.00  0.00    +0.000 A 
ATOM      3  C   UNL     1       1.475   9.490  18.653  0.00  0.00    +0.000 A 
ATOM      4  C   UNL     1       1.179   9.204  20.000  0.00  0.00    +0.000 A 
ATOM      5  C   UNL     1       1.639   7.980  20.524  0.00  0.00    +0.000 A 
ATOM      6  C   UNL     1       2.330   7.067  19.721  0.00  0.00    +0.000 A 
ENDROOT
BRANCH   1   7
ATOM      7  C   UNL     1       3.377   6.378  17.526  0.00  0.00    +0.000 C 
BRANCH   7   9
ATOM      8  C   UNL     1       5.831   6.533  17.781  0.00  0.00    +0.000 C 
ATOM      9  N   UNL     1       4.585   5.857  18.220  0.00  0.00    +0.000 NA
BRANCH   9  10
ATOM     10  S   UNL     1       4.667   4.149  18.195  0.00  0.00    +0.000 S 
ATOM     11  O   UNL     1       4.646   3.710  16.813  0.00  0.00    +0.000 OA
ATOM     12  O   UNL     1       5.729   3.751  19.093  0.00  0.00    +0.000 OA
BRANCH  10  13
ATOM     13  C   UNL     1       3.104   3.700  18.907  0.00  0.00    +0.000 A 
ATOM     14  C   UNL     1       2.937   3.823  20.290  0.00  0.00    +0.000 A 
ATOM     15  C   UNL     1       1.736   3.420  20.873  0.00  0.00    +0.000 A 
ATOM     16  C   UNL     1       0.714   2.906  20.075  0.00  0.00    +0.000 A 
ATOM     17  C   UNL     1       0.881   2.803  18.692  0.00  0.00    +0.000 A 
ATOM     18  C   UNL     1       2.078   3.206  18.099  0.00  0.00    +0.000 A 
ENDBRANCH  10  13
ENDBRANCH   9  10
ENDBRANCH   7   9
ENDBRANCH   1   7
BRANCH   4  19
ATOM     19  C   UNL     1       0.346  10.166  20.871  0.00  0.00    +0.000 C 
BRANCH  19  20
ATOM     20  C   UNL     1      -0.779  10.847  20.045  0.00  0.00    +0.000 C 
ATOM     21  F   UNL     1      -1.724  11.429  20.826  0.00  0.00    +0.000 F 
ATOM     22  F   UNL     1      -0.405  11.776  19.153  0.00  0.00    +0.000 F 
ATOM     23  F   UNL     1      -1.455   9.888  19.343  0.00  0.00    +0.000 F 
ENDBRANCH  19  20
BRANCH  19  24
ATOM     24  C   UNL     1      -0.249   9.464  22.125  0.00  0.00    +0.000 C 
ATOM     25  F   UNL     1      -0.886   8.303  21.818  0.00  0.00    +0.000 F 
ATOM     26  F   UNL     1       0.725   9.118  23.009  0.00  0.00    +0.000 F 
ATOM     27  F   UNL     1      -1.139  10.192  22.829  0.00  0.00    +0.000 F 
ENDBRANCH  19  24
BRANCH  19  28
ATOM     28  O   UNL     1       1.292  11.210  21.323  0.00  0.00    +0.000 OA
ATOM     29  H   UNL     1       1.784  10.841  22.083  0.00  0.00    +0.000 HD
ENDBRANCH  19  28
ENDBRANCH   4  19
TORSDOF 8
ENDMDL
MODEL 3
REMARK VINA RESULT:      -8.3      0.226      1.150
REMARK  Name = 
REMARK  9 active torsions:
REMARK  status: ('A' for Active; 'I' for Inactive)
REMARK    1  A    between atoms: C_1  and  N_2
REMARK    2  A    between atoms: N_2  and  C_3
REMARK    3  A    between atoms: N_2  and  S_20
REMARK    4  A    between atoms: C_3  and  C_4
REMARK    5  A    between atoms: C_7  and  C_8
REMARK    6  A    between atoms: C_8  and  O_9
REMARK    7  A    between atoms: C_8  and  C_10
REMARK    8  A    between atoms: C_8  and  C_14
REMARK    9  A    between atoms: S_20  and  C_23
REMARK                            x       y       z     vdW  Elec       q    Type
REMARK                         _______ _______ _______ _____ _____    ______ ____
ROOT
ATOM      1  C   UNL     1       2.569   7.366  18.411  0.00  0.00    +0.000 A 
ATOM      2  C   UNL     1       2.194   8.604  17.885  0.00  0.00    +0.000 A 
ATOM      3  C   UNL     1       1.522   9.535  18.681  0.00  0.00    +0.000 A 
ATOM      4  C   UNL     1       1.191   9.252  20.019  0.00  0.00    +0.000 A 
ATOM      5  C   UNL     1       1.596   8.009  20.543  0.00  0.00    +0.000 A 
ATOM      6  C   UNL     1       2.266   7.076  19.746  0.00  0.00    +0.000 A 
ENDROOT
BRANCH   1   7
ATOM      7  C   UNL     1       3.327   6.362  17.566  0.00  0.00    +0.000 C 
BRANCH   7   9
ATOM      8  C   UNL     1       5.786   6.567  17.704  0.00  0.00    +0.000 C 
ATOM      9  N   UNL     1       4.573   5.889  18.226  0.00  0.00    +0.000 NA
BRANCH   9  10
ATOM     10  S   UNL     1       4.685   4.183  18.266  0.00  0.00    +0.000 S 
ATOM     11  O   UNL     1       4.586   3.686  16.908  0.00  0.00    +0.000 OA
ATOM     12  O   UNL     1       5.808   3.840  19.112  0.00  0.00    +0.000 OA
BRANCH  10  13
ATOM     13  C   UNL     1       3.178   3.741  19.094  0.00  0.00    +0.000 A 
ATOM     14  C   UNL     1       3.101   3.905  20.481  0.00  0.00    +0.000 A 
ATOM     15  C   UNL     1       1.946   3.509  21.154  0.00  0.00    +0.000 A 
ATOM     16  C   UNL     1       0.880   2.958  20.441  0.00  0.00    +0.000 A 
ATOM     17  C   UNL     1       0.956   2.814  19.053  0.00  0.00    +0.000 A 
ATOM     18  C   UNL     1       2.108   3.211  18.371  0.00  0.00    +0.000 A 
ENDBRANCH  10  13
ENDBRANCH   9  10
ENDBRANCH   7   9
ENDBRANCH   1   7
BRANCH   4  19
ATOM     19  C   UNL     1       0.379  10.240  20.882  0.00  0.00    +0.000 C 
BRANCH  19  20
ATOM     20  C   UNL     1      -0.804  10.849  20.082  0.00  0.00    +0.000 C 
ATOM     21  F   UNL     1      -1.443   9.933  19.311  0.00  0.00    +0.000 F 
ATOM     22  F   UNL     1      -1.758  11.477  20.787  0.00  0.00    +0.000 F 
ATOM     23  F   UNL     1      -0.314  11.766  19.195  0.00  0.00    +0.000 F 
ENDBRANCH  19  20
BRANCH  19  24
ATOM     24  C   UNL     1      -0.134   9.591  22.200  0.00  0.00    +0.000 C 
ATOM     25  F   UNL     1       0.878   9.248  23.039  0.00  0.00    +0.000 F 
ATOM     26  F   UNL     1      -0.913  10.454  22.907  0.00  0.00    +0.000 F 
ATOM     27  F   UNL     1      -0.873   8.474  22.046  0.00  0.00    +0.000 F 
ENDBRANCH  19  24
BRANCH  19  28
ATOM     28  O   UNL     1       1.319  11.327  21.230  0.00  0.00    +0.000 OA
ATOM     29  H   UNL     1       1.333  11.947  20.474  0.00  0.00    +0.000 HD
ENDBRANCH  19  28
ENDBRANCH   4  19
TORSDOF 8
ENDMDL
MODEL 4
REMARK VINA RESULT:      -8.3      1.634      3.715
REMARK  Name = 
REMARK  9 active torsions:
REMARK  status: ('A' for Active; 'I' for Inactive)
REMARK    1  A    between atoms: C_1  and  N_2
REMARK    2  A    between atoms: N_2  and  C_3
REMARK    3  A    between atoms: N_2  and  S_20
REMARK    4  A    between atoms: C_3  and  C_4
REMARK    5  A    between atoms: C_7  and  C_8
REMARK    6  A    between atoms: C_8  and  O_9
REMARK    7  A    between atoms: C_8  and  C_10
REMARK    8  A    between atoms: C_8  and  C_14
REMARK    9  A    between atoms: S_20  and  C_23
REMARK                            x       y       z     vdW  Elec       q    Type
REMARK                         _______ _______ _______ _____ _____    ______ ____
ROOT
ATOM      1  C   UNL     1       2.485   6.971  19.482  0.00  0.00    +0.000 A 
ATOM      2  C   UNL     1       2.644   7.675  18.286  0.00  0.00    +0.000 A 
ATOM      3  C   UNL     1       2.034   8.919  18.112  0.00  0.00    +0.000 A 
ATOM      4  C   UNL     1       1.234   9.490  19.120  0.00  0.00    +0.000 A 
ATOM      5  C   UNL     1       1.100   8.780  20.329  0.00  0.00    +0.000 A 
ATOM      6  C   UNL     1       1.709   7.533  20.501  0.00  0.00    +0.000 A 
ENDROOT
BRANCH   1   7
ATOM      7  C   UNL     1       3.168   5.635  19.692  0.00  0.00    +0.000 C 
BRANCH   7   9
ATOM      8  C   UNL     1       1.947   3.964  18.340  0.00  0.00    +0.000 C 
ATOM      9  N   UNL     1       3.169   4.797  18.463  0.00  0.00    +0.000 NA
BRANCH   9  10
ATOM     10  S   UNL     1       4.631   3.933  18.260  0.00  0.00    +0.000 S 
ATOM     11  O   UNL     1       4.909   3.212  19.487  0.00  0.00    +0.000 OA
ATOM     12  O   UNL     1       4.561   3.250  16.987  0.00  0.00    +0.000 OA
BRANCH  10  13
ATOM     13  C   UNL     1       5.817   5.249  18.150  0.00  0.00    +0.000 A 
ATOM     14  C   UNL     1       5.666   6.206  17.141  0.00  0.00    +0.000 A 
ATOM     15  C   UNL     1       6.621   7.212  17.004  0.00  0.00    +0.000 A 
ATOM     16  C   UNL     1       7.711   7.260  17.874  0.00  0.00    +0.000 A 
ATOM     17  C   UNL     1       7.846   6.312  18.891  0.00  0.00    +0.000 A 
ATOM     18  C   UNL     1       6.894   5.303  19.037  0.00  0.00    +0.000 A 
ENDBRANCH  10  13
ENDBRANCH   9  10
ENDBRANCH   7   9
ENDBRANCH   1   7
BRANCH   4  19
ATOM     19  C   UNL     1       0.490  10.825  18.909  0.00  0.00    +0.000 C 
BRANCH  19  20
ATOM     20  C   UNL     1      -0.911  10.599  18.278  0.00  0.00    +0.000 C 
ATOM     21  F   UNL     1      -0.884   9.720  17.245  0.00  0.00    +0.000 F 
ATOM     22  F   UNL     1      -1.889  10.185  19.098  0.00  0.00    +0.000 F 
ATOM     23  F   UNL     1      -1.342  11.771  17.723  0.00  0.00    +0.000 F 
ENDBRANCH  19  20
BRANCH  19  24
ATOM     24  C   UNL     1       0.367  11.648  20.223  0.00  0.00    +0.000 C 
ATOM     25  F   UNL     1      -0.149  12.888  20.014  0.00  0.00    +0.000 F 
ATOM     26  F   UNL     1      -0.477  11.049  21.105  0.00  0.00    +0.000 F 
ATOM     27  F   UNL     1       1.519  11.842  20.895  0.00  0.00    +0.000 F 
ENDBRANCH  19  24
BRANCH  19  28
ATOM     28  O   UNL     1       1.317  11.592  17.951  0.00  0.00    +0.000 OA
ATOM     29  H   UNL     1       0.776  12.347  17.646  0.00  0.00    +0.000 HD
ENDBRANCH  19  28
ENDBRANCH   4  19
TORSDOF 8
ENDMDL
MODEL 5
REMARK VINA RESULT:      -8.3      1.788      3.672
REMARK  Name = 
REMARK  9 active torsions:
REMARK  status: ('A' for Active; 'I' for Inactive)
REMARK    1  A    between atoms: C_1  and  N_2
REMARK    2  A    between atoms: N_2  and  C_3
REMARK    3  A    between atoms: N_2  and  S_20
REMARK    4  A    between atoms: C_3  and  C_4
REMARK    5  A    between atoms: C_7  and  C_8
REMARK    6  A    between atoms: C_8  and  O_9
REMARK    7  A    between atoms: C_8  and  C_10
REMARK    8  A    between atoms: C_8  and  C_14
REMARK    9  A    between atoms: S_20  and  C_23
REMARK                            x       y       z     vdW  Elec       q    Type
REMARK                         _______ _______ _______ _____ _____    ______ ____
ROOT
ATOM      1  C   UNL     1       2.351   7.207  19.453  0.00  0.00    +0.000 A 
ATOM      2  C   UNL     1       1.605   7.763  20.494  0.00  0.00    +0.000 A 
ATOM      3  C   UNL     1       0.993   9.009  20.338  0.00  0.00    +0.000 A 
ATOM      4  C   UNL     1       1.123   9.744  19.144  0.00  0.00    +0.000 A 
ATOM      5  C   UNL     1       1.859   9.161  18.095  0.00  0.00    +0.000 A 
ATOM      6  C   UNL     1       2.473   7.915  18.252  0.00  0.00    +0.000 A 
ENDROOT
BRANCH   1   7
ATOM      7  C   UNL     1       2.992   5.842  19.602  0.00  0.00    +0.000 C 
BRANCH   7   9
ATOM      8  C   UNL     1       1.809   4.405  17.975  0.00  0.00    +0.000 C 
ATOM      9  N   UNL     1       3.072   5.108  18.310  0.00  0.00    +0.000 NA
BRANCH   9  10
ATOM     10  S   UNL     1       4.470   4.130  18.199  0.00  0.00    +0.000 S 
ATOM     11  O   UNL     1       4.605   3.382  19.433  0.00  0.00    +0.000 OA
ATOM     12  O   UNL     1       4.434   3.462  16.916  0.00  0.00    +0.000 OA
BRANCH  10  13
ATOM     13  C   UNL     1       5.763   5.347  18.185  0.00  0.00    +0.000 A 
ATOM     14  C   UNL     1       5.697   6.386  17.250  0.00  0.00    +0.000 A 
ATOM     15  C   UNL     1       6.733   7.316  17.187  0.00  0.00    +0.000 A 
ATOM     16  C   UNL     1       7.820   7.207  18.056  0.00  0.00    +0.000 A 
ATOM     17  C   UNL     1       7.871   6.179  18.999  0.00  0.00    +0.000 A 
ATOM     18  C   UNL     1       6.837   5.244  19.071  0.00  0.00    +0.000 A 
ENDBRANCH  10  13
ENDBRANCH   9  10
ENDBRANCH   7   9
ENDBRANCH   1   7
BRANCH   4  19
ATOM     19  C   UNL     1       0.520  11.156  18.989  0.00  0.00    +0.000 C 
BRANCH  19  20
ATOM     20  C   UNL     1      -0.960  11.090  18.523  0.00  0.00    +0.000 C 
ATOM     21  F   UNL     1      -1.208  10.029  17.714  0.00  0.00    +0.000 F 
ATOM     22  F   UNL     1      -1.901  11.061  19.479  0.00  0.00    +0.000 F 
ATOM     23  F   UNL     1      -1.230  12.184  17.750  0.00  0.00    +0.000 F 
ENDBRANCH  19  20
BRANCH  19  24
ATOM     24  C   UNL     1       0.642  11.998  20.291  0.00  0.00    +0.000 C 
ATOM     25  F   UNL     1       1.933  12.192  20.666  0.00  0.00    +0.000 F 
ATOM     26  F   UNL     1       0.123  13.245  20.125  0.00  0.00    +0.000 F 
ATOM     27  F   UNL     1       0.022  11.485  21.373  0.00  0.00    +0.000 F 
ENDBRANCH  19  24
BRANCH  19  28
ATOM     28  O   UNL     1       1.316  11.812  17.930  0.00  0.00    +0.000 OA
ATOM     29  H   UNL     1       1.101  11.361  17.089  0.00  0.00    +0.000 HD
ENDBRANCH  19  28
ENDBRANCH   4  19
TORSDOF 8
ENDMDL
MODEL 6
REMARK VINA RESULT:      -8.3      0.135      1.647
REMARK  Name = 
REMARK  9 active torsions:
REMARK  status: ('A' for Active; 'I' for Inactive)
REMARK    1  A    between atoms: C_1  and  N_2
REMARK    2  A    between atoms: N_2  and  C_3
REMARK    3  A    between atoms: N_2  and  S_20
REMARK    4  A    between atoms: C_3  and  C_4
REMARK    5  A    between atoms: C_7  and  C_8
REMARK    6  A    between atoms: C_8  and  O_9
REMARK    7  A    between atoms: C_8  and  C_10
REMARK    8  A    between atoms: C_8  and  C_14
REMARK    9  A    between atoms: S_20  and  C_23
REMARK                            x       y       z     vdW  Elec       q    Type
REMARK                         _______ _______ _______ _____ _____    ______ ____
ROOT
ATOM      1  C   UNL     1       2.538   7.340  18.438  0.00  0.00    +0.000 A 
ATOM      2  C   UNL     1       2.212   8.582  17.889  0.00  0.00    +0.000 A 
ATOM      3  C   UNL     1       1.579   9.554  18.666  0.00  0.00    +0.000 A 
ATOM      4  C   UNL     1       1.237   9.309  20.010  0.00  0.00    +0.000 A 
ATOM      5  C   UNL     1       1.592   8.061  20.557  0.00  0.00    +0.000 A 
ATOM      6  C   UNL     1       2.224   7.087  19.777  0.00  0.00    +0.000 A 
ENDROOT
BRANCH   1   7
ATOM      7  C   UNL     1       3.254   6.291  17.611  0.00  0.00    +0.000 C 
BRANCH   7   9
ATOM      8  C   UNL     1       5.712   6.544  17.695  0.00  0.00    +0.000 C 
ATOM      9  N   UNL     1       4.524   5.840  18.241  0.00  0.00    +0.000 NA
BRANCH   9  10
ATOM     10  S   UNL     1       4.670   4.137  18.273  0.00  0.00    +0.000 S 
ATOM     11  O   UNL     1       4.635   3.649  16.909  0.00  0.00    +0.000 OA
ATOM     12  O   UNL     1       5.766   3.810  19.160  0.00  0.00    +0.000 OA
BRANCH  10  13
ATOM     13  C   UNL     1       3.141   3.657  19.038  0.00  0.00    +0.000 A 
ATOM     14  C   UNL     1       2.135   3.104  18.238  0.00  0.00    +0.000 A 
ATOM     15  C   UNL     1       0.908   2.776  18.812  0.00  0.00    +0.000 A 
ATOM     16  C   UNL     1       0.696   2.995  20.174  0.00  0.00    +0.000 A 
ATOM     17  C   UNL     1       1.711   3.530  20.971  0.00  0.00    +0.000 A 
ATOM     18  C   UNL     1       2.944   3.860  20.405  0.00  0.00    +0.000 A 
ENDBRANCH  10  13
ENDBRANCH   9  10
ENDBRANCH   7   9
ENDBRANCH   1   7
BRANCH   4  19
ATOM     19  C   UNL     1       0.466  10.344  20.854  0.00  0.00    +0.000 C 
BRANCH  19  20
ATOM     20  C   UNL     1      -0.775  10.884  20.092  0.00  0.00    +0.000 C 
ATOM     21  F   UNL     1      -1.710  11.414  20.921  0.00  0.00    +0.000 F 
ATOM     22  F   UNL     1      -0.554  11.803  19.139  0.00  0.00    +0.000 F 
ATOM     23  F   UNL     1      -1.409   9.839  19.481  0.00  0.00    +0.000 F 
ENDBRANCH  19  20
BRANCH  19  24
ATOM     24  C   UNL     1       0.048   9.782  22.243  0.00  0.00    +0.000 C 
ATOM     25  F   UNL     1       1.098   9.263  22.931  0.00  0.00    +0.000 F 
ATOM     26  F   UNL     1      -0.459  10.760  23.042  0.00  0.00    +0.000 F 
ATOM     27  F   UNL     1      -0.886   8.811  22.217  0.00  0.00    +0.000 F 
ENDBRANCH  19  24
BRANCH  19  28
ATOM     28  O   UNL     1       1.409  11.464  21.066  0.00  0.00    +0.000 OA
ATOM     29  H   UNL     1       1.225  12.129  20.373  0.00  0.00    +0.000 HD
ENDBRANCH  19  28
ENDBRANCH   4  19
TORSDOF 8
ENDMDL
MODEL 7
REMARK VINA RESULT:      -8.2      1.640      3.698
REMARK  Name = 
REMARK  9 active torsions:
REMARK  status: ('A' for Active; 'I' for Inactive)
REMARK    1  A    between atoms: C_1  and  N_2
REMARK    2  A    between atoms: N_2  and  C_3
REMARK    3  A    between atoms: N_2  and  S_20
REMARK    4  A    between atoms: C_3  and  C_4
REMARK    5  A    between atoms: C_7  and  C_8
REMARK    6  A    between atoms: C_8  and  O_9
REMARK    7  A    between atoms: C_8  and  C_10
REMARK    8  A    between atoms: C_8  and  C_14
REMARK    9  A    between atoms: S_20  and  C_23
REMARK                            x       y       z     vdW  Elec       q    Type
REMARK                         _______ _______ _______ _____ _____    ______ ____
ROOT
ATOM      1  C   UNL     1       2.465   6.986  19.547  0.00  0.00    +0.000 A 
ATOM      2  C   UNL     1       1.708   7.579  20.560  0.00  0.00    +0.000 A 
ATOM      3  C   UNL     1       1.069   8.801  20.342  0.00  0.00    +0.000 A 
ATOM      4  C   UNL     1       1.181   9.477  19.111  0.00  0.00    +0.000 A 
ATOM      5  C   UNL     1       1.929   8.856  18.091  0.00  0.00    +0.000 A 
ATOM      6  C   UNL     1       2.570   7.633  18.311  0.00  0.00    +0.000 A 
ENDROOT
BRANCH   1   7
ATOM      7  C   UNL     1       3.135   5.644  19.764  0.00  0.00    +0.000 C 
BRANCH   7   9
ATOM      8  C   UNL     1       1.889   3.985  18.421  0.00  0.00    +0.000 C 
ATOM      9  N   UNL     1       3.124   4.798  18.541  0.00  0.00    +0.000 NA
BRANCH   9  10
ATOM     10  S   UNL     1       4.572   3.910  18.347  0.00  0.00    +0.000 S 
ATOM     11  O   UNL     1       4.843   3.201  19.582  0.00  0.00    +0.000 OA
ATOM     12  O   UNL     1       4.488   3.210  17.083  0.00  0.00    +0.000 OA
BRANCH  10  13
ATOM     13  C   UNL     1       5.778   5.206  18.214  0.00  0.00    +0.000 A 
ATOM     14  C   UNL     1       5.639   6.150  17.192  0.00  0.00    +0.000 A 
ATOM     15  C   UNL     1       6.609   7.140  17.038  0.00  0.00    +0.000 A 
ATOM     16  C   UNL     1       7.702   7.183  17.904  0.00  0.00    +0.000 A 
ATOM     17  C   UNL     1       7.825   6.249  18.935  0.00  0.00    +0.000 A 
ATOM     18  C   UNL     1       6.858   5.256  19.098  0.00  0.00    +0.000 A 
ENDBRANCH  10  13
ENDBRANCH   9  10
ENDBRANCH   7   9
ENDBRANCH   1   7
BRANCH   4  19
ATOM     19  C   UNL     1       0.547  10.865  18.885  0.00  0.00    +0.000 C 
BRANCH  19  20
ATOM     20  C   UNL     1      -0.860  10.745  18.239  0.00  0.00    +0.000 C 
ATOM     21  F   UNL     1      -1.323  11.931  17.769  0.00  0.00    +0.000 F 
ATOM     22  F   UNL     1      -0.998   9.865  17.235  0.00  0.00    +0.000 F 
ATOM     23  F   UNL     1      -1.759  10.379  19.200  0.00  0.00    +0.000 F 
ENDBRANCH  19  20
BRANCH  19  24
ATOM     24  C   UNL     1       0.474  11.702  20.194  0.00  0.00    +0.000 C 
ATOM     25  F   UNL     1      -0.045  12.941  19.990  0.00  0.00    +0.000 F 
ATOM     26  F   UNL     1      -0.340  11.116  21.112  0.00  0.00    +0.000 F 
ATOM     27  F   UNL     1       1.650  11.900  20.822  0.00  0.00    +0.000 F 
ENDBRANCH  19  24
BRANCH  19  28
ATOM     28  O   UNL     1       1.442  11.558  17.934  0.00  0.00    +0.000 OA
ATOM     29  H   UNL     1       0.885  11.880  17.198  0.00  0.00    +0.000 HD
ENDBRANCH  19  28
ENDBRANCH   4  19
TORSDOF 8
ENDMDL
MODEL 8
REMARK VINA RESULT:      -8.2      0.279      1.379
REMARK  Name = 
REMARK  9 active torsions:
REMARK  status: ('A' for Active; 'I' for Inactive)
REMARK    1  A    between atoms: C_1  and  N_2
REMARK    2  A    between atoms: N_2  and  C_3
REMARK    3  A    between atoms: N_2  and  S_20
REMARK    4  A    between atoms: C_3  and  C_4
REMARK    5  A    between atoms: C_7  and  C_8
REMARK    6  A    between atoms: C_8  and  O_9
REMARK    7  A    between atoms: C_8  and  C_10
REMARK    8  A    between atoms: C_8  and  C_14
REMARK    9  A    between atoms: S_20  and  C_23
REMARK                            x       y       z     vdW  Elec       q    Type
REMARK                         _______ _______ _______ _____ _____    ______ ____
ROOT
ATOM      1  C   UNL     1       2.679   7.327  18.336  0.00  0.00    +0.000 A 
ATOM      2  C   UNL     1       2.308   7.084  19.660  0.00  0.00    +0.000 A 
ATOM      3  C   UNL     1       1.575   8.035  20.374  0.00  0.00    +0.000 A 
ATOM      4  C   UNL     1       1.206   9.263  19.794  0.00  0.00    +0.000 A 
ATOM      5  C   UNL     1       1.568   9.485  18.451  0.00  0.00    +0.000 A 
ATOM      6  C   UNL     1       2.302   8.533  17.736  0.00  0.00    +0.000 A 
ENDROOT
BRANCH   1   7
ATOM      7  C   UNL     1       3.446   6.288  17.543  0.00  0.00    +0.000 C 
BRANCH   7   9
ATOM      8  C   UNL     1       5.896   6.497  17.787  0.00  0.00    +0.000 C 
ATOM      9  N   UNL     1       4.664   5.815  18.254  0.00  0.00    +0.000 NA
BRANCH   9  10
ATOM     10  S   UNL     1       4.777   4.109  18.293  0.00  0.00    +0.000 S 
ATOM     11  O   UNL     1       4.786   3.619  16.929  0.00  0.00    +0.000 OA
ATOM     12  O   UNL     1       5.831   3.764  19.222  0.00  0.00    +0.000 OA
BRANCH  10  13
ATOM     13  C   UNL     1       3.211   3.658  18.998  0.00  0.00    +0.000 A 
ATOM     14  C   UNL     1       2.224   3.130  18.159  0.00  0.00    +0.000 A 
ATOM     15  C   UNL     1       0.970   2.826  18.685  0.00  0.00    +0.000 A 
ATOM     16  C   UNL     1       0.712   3.044  20.039  0.00  0.00    +0.000 A 
ATOM     17  C   UNL     1       1.707   3.554  20.876  0.00  0.00    +0.000 A 
ATOM     18  C   UNL     1       2.967   3.860  20.358  0.00  0.00    +0.000 A 
ENDBRANCH  10  13
ENDBRANCH   9  10
ENDBRANCH   7   9
ENDBRANCH   1   7
BRANCH   4  19
ATOM     19  C   UNL     1       0.468  10.353  20.597  0.00  0.00    +0.000 C 
BRANCH  19  20
ATOM     20  C   UNL     1      -0.820  10.820  19.866  0.00  0.00    +0.000 C 
ATOM     21  F   UNL     1      -0.577  11.779  18.937  0.00  0.00    +0.000 F 
ATOM     22  F   UNL     1      -1.548   9.877  19.249  0.00  0.00    +0.000 F 
ATOM     23  F   UNL     1      -1.651  11.418  20.771  0.00  0.00    +0.000 F 
ENDBRANCH  19  20
BRANCH  19  24
ATOM     24  C   UNL     1       0.134   9.896  22.046  0.00  0.00    +0.000 C 
ATOM     25  F   UNL     1       1.219   9.405  22.700  0.00  0.00    +0.000 F 
ATOM     26  F   UNL     1      -0.305  10.937  22.805  0.00  0.00    +0.000 F 
ATOM     27  F   UNL     1      -0.814   8.944  22.149  0.00  0.00    +0.000 F 
ENDBRANCH  19  24
BRANCH  19  28
ATOM     28  O   UNL     1       1.405  11.495  20.670  0.00  0.00    +0.000 OA
ATOM     29  H   UNL     1       2.178  11.199  21.192  0.00  0.00    +0.000 HD
ENDBRANCH  19  28
ENDBRANCH   4  19
TORSDOF 8
ENDMDL
MODEL 9
REMARK VINA RESULT:      -8.2      1.656      3.643
REMARK  Name = 
REMARK  9 active torsions:
REMARK  status: ('A' for Active; 'I' for Inactive)
REMARK    1  A    between atoms: C_1  and  N_2
REMARK    2  A    between atoms: N_2  and  C_3
REMARK    3  A    between atoms: N_2  and  S_20
REMARK    4  A    between atoms: C_3  and  C_4
REMARK    5  A    between atoms: C_7  and  C_8
REMARK    6  A    between atoms: C_8  and  O_9
REMARK    7  A    between atoms: C_8  and  C_10
REMARK    8  A    between atoms: C_8  and  C_14
REMARK    9  A    between atoms: S_20  and  C_23
REMARK                            x       y       z     vdW  Elec       q    Type
REMARK                         _______ _______ _______ _____ _____    ______ ____
ROOT
ATOM      1  C   UNL     1       2.372   6.666  19.744  0.00  0.00    +0.000 A 
ATOM      2  C   UNL     1       2.601   7.268  18.504  0.00  0.00    +0.000 A 
ATOM      3  C   UNL     1       2.072   8.530  18.223  0.00  0.00    +0.000 A 
ATOM      4  C   UNL     1       1.284   9.221  19.164  0.00  0.00    +0.000 A 
ATOM      5  C   UNL     1       1.081   8.612  20.418  0.00  0.00    +0.000 A 
ATOM      6  C   UNL     1       1.609   7.348  20.698  0.00  0.00    +0.000 A 
ENDROOT
BRANCH   1   7
ATOM      7  C   UNL     1       2.968   5.312  20.070  0.00  0.00    +0.000 C 
BRANCH   7   9
ATOM      8  C   UNL     1       1.542   3.493  19.195  0.00  0.00    +0.000 C 
ATOM      9  N   UNL     1       2.755   4.320  18.982  0.00  0.00    +0.000 NA
BRANCH   9  10
ATOM     10  S   UNL     1       4.167   3.420  18.632  0.00  0.00    +0.000 S 
ATOM     11  O   UNL     1       4.725   2.941  19.881  0.00  0.00    +0.000 OA
ATOM     12  O   UNL     1       3.846   2.510  17.554  0.00  0.00    +0.000 OA
BRANCH  10  13
ATOM     13  C   UNL     1       5.258   4.681  18.022  0.00  0.00    +0.000 A 
ATOM     14  C   UNL     1       6.337   5.078  18.819  0.00  0.00    +0.000 A 
ATOM     15  C   UNL     1       7.169   6.107  18.381  0.00  0.00    +0.000 A 
ATOM     16  C   UNL     1       6.923   6.726  17.155  0.00  0.00    +0.000 A 
ATOM     17  C   UNL     1       5.855   6.313  16.355  0.00  0.00    +0.000 A 
ATOM     18  C   UNL     1       5.018   5.281  16.784  0.00  0.00    +0.000 A 
ENDBRANCH  10  13
ENDBRANCH   9  10
ENDBRANCH   7   9
ENDBRANCH   1   7
BRANCH   4  19
ATOM     19  C   UNL     1       0.628  10.577  18.835  0.00  0.00    +0.000 C 
BRANCH  19  20
ATOM     20  C   UNL     1      -0.774  10.387  18.195  0.00  0.00    +0.000 C 
ATOM     21  F   UNL     1      -1.342  11.561  17.819  0.00  0.00    +0.000 F 
ATOM     22  F   UNL     1      -0.854   9.573  17.132  0.00  0.00    +0.000 F 
ATOM     23  F   UNL     1      -1.625   9.878  19.136  0.00  0.00    +0.000 F 
ENDBRANCH  19  20
BRANCH  19  24
ATOM     24  C   UNL     1       0.536  11.507  20.079  0.00  0.00    +0.000 C 
ATOM     25  F   UNL     1       1.719  11.612  20.740  0.00  0.00    +0.000 F 
ATOM     26  F   UNL     1       0.206  12.778  19.725  0.00  0.00    +0.000 F 
ATOM     27  F   UNL     1      -0.368  11.141  21.010  0.00  0.00    +0.000 F 
ENDBRANCH  19  24
BRANCH  19  28
ATOM     28  O   UNL     1       1.515  11.215  17.839  0.00  0.00    +0.000 OA
ATOM     29  H   UNL     1       2.045  10.503  17.429  0.00  0.00    +0.000 HD
ENDBRANCH  19  28
ENDBRANCH   4  19
TORSDOF 8
ENDMDL
