MODEL 1
REMARK VINA RESULT:      -7.9      0.000      0.000
REMARK  Name = 
REMARK  7 active torsions:
REMARK  status: ('A' for Active; 'I' for Inactive)
REMARK    1  A    between atoms: C_1  and  C_2
REMARK    2  A    between atoms: C_6  and  C_7
REMARK    3  A    between atoms: C_7  and  N_8
REMARK    4  A    between atoms: C_12  and  C_13
REMARK    5  A    between atoms: C_13  and  N_14
REMARK    6  A    between atoms: N_14  and  S_15
REMARK    7  A    between atoms: S_15  and  C_18
REMARK                            x       y       z     vdW  Elec       q    Type
REMARK                         _______ _______ _______ _____ _____    ______ ____
ROOT
ATOM      1  N   UNL     1       2.837   5.418  18.355  0.00  0.00    +0.000 N 
ATOM      2  C   UNL     1       1.665   4.844  17.906  0.00  0.00    +0.000 A 
ATOM      3  C   UNL     1       1.545   3.595  18.461  0.00  0.00    +0.000 A 
ATOM      4  C   UNL     1       2.671   3.403  19.288  0.00  0.00    +0.000 A 
ATOM      5  C   UNL     1       3.483   4.525  19.191  0.00  0.00    +0.000 A 
ENDROOT
BRANCH   1   6
ATOM      6  C   UNL     1       3.232   6.784  18.011  0.00  0.00    +0.000 C 
BRANCH   6  12
ATOM      7  C   UNL     1       0.778   8.843  21.930  0.00  0.00    +0.000 C 
ATOM      8  C   UNL     1       1.131   8.851  20.470  0.00  0.00    +0.000 A 
ATOM      9  C   UNL     1       0.571   9.793  19.602  0.00  0.00    +0.000 A 
ATOM     10  C   UNL     1       0.896   9.779  18.246  0.00  0.00    +0.000 A 
ATOM     11  C   UNL     1       1.760   8.807  17.741  0.00  0.00    +0.000 A 
ATOM     12  C   UNL     1       2.309   7.833  18.584  0.00  0.00    +0.000 A 
ATOM     13  C   UNL     1       2.014   7.890  19.957  0.00  0.00    +0.000 A 
ENDBRANCH   6  12
ENDBRANCH   1   6
BRANCH   5  14
ATOM     14  C   UNL     1       4.848   4.695  19.773  0.00  0.00    +0.000 C 
BRANCH  14  15
ATOM     15  N   UNL     1       5.833   3.955  18.995  0.00  0.00    +0.000 NA
ATOM     16  H   UNL     1       5.463   3.220  18.390  0.00  0.00    +0.000 HD
BRANCH  15  17
ATOM     17  S   UNL     1       6.945   4.906  18.147  0.00  0.00    +0.000 S 
ATOM     18  O   UNL     1       6.608   6.282  18.454  0.00  0.00    +0.000 OA
ATOM     19  O   UNL     1       8.272   4.387  18.373  0.00  0.00    +0.000 OA
BRANCH  17  20
ATOM     20  C   UNL     1       6.514   4.617  16.447  0.00  0.00    +0.000 A 
ATOM     21  C   UNL     1       7.401   4.987  15.431  0.00  0.00    +0.000 A 
ATOM     22  C   UNL     1       7.108   4.664  14.103  0.00  0.00    +0.000 A 
ATOM     23  C   UNL     1       5.936   3.968  13.801  0.00  0.00    +0.000 A 
ATOM     24 BR   UNL     1       5.553   3.511  12.007  0.00  0.00    +0.000 Br
ATOM     25  C   UNL     1       5.050   3.592  14.812  0.00  0.00    +0.000 A 
ATOM     26  C   UNL     1       5.342   3.909  16.142  0.00  0.00    +0.000 A 
ENDBRANCH  17  20
ENDBRANCH  15  17
ENDBRANCH  14  15
ENDBRANCH   5  14
TORSDOF 6
ENDMDL
MODEL 2
REMARK VINA RESULT:      -7.5      0.608      1.364
REMARK  Name = 
REMARK  7 active torsions:
REMARK  status: ('A' for Active; 'I' for Inactive)
REMARK    1  A    between atoms: C_1  and  C_2
REMARK    2  A    between atoms: C_6  and  C_7
REMARK    3  A    between atoms: C_7  and  N_8
REMARK    4  A    between atoms: C_12  and  C_13
REMARK    5  A    between atoms: C_13  and  N_14
REMARK    6  A    between atoms: N_14  and  S_15
REMARK    7  A    between atoms: S_15  and  C_18
REMARK                            x       y       z     vdW  Elec       q    Type
REMARK                         _______ _______ _______ _____ _____    ______ ____
ROOT
ATOM      1  N   UNL     1       2.724   4.778  18.411  0.00  0.00    +0.000 N 
ATOM      2  C   UNL     1       1.595   4.078  18.037  0.00  0.00    +0.000 A 
ATOM      3  C   UNL     1       1.587   2.873  18.694  0.00  0.00    +0.000 A 
ATOM      4  C   UNL     1       2.739   2.841  19.507  0.00  0.00    +0.000 A 
ATOM      5  C   UNL     1       3.455   4.011  19.301  0.00  0.00    +0.000 A 
ENDROOT
BRANCH   1   6
ATOM      6  C   UNL     1       3.001   6.139  17.949  0.00  0.00    +0.000 C 
BRANCH   6  12
ATOM      7  C   UNL     1       1.069  10.790  18.452  0.00  0.00    +0.000 C 
ATOM      8  C   UNL     1       1.363   9.437  19.033  0.00  0.00    +0.000 A 
ATOM      9  C   UNL     1       1.061   9.147  20.367  0.00  0.00    +0.000 A 
ATOM     10  C   UNL     1       1.354   7.892  20.898  0.00  0.00    +0.000 A 
ATOM     11  C   UNL     1       1.976   6.923  20.109  0.00  0.00    +0.000 A 
ATOM     12  C   UNL     1       2.318   7.199  18.779  0.00  0.00    +0.000 A 
ATOM     13  C   UNL     1       1.969   8.450  18.242  0.00  0.00    +0.000 A 
ENDBRANCH   6  12
ENDBRANCH   1   6
BRANCH   5  14
ATOM     14  C   UNL     1       4.811   4.338  19.835  0.00  0.00    +0.000 C 
BRANCH  14  15
ATOM     15  N   UNL     1       5.848   3.747  18.997  0.00  0.00    +0.000 NA
ATOM     16  H   UNL     1       5.542   3.006  18.364  0.00  0.00    +0.000 HD
BRANCH  15  17
ATOM     17  S   UNL     1       6.827   4.853  18.174  0.00  0.00    +0.000 S 
ATOM     18  O   UNL     1       6.330   6.167  18.531  0.00  0.00    +0.000 OA
ATOM     19  O   UNL     1       8.209   4.491  18.373  0.00  0.00    +0.000 OA
BRANCH  17  20
ATOM     20  C   UNL     1       6.415   4.570  16.468  0.00  0.00    +0.000 A 
ATOM     21  C   UNL     1       7.260   5.044  15.460  0.00  0.00    +0.000 A 
ATOM     22  C   UNL     1       6.989   4.730  14.125  0.00  0.00    +0.000 A 
ATOM     23  C   UNL     1       5.882   3.941  13.808  0.00  0.00    +0.000 A 
ATOM     24 BR   UNL     1       5.533   3.497  12.004  0.00  0.00    +0.000 Br
ATOM     25  C   UNL     1       5.039   3.461  14.812  0.00  0.00    +0.000 A 
ATOM     26  C   UNL     1       5.309   3.769  16.149  0.00  0.00    +0.000 A 
ENDBRANCH  17  20
ENDBRANCH  15  17
ENDBRANCH  14  15
ENDBRANCH   5  14
TORSDOF 6
ENDMDL
MODEL 3
REMARK VINA RESULT:      -7.3      1.107      1.422
REMARK  Name = 
REMARK  7 active torsions:
REMARK  status: ('A' for Active; 'I' for Inactive)
REMARK    1  A    between atoms: C_1  and  C_2
REMARK    2  A    between atoms: C_6  and  C_7
REMARK    3  A    between atoms: C_7  and  N_8
REMARK    4  A    between atoms: C_12  and  C_13
REMARK    5  A    between atoms: C_13  and  N_14
REMARK    6  A    between atoms: N_14  and  S_15
REMARK    7  A    between atoms: S_15  and  C_18
REMARK                            x       y       z     vdW  Elec       q    Type
REMARK                         _______ _______ _______ _____ _____    ______ ____
ROOT
ATOM      1  N   UNL     1       2.891   4.276  19.485  0.00  0.00    +0.000 N 
ATOM      2  C   UNL     1       1.980   3.429  18.889  0.00  0.00    +0.000 A 
ATOM      3  C   UNL     1       2.654   2.570  18.058  0.00  0.00    +0.000 A 
ATOM      4  C   UNL     1       4.023   2.891  18.159  0.00  0.00    +0.000 A 
ATOM      5  C   UNL     1       4.158   3.971  19.020  0.00  0.00    +0.000 A 
ENDROOT
BRANCH   1   6
ATOM      6  C   UNL     1       2.511   5.269  20.490  0.00  0.00    +0.000 C 
BRANCH   6  12
ATOM      7  C   UNL     1       0.590   9.931  20.923  0.00  0.00    +0.000 C 
ATOM      8  C   UNL     1       1.273   8.881  20.095  0.00  0.00    +0.000 A 
ATOM      9  C   UNL     1       1.568   9.108  18.748  0.00  0.00    +0.000 A 
ATOM     10  C   UNL     1       2.188   8.117  17.988  0.00  0.00    +0.000 A 
ATOM     11  C   UNL     1       2.495   6.882  18.559  0.00  0.00    +0.000 A 
ATOM     12  C   UNL     1       2.180   6.618  19.898  0.00  0.00    +0.000 A 
ATOM     13  C   UNL     1       1.602   7.643  20.667  0.00  0.00    +0.000 A 
ENDBRANCH   6  12
ENDBRANCH   1   6
BRANCH   5  14
ATOM     14  C   UNL     1       5.407   4.740  19.304  0.00  0.00    +0.000 C 
BRANCH  14  15
ATOM     15  N   UNL     1       5.660   5.714  18.249  0.00  0.00    +0.000 NA
ATOM     16  H   UNL     1       5.549   6.695  18.511  0.00  0.00    +0.000 HD
BRANCH  15  17
ATOM     17  S   UNL     1       7.105   5.496  17.398  0.00  0.00    +0.000 S 
ATOM     18  O   UNL     1       7.672   6.820  17.231  0.00  0.00    +0.000 OA
ATOM     19  O   UNL     1       7.854   4.429  18.015  0.00  0.00    +0.000 OA
BRANCH  17  20
ATOM     20  C   UNL     1       6.557   4.944  15.800  0.00  0.00    +0.000 A 
ATOM     21  C   UNL     1       7.470   4.845  14.746  0.00  0.00    +0.000 A 
ATOM     22  C   UNL     1       7.060   4.311  13.521  0.00  0.00    +0.000 A 
ATOM     23  C   UNL     1       5.744   3.874  13.360  0.00  0.00    +0.000 A 
ATOM     24 BR   UNL     1       5.198   3.130  11.710  0.00  0.00    +0.000 Br
ATOM     25  C   UNL     1       4.830   3.966  14.411  0.00  0.00    +0.000 A 
ATOM     26  C   UNL     1       5.237   4.494  15.640  0.00  0.00    +0.000 A 
ENDBRANCH  17  20
ENDBRANCH  15  17
ENDBRANCH  14  15
ENDBRANCH   5  14
TORSDOF 6
ENDMDL
MODEL 4
REMARK VINA RESULT:      -7.3      5.652      9.000
REMARK  Name = 
REMARK  7 active torsions:
REMARK  status: ('A' for Active; 'I' for Inactive)
REMARK    1  A    between atoms: C_1  and  C_2
REMARK    2  A    between atoms: C_6  and  C_7
REMARK    3  A    between atoms: C_7  and  N_8
REMARK    4  A    between atoms: C_12  and  C_13
REMARK    5  A    between atoms: C_13  and  N_14
REMARK    6  A    between atoms: N_14  and  S_15
REMARK    7  A    between atoms: S_15  and  C_18
REMARK                            x       y       z     vdW  Elec       q    Type
REMARK                         _______ _______ _______ _____ _____    ______ ____
ROOT
ATOM      1  N   UNL     1       2.393   7.664  18.909  0.00  0.00    +0.000 N 
ATOM      2  C   UNL     1       2.209   8.130  17.624  0.00  0.00    +0.000 A 
ATOM      3  C   UNL     1       1.439   9.265  17.672  0.00  0.00    +0.000 A 
ATOM      4  C   UNL     1       1.155   9.511  19.032  0.00  0.00    +0.000 A 
ATOM      5  C   UNL     1       1.723   8.496  19.789  0.00  0.00    +0.000 A 
ENDROOT
BRANCH   1   6
ATOM      6  C   UNL     1       3.233   6.507  19.220  0.00  0.00    +0.000 C 
BRANCH   6  12
ATOM      7  C   UNL     1       1.305   2.598  21.792  0.00  0.00    +0.000 C 
ATOM      8  C   UNL     1       1.510   3.322  20.493  0.00  0.00    +0.000 A 
ATOM      9  C   UNL     1       1.043   2.784  19.290  0.00  0.00    +0.000 A 
ATOM     10  C   UNL     1       1.255   3.460  18.089  0.00  0.00    +0.000 A 
ATOM     11  C   UNL     1       1.958   4.665  18.075  0.00  0.00    +0.000 A 
ATOM     12  C   UNL     1       2.464   5.208  19.262  0.00  0.00    +0.000 A 
ATOM     13  C   UNL     1       2.199   4.544  20.472  0.00  0.00    +0.000 A 
ENDBRANCH   6  12
ENDBRANCH   1   6
BRANCH   5  14
ATOM     14  C   UNL     1       1.548   8.267  21.255  0.00  0.00    +0.000 C 
BRANCH  14  15
ATOM     15  N   UNL     1       1.276   9.525  21.941  0.00  0.00    +0.000 NA
ATOM     16  H   UNL     1       1.315  10.366  21.363  0.00  0.00    +0.000 HD
BRANCH  15  17
ATOM     17  S   UNL     1      -0.117   9.537  22.899  0.00  0.00    +0.000 S 
ATOM     18  O   UNL     1      -0.951   8.461  22.403  0.00  0.00    +0.000 OA
ATOM     19  O   UNL     1       0.271   9.609  24.287  0.00  0.00    +0.000 OA
BRANCH  17  20
ATOM     20  C   UNL     1      -0.902  11.069  22.458  0.00  0.00    +0.000 A 
ATOM     21  C   UNL     1      -0.583  11.692  21.247  0.00  0.00    +0.000 A 
ATOM     22  C   UNL     1      -1.277  12.840  20.855  0.00  0.00    +0.000 A 
ATOM     23  C   UNL     1      -2.287  13.353  21.670  0.00  0.00    +0.000 A 
ATOM     24 BR   UNL     1      -3.241  14.891  21.124  0.00  0.00    +0.000 Br
ATOM     25  C   UNL     1      -2.613  12.732  22.876  0.00  0.00    +0.000 A 
ATOM     26  C   UNL     1      -1.925  11.580  23.271  0.00  0.00    +0.000 A 
ENDBRANCH  17  20
ENDBRANCH  15  17
ENDBRANCH  14  15
ENDBRANCH   5  14
TORSDOF 6
ENDMDL
MODEL 5
REMARK VINA RESULT:      -7.3      2.825      3.373
REMARK  Name = 
REMARK  7 active torsions:
REMARK  status: ('A' for Active; 'I' for Inactive)
REMARK    1  A    between atoms: C_1  and  C_2
REMARK    2  A    between atoms: C_6  and  C_7
REMARK    3  A    between atoms: C_7  and  N_8
REMARK    4  A    between atoms: C_12  and  C_13
REMARK    5  A    between atoms: C_13  and  N_14
REMARK    6  A    between atoms: N_14  and  S_15
REMARK    7  A    between atoms: S_15  and  C_18
REMARK                            x       y       z     vdW  Elec       q    Type
REMARK                         _______ _______ _______ _____ _____    ______ ____
ROOT
ATOM      1  N   UNL     1       2.296   4.930  19.668  0.00  0.00    +0.000 N 
ATOM      2  C   UNL     1       1.455   4.614  20.716  0.00  0.00    +0.000 A 
ATOM      3  C   UNL     1       0.877   3.395  20.464  0.00  0.00    +0.000 A 
ATOM      4  C   UNL     1       1.391   2.944  19.231  0.00  0.00    +0.000 A 
ATOM      5  C   UNL     1       2.244   3.916  18.729  0.00  0.00    +0.000 A 
ENDROOT
BRANCH   1   6
ATOM      6  C   UNL     1       3.128   6.134  19.657  0.00  0.00    +0.000 C 
BRANCH   6  12
ATOM      7  C   UNL     1       0.079   9.848  21.245  0.00  0.00    +0.000 C 
ATOM      8  C   UNL     1       0.886   9.210  20.151  0.00  0.00    +0.000 A 
ATOM      9  C   UNL     1       0.886   9.738  18.858  0.00  0.00    +0.000 A 
ATOM     10  C   UNL     1       1.627   9.126  17.848  0.00  0.00    +0.000 A 
ATOM     11  C   UNL     1       2.353   7.965  18.115  0.00  0.00    +0.000 A 
ATOM     12  C   UNL     1       2.344   7.397  19.396  0.00  0.00    +0.000 A 
ATOM     13  C   UNL     1       1.635   8.054  20.416  0.00  0.00    +0.000 A 
ENDBRANCH   6  12
ENDBRANCH   1   6
BRANCH   5  14
ATOM     14  C   UNL     1       2.892   3.932  17.382  0.00  0.00    +0.000 C 
BRANCH  14  15
ATOM     15  N   UNL     1       3.944   4.939  17.331  0.00  0.00    +0.000 NA
ATOM     16  H   UNL     1       3.811   5.754  17.933  0.00  0.00    +0.000 HD
BRANCH  15  17
ATOM     17  S   UNL     1       5.519   4.345  17.490  0.00  0.00    +0.000 S 
ATOM     18  O   UNL     1       5.556   3.647  18.759  0.00  0.00    +0.000 OA
ATOM     19  O   UNL     1       5.898   3.692  16.260  0.00  0.00    +0.000 OA
BRANCH  17  20
ATOM     20  C   UNL     1       6.495   5.821  17.662  0.00  0.00    +0.000 A 
ATOM     21  C   UNL     1       6.109   6.993  17.004  0.00  0.00    +0.000 A 
ATOM     22  C   UNL     1       6.818   8.177  17.225  0.00  0.00    +0.000 A 
ATOM     23  C   UNL     1       7.902   8.183  18.104  0.00  0.00    +0.000 A 
ATOM     24 BR   UNL     1       8.844   9.792  18.419  0.00  0.00    +0.000 Br
ATOM     25  C   UNL     1       8.288   7.017  18.767  0.00  0.00    +0.000 A 
ATOM     26  C   UNL     1       7.579   5.831  18.553  0.00  0.00    +0.000 A 
ENDBRANCH  17  20
ENDBRANCH  15  17
ENDBRANCH  14  15
ENDBRANCH   5  14
TORSDOF 6
ENDMDL
MODEL 6
REMARK VINA RESULT:      -7.2      5.577      8.869
REMARK  Name = 
REMARK  7 active torsions:
REMARK  status: ('A' for Active; 'I' for Inactive)
REMARK    1  A    between atoms: C_1  and  C_2
REMARK    2  A    between atoms: C_6  and  C_7
REMARK    3  A    between atoms: C_7  and  N_8
REMARK    4  A    between atoms: C_12  and  C_13
REMARK    5  A    between atoms: C_13  and  N_14
REMARK    6  A    between atoms: N_14  and  S_15
REMARK    7  A    between atoms: S_15  and  C_18
REMARK                            x       y       z     vdW  Elec       q    Type
REMARK                         _______ _______ _______ _____ _____    ______ ____
ROOT
ATOM      1  N   UNL     1       2.595   7.532  18.850  0.00  0.00    +0.000 N 
ATOM      2  C   UNL     1       2.619   8.053  17.573  0.00  0.00    +0.000 A 
ATOM      3  C   UNL     1       1.862   9.197  17.550  0.00  0.00    +0.000 A 
ATOM      4  C   UNL     1       1.370   9.391  18.857  0.00  0.00    +0.000 A 
ATOM      5  C   UNL     1       1.803   8.337  19.649  0.00  0.00    +0.000 A 
ENDROOT
BRANCH   1   6
ATOM      6  C   UNL     1       3.366   6.350  19.238  0.00  0.00    +0.000 C 
BRANCH   6  12
ATOM      7  C   UNL     1       1.326   2.550  21.886  0.00  0.00    +0.000 C 
ATOM      8  C   UNL     1       1.523   3.261  20.578  0.00  0.00    +0.000 A 
ATOM      9  C   UNL     1       0.986   2.748  19.394  0.00  0.00    +0.000 A 
ATOM     10  C   UNL     1       1.191   3.411  18.185  0.00  0.00    +0.000 A 
ATOM     11  C   UNL     1       1.955   4.577  18.143  0.00  0.00    +0.000 A 
ATOM     12  C   UNL     1       2.532   5.093  19.311  0.00  0.00    +0.000 A 
ATOM     13  C   UNL     1       2.274   4.444  20.530  0.00  0.00    +0.000 A 
ENDBRANCH   6  12
ENDBRANCH   1   6
BRANCH   5  14
ATOM     14  C   UNL     1       1.398   8.051  21.059  0.00  0.00    +0.000 C 
BRANCH  14  15
ATOM     15  N   UNL     1       1.314   9.286  21.829  0.00  0.00    +0.000 NA
ATOM     16  H   UNL     1       1.484  10.148  21.308  0.00  0.00    +0.000 HD
BRANCH  15  17
ATOM     17  S   UNL     1      -0.069   9.444  22.788  0.00  0.00    +0.000 S 
ATOM     18  O   UNL     1      -0.967   8.386  22.371  0.00  0.00    +0.000 OA
ATOM     19  O   UNL     1       0.333   9.591  24.166  0.00  0.00    +0.000 OA
BRANCH  17  20
ATOM     20  C   UNL     1      -0.769  10.985  22.244  0.00  0.00    +0.000 A 
ATOM     21  C   UNL     1      -1.419  11.818  23.160  0.00  0.00    +0.000 A 
ATOM     22  C   UNL     1      -1.874  13.074  22.752  0.00  0.00    +0.000 A 
ATOM     23  C   UNL     1      -1.672  13.492  21.436  0.00  0.00    +0.000 A 
ATOM     24 BR   UNL     1      -2.268  15.202  20.894  0.00  0.00    +0.000 Br
ATOM     25  C   UNL     1      -1.019  12.667  20.519  0.00  0.00    +0.000 A 
ATOM     26  C   UNL     1      -0.557  11.411  20.924  0.00  0.00    +0.000 A 
ENDBRANCH  17  20
ENDBRANCH  15  17
ENDBRANCH  14  15
ENDBRANCH   5  14
TORSDOF 6
ENDMDL
MODEL 7
REMARK VINA RESULT:      -7.2      0.855      1.465
REMARK  Name = 
REMARK  7 active torsions:
REMARK  status: ('A' for Active; 'I' for Inactive)
REMARK    1  A    between atoms: C_1  and  C_2
REMARK    2  A    between atoms: C_6  and  C_7
REMARK    3  A    between atoms: C_7  and  N_8
REMARK    4  A    between atoms: C_12  and  C_13
REMARK    5  A    between atoms: C_13  and  N_14
REMARK    6  A    between atoms: N_14  and  S_15
REMARK    7  A    between atoms: S_15  and  C_18
REMARK                            x       y       z     vdW  Elec       q    Type
REMARK                         _______ _______ _______ _____ _____    ______ ____
ROOT
ATOM      1  N   UNL     1       2.712   4.990  19.298  0.00  0.00    +0.000 N 
ATOM      2  C   UNL     1       1.513   4.566  18.763  0.00  0.00    +0.000 A 
ATOM      3  C   UNL     1       1.735   3.425  18.033  0.00  0.00    +0.000 A 
ATOM      4  C   UNL     1       3.111   3.133  18.137  0.00  0.00    +0.000 A 
ATOM      5  C   UNL     1       3.714   4.126  18.895  0.00  0.00    +0.000 A 
ENDROOT
BRANCH   1   6
ATOM      6  C   UNL     1       2.815   6.141  20.195  0.00  0.00    +0.000 C 
BRANCH   6  12
ATOM      7  C   UNL     1      -0.100  10.266  20.519  0.00  0.00    +0.000 C 
ATOM      8  C   UNL     1       0.871   9.420  19.746  0.00  0.00    +0.000 A 
ATOM      9  C   UNL     1       1.238   9.760  18.441  0.00  0.00    +0.000 A 
ATOM     10  C   UNL     1       2.128   8.957  17.729  0.00  0.00    +0.000 A 
ATOM     11  C   UNL     1       2.638   7.792  18.305  0.00  0.00    +0.000 A 
ATOM     12  C   UNL     1       2.260   7.412  19.599  0.00  0.00    +0.000 A 
ATOM     13  C   UNL     1       1.403   8.258  20.324  0.00  0.00    +0.000 A 
ENDBRANCH   6  12
ENDBRANCH   1   6
BRANCH   5  14
ATOM     14  C   UNL     1       5.178   4.305  19.135  0.00  0.00    +0.000 C 
BRANCH  14  15
ATOM     15  N   UNL     1       5.651   5.539  18.518  0.00  0.00    +0.000 NA
ATOM     16  H   UNL     1       5.571   6.382  19.090  0.00  0.00    +0.000 HD
BRANCH  15  17
ATOM     17  S   UNL     1       7.187   5.451  17.816  0.00  0.00    +0.000 S 
ATOM     18  O   UNL     1       7.617   6.822  17.627  0.00  0.00    +0.000 OA
ATOM     19  O   UNL     1       7.986   4.507  18.558  0.00  0.00    +0.000 OA
BRANCH  17  20
ATOM     20  C   UNL     1       6.861   4.766  16.209  0.00  0.00    +0.000 A 
ATOM     21  C   UNL     1       5.841   3.823  16.047  0.00  0.00    +0.000 A 
ATOM     22  C   UNL     1       5.518   3.365  14.767  0.00  0.00    +0.000 A 
ATOM     23  C   UNL     1       6.210   3.856  13.659  0.00  0.00    +0.000 A 
ATOM     24 BR   UNL     1       5.754   3.253  11.926  0.00  0.00    +0.000 Br
ATOM     25  C   UNL     1       7.225   4.802  13.814  0.00  0.00    +0.000 A 
ATOM     26  C   UNL     1       7.548   5.267  15.093  0.00  0.00    +0.000 A 
ENDBRANCH  17  20
ENDBRANCH  15  17
ENDBRANCH  14  15
ENDBRANCH   5  14
TORSDOF 6
ENDMDL
MODEL 8
REMARK VINA RESULT:      -7.0      3.363      7.117
REMARK  Name = 
REMARK  7 active torsions:
REMARK  status: ('A' for Active; 'I' for Inactive)
REMARK    1  A    between atoms: C_1  and  C_2
REMARK    2  A    between atoms: C_6  and  C_7
REMARK    3  A    between atoms: C_7  and  N_8
REMARK    4  A    between atoms: C_12  and  C_13
REMARK    5  A    between atoms: C_13  and  N_14
REMARK    6  A    between atoms: N_14  and  S_15
REMARK    7  A    between atoms: S_15  and  C_18
REMARK                            x       y       z     vdW  Elec       q    Type
REMARK                         _______ _______ _______ _____ _____    ______ ____
ROOT
ATOM      1  N   UNL     1       6.090   5.675  17.069  0.00  0.00    +0.000 N 
ATOM      2  C   UNL     1       6.994   6.716  17.013  0.00  0.00    +0.000 A 
ATOM      3  C   UNL     1       7.757   6.700  18.153  0.00  0.00    +0.000 A 
ATOM      4  C   UNL     1       7.317   5.605  18.926  0.00  0.00    +0.000 A 
ATOM      5  C   UNL     1       6.262   4.995  18.262  0.00  0.00    +0.000 A 
ENDROOT
BRANCH   1   6
ATOM      6  C   UNL     1       5.174   5.362  15.972  0.00  0.00    +0.000 C 
BRANCH   6  12
ATOM      7  C   UNL     1       5.353   2.550  11.768  0.00  0.00    +0.000 C 
ATOM      8  C   UNL     1       5.975   3.578  12.670  0.00  0.00    +0.000 A 
ATOM      9  C   UNL     1       7.241   4.101  12.395  0.00  0.00    +0.000 A 
ATOM     10  C   UNL     1       7.813   5.042  13.250  0.00  0.00    +0.000 A 
ATOM     11  C   UNL     1       7.137   5.449  14.401  0.00  0.00    +0.000 A 
ATOM     12  C   UNL     1       5.880   4.915  14.715  0.00  0.00    +0.000 A 
ATOM     13  C   UNL     1       5.293   4.007  13.818  0.00  0.00    +0.000 A 
ENDBRANCH   6  12
ENDBRANCH   1   6
BRANCH   5  14
ATOM     14  C   UNL     1       5.394   3.895  18.779  0.00  0.00    +0.000 C 
BRANCH  14  15
ATOM     15  N   UNL     1       4.595   3.323  17.702  0.00  0.00    +0.000 NA
ATOM     16  H   UNL     1       4.960   2.466  17.283  0.00  0.00    +0.000 HD
BRANCH  15  17
ATOM     17  S   UNL     1       2.946   3.154  18.039  0.00  0.00    +0.000 S 
ATOM     18  O   UNL     1       2.268   3.233  16.761  0.00  0.00    +0.000 OA
ATOM     19  O   UNL     1       2.763   2.026  18.920  0.00  0.00    +0.000 OA
BRANCH  17  20
ATOM     20  C   UNL     1       2.561   4.635  18.942  0.00  0.00    +0.000 A 
ATOM     21  C   UNL     1       2.649   5.879  18.309  0.00  0.00    +0.000 A 
ATOM     22  C   UNL     1       2.245   7.032  18.989  0.00  0.00    +0.000 A 
ATOM     23  C   UNL     1       1.751   6.933  20.291  0.00  0.00    +0.000 A 
ATOM     24 BR   UNL     1       1.183   8.491  21.198  0.00  0.00    +0.000 Br
ATOM     25  C   UNL     1       1.657   5.694  20.925  0.00  0.00    +0.000 A 
ATOM     26  C   UNL     1       2.055   4.537  20.247  0.00  0.00    +0.000 A 
ENDBRANCH  17  20
ENDBRANCH  15  17
ENDBRANCH  14  15
ENDBRANCH   5  14
TORSDOF 6
ENDMDL
MODEL 9
REMARK VINA RESULT:      -7.0      1.146      2.182
REMARK  Name = 
REMARK  7 active torsions:
REMARK  status: ('A' for Active; 'I' for Inactive)
REMARK    1  A    between atoms: C_1  and  C_2
REMARK    2  A    between atoms: C_6  and  C_7
REMARK    3  A    between atoms: C_7  and  N_8
REMARK    4  A    between atoms: C_12  and  C_13
REMARK    5  A    between atoms: C_13  and  N_14
REMARK    6  A    between atoms: N_14  and  S_15
REMARK    7  A    between atoms: S_15  and  C_18
REMARK                            x       y       z     vdW  Elec       q    Type
REMARK                         _______ _______ _______ _____ _____    ______ ____
ROOT
ATOM      1  N   UNL     1       1.998   3.999  20.078  0.00  0.00    +0.000 N 
ATOM      2  C   UNL     1       0.905   3.485  19.412  0.00  0.00    +0.000 A 
ATOM      3  C   UNL     1       1.334   2.504  18.554  0.00  0.00    +0.000 A 
ATOM      4  C   UNL     1       2.731   2.402  18.711  0.00  0.00    +0.000 A 
ATOM      5  C   UNL     1       3.139   3.356  19.633  0.00  0.00    +0.000 A 
ENDROOT
BRANCH   1   6
ATOM      6  C   UNL     1       1.882   5.015  21.125  0.00  0.00    +0.000 C 
BRANCH   6  12
ATOM      7  C   UNL     1       2.734   8.491  17.545  0.00  0.00    +0.000 C 
ATOM      8  C   UNL     1       2.103   8.100  18.851  0.00  0.00    +0.000 A 
ATOM      9  C   UNL     1       1.398   9.034  19.615  0.00  0.00    +0.000 A 
ATOM     10  C   UNL     1       0.831   8.661  20.834  0.00  0.00    +0.000 A 
ATOM     11  C   UNL     1       0.987   7.360  21.312  0.00  0.00    +0.000 A 
ATOM     12  C   UNL     1       1.717   6.414  20.580  0.00  0.00    +0.000 A 
ATOM     13  C   UNL     1       2.238   6.789  19.330  0.00  0.00    +0.000 A 
ENDBRANCH   6  12
ENDBRANCH   1   6
BRANCH   5  14
ATOM     14  C   UNL     1       4.545   3.710  19.993  0.00  0.00    +0.000 C 
BRANCH  14  15
ATOM     15  N   UNL     1       5.440   3.463  18.868  0.00  0.00    +0.000 NA
ATOM     16  H   UNL     1       5.057   2.896  18.110  0.00  0.00    +0.000 HD
BRANCH  15  17
ATOM     17  S   UNL     1       6.208   4.834  18.244  0.00  0.00    +0.000 S 
ATOM     18  O   UNL     1       5.262   5.922  18.389  0.00  0.00    +0.000 OA
ATOM     19  O   UNL     1       7.539   4.915  18.796  0.00  0.00    +0.000 OA
BRANCH  17  20
ATOM     20  C   UNL     1       6.344   4.470  16.510  0.00  0.00    +0.000 A 
ATOM     21  C   UNL     1       5.354   3.711  15.877  0.00  0.00    +0.000 A 
ATOM     22  C   UNL     1       5.409   3.516  14.495  0.00  0.00    +0.000 A 
ATOM     23  C   UNL     1       6.447   4.084  13.754  0.00  0.00    +0.000 A 
ATOM     24 BR   UNL     1       6.505   3.838  11.880  0.00  0.00    +0.000 Br
ATOM     25  C   UNL     1       7.434   4.846  14.380  0.00  0.00    +0.000 A 
ATOM     26  C   UNL     1       7.381   5.049  15.762  0.00  0.00    +0.000 A 
ENDBRANCH  17  20
ENDBRANCH  15  17
ENDBRANCH  14  15
ENDBRANCH   5  14
TORSDOF 6
ENDMDL
