MODEL 1
REMARK VINA RESULT:      -8.5      0.000      0.000
REMARK  Name = 
REMARK  12 active torsions:
REMARK  status: ('A' for Active; 'I' for Inactive)
REMARK    1  A    between atoms: C_1  and  C_2
REMARK    2  A    between atoms: C_2  and  C_3
REMARK    3  A    between atoms: C_2  and  C_4
REMARK    4  A    between atoms: C_4  and  C_5
REMARK    5  A    between atoms: C_5  and  N_6
REMARK    6  A    between atoms: C_5  and  C_23
REMARK    7  A    between atoms: N_6  and  S_7
REMARK    8  A    between atoms: S_7  and  C_10
REMARK    9  A    between atoms: C_10  and  C_13
REMARK   10  A    between atoms: C_13  and  C_16
REMARK   11  A    between atoms: C_16  and  C_19
REMARK   12  A    between atoms: N_25  and  O_26
REMARK                            x       y       z     vdW  Elec       q    Type
REMARK                         _______ _______ _______ _____ _____    ______ ____
ROOT
ATOM      1  S   UNL     1       4.466   3.751  18.514  0.00  0.00    +0.000 S 
ATOM      2  O   UNL     1       4.828   2.770  19.513  0.00  0.00    +0.000 OA
ATOM      3  O   UNL     1       4.402   5.159  18.837  0.00  0.00    +0.000 OA
ENDROOT
BRANCH   1   4
ATOM      4  C   UNL     1       2.925   3.229  17.664  0.00  0.00    +0.000 C 
ATOM      5  F   UNL     1       2.940   3.619  16.355  0.00  0.00    +0.000 F 
ATOM      6  F   UNL     1       2.863   1.861  17.633  0.00  0.00    +0.000 F 
BRANCH   4   7
ATOM      7  C   UNL     1       1.742   3.812  18.403  0.00  0.00    +0.000 C 
ATOM      8  F   UNL     1       2.066   5.008  18.963  0.00  0.00    +0.000 F 
ATOM      9  F   UNL     1       0.710   4.050  17.549  0.00  0.00    +0.000 F 
BRANCH   7  10
ATOM     10  C   UNL     1       1.288   2.863  19.483  0.00  0.00    +0.000 C 
ATOM     11  F   UNL     1       0.041   2.389  19.196  0.00  0.00    +0.000 F 
ATOM     12  F   UNL     1       2.091   1.759  19.510  0.00  0.00    +0.000 F 
BRANCH  10  13
ATOM     13  C   UNL     1       1.293   3.547  20.846  0.00  0.00    +0.000 C 
ATOM     14  F   UNL     1       2.518   3.914  21.276  0.00  0.00    +0.000 F 
ATOM     15  F   UNL     1       0.527   4.667  20.840  0.00  0.00    +0.000 F 
ATOM     16  F   UNL     1       0.768   2.739  21.804  0.00  0.00    +0.000 F 
ENDBRANCH  10  13
ENDBRANCH   7  10
ENDBRANCH   4   7
ENDBRANCH   1   4
BRANCH   1  17
ATOM     17  N   UNL     1       5.648   3.593  17.276  0.00  0.00    +0.000 NA
ATOM     18  H   UNL     1       6.072   2.661  17.299  0.00  0.00    +0.000 HD
BRANCH  17  19
ATOM     19  C   UNL     1       6.687   4.668  17.155  0.00  0.00    +0.000 C 
BRANCH  19  20
ATOM     20  C   UNL     1       7.800   4.605  18.208  0.00  0.00    +0.000 C 
ATOM     21  O   UNL     1       8.872   4.019  18.049  0.00  0.00    +0.000 OA
ATOM     22  N   UNL     1       7.550   5.307  19.363  0.00  0.00    +0.000 N 
ATOM     23  H   UNL     1       6.786   5.959  19.497  0.00  0.00    +0.000 HD
BRANCH  22  24
ATOM     24  O   UNL     1       8.616   5.365  20.290  0.00  0.00    +0.000 OA
ATOM     25  H   UNL     1       8.511   4.512  20.775  0.00  0.00    +0.000 HD
ENDBRANCH  22  24
ENDBRANCH  19  20
BRANCH  19  26
ATOM     26  C   UNL     1       7.318   4.753  15.752  0.00  0.00    +0.000 C 
BRANCH  26  28
ATOM     27  C   UNL     1       5.847   3.974  13.806  0.00  0.00    +0.000 C 
ATOM     28  C   UNL     1       6.405   5.166  14.582  0.00  0.00    +0.000 C 
ATOM     29  C   UNL     1       5.245   6.012  15.124  0.00  0.00    +0.000 C 
ENDBRANCH  26  28
ENDBRANCH  19  26
ENDBRANCH  17  19
ENDBRANCH   1  17
TORSDOF 10
ENDMDL
MODEL 2
REMARK VINA RESULT:      -8.4      2.096      3.296
REMARK  Name = 
REMARK  12 active torsions:
REMARK  status: ('A' for Active; 'I' for Inactive)
REMARK    1  A    between atoms: C_1  and  C_2
REMARK    2  A    between atoms: C_2  and  C_3
REMARK    3  A    between atoms: C_2  and  C_4
REMARK    4  A    between atoms: C_4  and  C_5
REMARK    5  A    between atoms: C_5  and  N_6
REMARK    6  A    between atoms: C_5  and  C_23
REMARK    7  A    between atoms: N_6  and  S_7
REMARK    8  A    between atoms: S_7  and  C_10
REMARK    9  A    between atoms: C_10  and  C_13
REMARK   10  A    between atoms: C_13  and  C_16
REMARK   11  A    between atoms: C_16  and  C_19
REMARK   12  A    between atoms: N_25  and  O_26
REMARK                            x       y       z     vdW  Elec       q    Type
REMARK                         _______ _______ _______ _____ _____    ______ ____
ROOT
ATOM      1  S   UNL     1       4.627   3.946  17.891  0.00  0.00    +0.000 S 
ATOM      2  O   UNL     1       4.301   2.868  16.985  0.00  0.00    +0.000 OA
ATOM      3  O   UNL     1       5.665   3.799  18.887  0.00  0.00    +0.000 OA
ENDROOT
BRANCH   1   4
ATOM      4  C   UNL     1       3.093   4.586  18.670  0.00  0.00    +0.000 C 
ATOM      5  F   UNL     1       3.379   5.253  19.828  0.00  0.00    +0.000 F 
ATOM      6  F   UNL     1       2.518   5.519  17.848  0.00  0.00    +0.000 F 
BRANCH   4   7
ATOM      7  C   UNL     1       2.155   3.425  18.917  0.00  0.00    +0.000 C 
ATOM      8  F   UNL     1       1.282   3.283  17.885  0.00  0.00    +0.000 F 
ATOM      9  F   UNL     1       2.846   2.257  19.005  0.00  0.00    +0.000 F 
BRANCH   7  10
ATOM     10  C   UNL     1       1.383   3.646  20.194  0.00  0.00    +0.000 C 
ATOM     11  F   UNL     1       1.102   4.973  20.347  0.00  0.00    +0.000 F 
ATOM     12  F   UNL     1       0.166   3.030  20.123  0.00  0.00    +0.000 F 
BRANCH  10  13
ATOM     13  C   UNL     1       2.162   3.128  21.399  0.00  0.00    +0.000 C 
ATOM     14  F   UNL     1       3.350   2.568  21.089  0.00  0.00    +0.000 F 
ATOM     15  F   UNL     1       2.416   4.121  22.287  0.00  0.00    +0.000 F 
ATOM     16  F   UNL     1       1.451   2.190  22.077  0.00  0.00    +0.000 F 
ENDBRANCH  10  13
ENDBRANCH   7  10
ENDBRANCH   4   7
ENDBRANCH   1   4
BRANCH   1  17
ATOM     17  N   UNL     1       5.107   5.254  16.884  0.00  0.00    +0.000 NA
ATOM     18  H   UNL     1       4.477   5.341  16.081  0.00  0.00    +0.000 HD
BRANCH  17  19
ATOM     19  C   UNL     1       6.545   5.327  16.465  0.00  0.00    +0.000 C 
BRANCH  19  20
ATOM     20  C   UNL     1       6.825   4.835  15.040  0.00  0.00    +0.000 C 
ATOM     21  O   UNL     1       7.629   5.361  14.271  0.00  0.00    +0.000 OA
ATOM     22  N   UNL     1       6.142   3.700  14.672  0.00  0.00    +0.000 N 
ATOM     23  H   UNL     1       5.611   3.108  15.299  0.00  0.00    +0.000 HD
BRANCH  22  24
ATOM     24  O   UNL     1       6.482   3.161  13.410  0.00  0.00    +0.000 OA
ATOM     25  H   UNL     1       7.177   3.789  13.100  0.00  0.00    +0.000 HD
ENDBRANCH  22  24
ENDBRANCH  19  20
BRANCH  19  26
ATOM     26  C   UNL     1       7.166   6.725  16.652  0.00  0.00    +0.000 C 
BRANCH  26  28
ATOM     27  C   UNL     1       8.065   6.173  18.984  0.00  0.00    +0.000 C 
ATOM     28  C   UNL     1       7.399   7.218  18.092  0.00  0.00    +0.000 C 
ATOM     29  C   UNL     1       8.265   8.485  18.055  0.00  0.00    +0.000 C 
ENDBRANCH  26  28
ENDBRANCH  19  26
ENDBRANCH  17  19
ENDBRANCH   1  17
TORSDOF 10
ENDMDL
MODEL 3
REMARK VINA RESULT:      -8.4      2.098      3.277
REMARK  Name = 
REMARK  12 active torsions:
REMARK  status: ('A' for Active; 'I' for Inactive)
REMARK    1  A    between atoms: C_1  and  C_2
REMARK    2  A    between atoms: C_2  and  C_3
REMARK    3  A    between atoms: C_2  and  C_4
REMARK    4  A    between atoms: C_4  and  C_5
REMARK    5  A    between atoms: C_5  and  N_6
REMARK    6  A    between atoms: C_5  and  C_23
REMARK    7  A    between atoms: N_6  and  S_7
REMARK    8  A    between atoms: S_7  and  C_10
REMARK    9  A    between atoms: C_10  and  C_13
REMARK   10  A    between atoms: C_13  and  C_16
REMARK   11  A    between atoms: C_16  and  C_19
REMARK   12  A    between atoms: N_25  and  O_26
REMARK                            x       y       z     vdW  Elec       q    Type
REMARK                         _______ _______ _______ _____ _____    ______ ____
ROOT
ATOM      1  S   UNL     1       3.936   3.838  17.724  0.00  0.00    +0.000 S 
ATOM      2  O   UNL     1       3.397   2.840  16.826  0.00  0.00    +0.000 OA
ATOM      3  O   UNL     1       4.712   3.459  18.883  0.00  0.00    +0.000 OA
ENDROOT
BRANCH   1   4
ATOM      4  C   UNL     1       2.614   5.016  18.207  0.00  0.00    +0.000 C 
ATOM      5  F   UNL     1       2.896   6.273  17.753  0.00  0.00    +0.000 F 
ATOM      6  F   UNL     1       1.442   4.664  17.591  0.00  0.00    +0.000 F 
BRANCH   4   7
ATOM      7  C   UNL     1       2.468   4.991  19.712  0.00  0.00    +0.000 C 
ATOM      8  F   UNL     1       3.684   4.887  20.312  0.00  0.00    +0.000 F 
ATOM      9  F   UNL     1       1.911   6.147  20.162  0.00  0.00    +0.000 F 
BRANCH   7  10
ATOM     10  C   UNL     1       1.607   3.825  20.129  0.00  0.00    +0.000 C 
ATOM     11  F   UNL     1       0.301   4.213  20.208  0.00  0.00    +0.000 F 
ATOM     12  F   UNL     1       1.632   2.852  19.171  0.00  0.00    +0.000 F 
BRANCH  10  13
ATOM     13  C   UNL     1       2.071   3.256  21.466  0.00  0.00    +0.000 C 
ATOM     14  F   UNL     1       2.461   4.189  22.358  0.00  0.00    +0.000 F 
ATOM     15  F   UNL     1       1.091   2.529  22.059  0.00  0.00    +0.000 F 
ATOM     16  F   UNL     1       3.120   2.407  21.301  0.00  0.00    +0.000 F 
ENDBRANCH  10  13
ENDBRANCH   7  10
ENDBRANCH   4   7
ENDBRANCH   1   4
BRANCH   1  17
ATOM     17  N   UNL     1       4.967   4.811  16.751  0.00  0.00    +0.000 NA
ATOM     18  H   UNL     1       4.465   5.158  15.929  0.00  0.00    +0.000 HD
BRANCH  17  19
ATOM     19  C   UNL     1       6.312   4.260  16.383  0.00  0.00    +0.000 C 
BRANCH  19  20
ATOM     20  C   UNL     1       6.676   4.395  14.900  0.00  0.00    +0.000 C 
ATOM     21  O   UNL     1       7.430   5.258  14.447  0.00  0.00    +0.000 OA
ATOM     22  N   UNL     1       6.137   3.434  14.078  0.00  0.00    +0.000 N 
ATOM     23  H   UNL     1       5.666   2.595  14.392  0.00  0.00    +0.000 HD
BRANCH  22  24
ATOM     24  O   UNL     1       6.565   3.469  12.730  0.00  0.00    +0.000 OA
ATOM     25  H   UNL     1       5.790   3.077  12.261  0.00  0.00    +0.000 HD
ENDBRANCH  22  24
ENDBRANCH  19  20
BRANCH  19  26
ATOM     26  C   UNL     1       7.460   4.824  17.243  0.00  0.00    +0.000 C 
BRANCH  26  28
ATOM     27  C   UNL     1       7.763   5.790  19.594  0.00  0.00    +0.000 C 
ATOM     28  C   UNL     1       7.127   5.970  18.217  0.00  0.00    +0.000 C 
ATOM     29  C   UNL     1       7.594   7.299  17.608  0.00  0.00    +0.000 C 
ENDBRANCH  26  28
ENDBRANCH  19  26
ENDBRANCH  17  19
ENDBRANCH   1  17
TORSDOF 10
ENDMDL
MODEL 4
REMARK VINA RESULT:      -8.4      2.000      2.968
REMARK  Name = 
REMARK  12 active torsions:
REMARK  status: ('A' for Active; 'I' for Inactive)
REMARK    1  A    between atoms: C_1  and  C_2
REMARK    2  A    between atoms: C_2  and  C_3
REMARK    3  A    between atoms: C_2  and  C_4
REMARK    4  A    between atoms: C_4  and  C_5
REMARK    5  A    between atoms: C_5  and  N_6
REMARK    6  A    between atoms: C_5  and  C_23
REMARK    7  A    between atoms: N_6  and  S_7
REMARK    8  A    between atoms: S_7  and  C_10
REMARK    9  A    between atoms: C_10  and  C_13
REMARK   10  A    between atoms: C_13  and  C_16
REMARK   11  A    between atoms: C_16  and  C_19
REMARK   12  A    between atoms: N_25  and  O_26
REMARK                            x       y       z     vdW  Elec       q    Type
REMARK                         _______ _______ _______ _____ _____    ______ ____
ROOT
ATOM      1  S   UNL     1       4.646   4.312  18.270  0.00  0.00    +0.000 S 
ATOM      2  O   UNL     1       5.566   3.934  19.320  0.00  0.00    +0.000 OA
ATOM      3  O   UNL     1       4.217   5.683  18.110  0.00  0.00    +0.000 OA
ENDROOT
BRANCH   1   4
ATOM      4  C   UNL     1       3.190   3.194  18.291  0.00  0.00    +0.000 C 
ATOM      5  F   UNL     1       2.739   2.963  17.023  0.00  0.00    +0.000 F 
ATOM      6  F   UNL     1       3.564   1.967  18.771  0.00  0.00    +0.000 F 
BRANCH   4   7
ATOM      7  C   UNL     1       2.116   3.813  19.157  0.00  0.00    +0.000 C 
ATOM      8  F   UNL     1       2.640   4.779  19.958  0.00  0.00    +0.000 F 
ATOM      9  F   UNL     1       1.168   4.417  18.390  0.00  0.00    +0.000 F 
BRANCH   7  10
ATOM     10  C   UNL     1       1.466   2.755  20.012  0.00  0.00    +0.000 C 
ATOM     11  F   UNL     1       0.115   2.942  20.043  0.00  0.00    +0.000 F 
ATOM     12  F   UNL     1       1.642   1.521  19.452  0.00  0.00    +0.000 F 
BRANCH  10  13
ATOM     13  C   UNL     1       2.035   2.773  21.427  0.00  0.00    +0.000 C 
ATOM     14  F   UNL     1       2.058   3.995  21.998  0.00  0.00    +0.000 F 
ATOM     15  F   UNL     1       1.327   1.965  22.255  0.00  0.00    +0.000 F 
ATOM     16  F   UNL     1       3.312   2.307  21.450  0.00  0.00    +0.000 F 
ENDBRANCH  10  13
ENDBRANCH   7  10
ENDBRANCH   4   7
ENDBRANCH   1   4
BRANCH   1  17
ATOM     17  N   UNL     1       5.430   3.877  16.803  0.00  0.00    +0.000 NA
ATOM     18  H   UNL     1       5.646   2.876  16.793  0.00  0.00    +0.000 HD
BRANCH  17  19
ATOM     19  C   UNL     1       6.605   4.699  16.364  0.00  0.00    +0.000 C 
BRANCH  19  20
ATOM     20  C   UNL     1       6.917   4.621  14.865  0.00  0.00    +0.000 C 
ATOM     21  O   UNL     1       7.698   5.373  14.280  0.00  0.00    +0.000 OA
ATOM     22  N   UNL     1       6.295   3.596  14.193  0.00  0.00    +0.000 N 
ATOM     23  H   UNL     1       5.791   2.833  14.628  0.00  0.00    +0.000 HD
BRANCH  22  24
ATOM     24  O   UNL     1       6.670   3.433  12.839  0.00  0.00    +0.000 OA
ATOM     25  H   UNL     1       7.400   2.772  12.908  0.00  0.00    +0.000 HD
ENDBRANCH  22  24
ENDBRANCH  19  20
BRANCH  19  26
ATOM     26  C   UNL     1       6.509   6.177  16.788  0.00  0.00    +0.000 C 
BRANCH  26  28
ATOM     27  C   UNL     1       7.645   8.321  17.606  0.00  0.00    +0.000 C 
ATOM     28  C   UNL     1       7.732   6.801  17.488  0.00  0.00    +0.000 C 
ATOM     29  C   UNL     1       7.878   6.186  18.887  0.00  0.00    +0.000 C 
ENDBRANCH  26  28
ENDBRANCH  19  26
ENDBRANCH  17  19
ENDBRANCH   1  17
TORSDOF 10
ENDMDL
MODEL 5
REMARK VINA RESULT:      -8.3      2.015      2.989
REMARK  Name = 
REMARK  12 active torsions:
REMARK  status: ('A' for Active; 'I' for Inactive)
REMARK    1  A    between atoms: C_1  and  C_2
REMARK    2  A    between atoms: C_2  and  C_3
REMARK    3  A    between atoms: C_2  and  C_4
REMARK    4  A    between atoms: C_4  and  C_5
REMARK    5  A    between atoms: C_5  and  N_6
REMARK    6  A    between atoms: C_5  and  C_23
REMARK    7  A    between atoms: N_6  and  S_7
REMARK    8  A    between atoms: S_7  and  C_10
REMARK    9  A    between atoms: C_10  and  C_13
REMARK   10  A    between atoms: C_13  and  C_16
REMARK   11  A    between atoms: C_16  and  C_19
REMARK   12  A    between atoms: N_25  and  O_26
REMARK                            x       y       z     vdW  Elec       q    Type
REMARK                         _______ _______ _______ _____ _____    ______ ____
ROOT
ATOM      1  S   UNL     1       4.686   4.601  18.522  0.00  0.00    +0.000 S 
ATOM      2  O   UNL     1       5.930   3.916  18.796  0.00  0.00    +0.000 OA
ATOM      3  O   UNL     1       4.089   5.484  19.498  0.00  0.00    +0.000 OA
ENDROOT
BRANCH   1   4
ATOM      4  C   UNL     1       3.440   3.398  17.913  0.00  0.00    +0.000 C 
ATOM      5  F   UNL     1       3.226   3.560  16.573  0.00  0.00    +0.000 F 
ATOM      6  F   UNL     1       3.928   2.126  18.050  0.00  0.00    +0.000 F 
BRANCH   4   7
ATOM      7  C   UNL     1       2.163   3.581  18.703  0.00  0.00    +0.000 C 
ATOM      8  F   UNL     1       1.985   4.888  19.036  0.00  0.00    +0.000 F 
ATOM      9  F   UNL     1       1.082   3.218  17.963  0.00  0.00    +0.000 F 
BRANCH   7  10
ATOM     10  C   UNL     1       2.210   2.750  19.961  0.00  0.00    +0.000 C 
ATOM     11  F   UNL     1       1.672   1.518  19.727  0.00  0.00    +0.000 F 
ATOM     12  F   UNL     1       3.506   2.510  20.320  0.00  0.00    +0.000 F 
BRANCH  10  13
ATOM     13  C   UNL     1       1.470   3.443  21.100  0.00  0.00    +0.000 C 
ATOM     14  F   UNL     1       0.415   4.185  20.704  0.00  0.00    +0.000 F 
ATOM     15  F   UNL     1       1.003   2.546  22.004  0.00  0.00    +0.000 F 
ATOM     16  F   UNL     1       2.297   4.273  21.789  0.00  0.00    +0.000 F 
ENDBRANCH  10  13
ENDBRANCH   7  10
ENDBRANCH   4   7
ENDBRANCH   1   4
BRANCH   1  17
ATOM     17  N   UNL     1       4.994   5.558  17.128  0.00  0.00    +0.000 NA
ATOM     18  H   UNL     1       4.401   5.261  16.348  0.00  0.00    +0.000 HD
BRANCH  17  19
ATOM     19  C   UNL     1       6.420   5.736  16.698  0.00  0.00    +0.000 C 
BRANCH  19  20
ATOM     20  C   UNL     1       6.762   5.116  15.338  0.00  0.00    +0.000 C 
ATOM     21  O   UNL     1       7.671   5.510  14.607  0.00  0.00    +0.000 OA
ATOM     22  N   UNL     1       6.005   4.024  14.990  0.00  0.00    +0.000 N 
ATOM     23  H   UNL     1       5.372   3.529  15.607  0.00  0.00    +0.000 HD
BRANCH  22  24
ATOM     24  O   UNL     1       6.391   3.363  13.800  0.00  0.00    +0.000 OA
ATOM     25  H   UNL     1       6.128   2.431  13.989  0.00  0.00    +0.000 HD
ENDBRANCH  22  24
ENDBRANCH  19  20
BRANCH  19  26
ATOM     26  C   UNL     1       6.886   7.205  16.721  0.00  0.00    +0.000 C 
BRANCH  26  28
ATOM     27  C   UNL     1       8.121   9.029  18.025  0.00  0.00    +0.000 C 
ATOM     28  C   UNL     1       8.091   7.559  17.612  0.00  0.00    +0.000 C 
ATOM     29  C   UNL     1       8.065   6.675  18.866  0.00  0.00    +0.000 C 
ENDBRANCH  26  28
ENDBRANCH  19  26
ENDBRANCH  17  19
ENDBRANCH   1  17
TORSDOF 10
ENDMDL
MODEL 6
REMARK VINA RESULT:      -8.3      1.276      1.432
REMARK  Name = 
REMARK  12 active torsions:
REMARK  status: ('A' for Active; 'I' for Inactive)
REMARK    1  A    between atoms: C_1  and  C_2
REMARK    2  A    between atoms: C_2  and  C_3
REMARK    3  A    between atoms: C_2  and  C_4
REMARK    4  A    between atoms: C_4  and  C_5
REMARK    5  A    between atoms: C_5  and  N_6
REMARK    6  A    between atoms: C_5  and  C_23
REMARK    7  A    between atoms: N_6  and  S_7
REMARK    8  A    between atoms: S_7  and  C_10
REMARK    9  A    between atoms: C_10  and  C_13
REMARK   10  A    between atoms: C_13  and  C_16
REMARK   11  A    between atoms: C_16  and  C_19
REMARK   12  A    between atoms: N_25  and  O_26
REMARK                            x       y       z     vdW  Elec       q    Type
REMARK                         _______ _______ _______ _____ _____    ______ ____
ROOT
ATOM      1  S   UNL     1       4.763   4.172  18.680  0.00  0.00    +0.000 S 
ATOM      2  O   UNL     1       5.035   3.331  19.824  0.00  0.00    +0.000 OA
ATOM      3  O   UNL     1       4.566   5.597  18.829  0.00  0.00    +0.000 OA
ENDROOT
BRANCH   1   4
ATOM      4  C   UNL     1       3.398   3.447  17.690  0.00  0.00    +0.000 C 
ATOM      5  F   UNL     1       3.514   3.798  16.375  0.00  0.00    +0.000 F 
ATOM      6  F   UNL     1       3.496   2.081  17.709  0.00  0.00    +0.000 F 
BRANCH   4   7
ATOM      7  C   UNL     1       2.080   3.907  18.272  0.00  0.00    +0.000 C 
ATOM      8  F   UNL     1       2.219   5.110  18.889  0.00  0.00    +0.000 F 
ATOM      9  F   UNL     1       1.154   4.079  17.291  0.00  0.00    +0.000 F 
BRANCH   7  10
ATOM     10  C   UNL     1       1.571   2.893  19.266  0.00  0.00    +0.000 C 
ATOM     11  F   UNL     1       0.428   2.312  18.800  0.00  0.00    +0.000 F 
ATOM     12  F   UNL     1       2.465   1.868  19.395  0.00  0.00    +0.000 F 
BRANCH  10  13
ATOM     13  C   UNL     1       1.319   3.541  20.624  0.00  0.00    +0.000 C 
ATOM     14  F   UNL     1       2.419   4.074  21.195  0.00  0.00    +0.000 F 
ATOM     15  F   UNL     1       0.401   4.536  20.533  0.00  0.00    +0.000 F 
ATOM     16  F   UNL     1       0.813   2.644  21.510  0.00  0.00    +0.000 F 
ENDBRANCH  10  13
ENDBRANCH   7  10
ENDBRANCH   4   7
ENDBRANCH   1   4
BRANCH   1  17
ATOM     17  N   UNL     1       6.120   3.978  17.642  0.00  0.00    +0.000 NA
ATOM     18  H   UNL     1       6.906   3.562  18.150  0.00  0.00    +0.000 HD
BRANCH  17  19
ATOM     19  C   UNL     1       6.555   5.159  16.827  0.00  0.00    +0.000 C 
BRANCH  19  20
ATOM     20  C   UNL     1       7.301   6.243  17.615  0.00  0.00    +0.000 C 
ATOM     21  O   UNL     1       7.881   6.046  18.684  0.00  0.00    +0.000 OA
ATOM     22  N   UNL     1       7.333   7.480  17.017  0.00  0.00    +0.000 N 
ATOM     23  H   UNL     1       7.046   7.677  16.066  0.00  0.00    +0.000 HD
BRANCH  22  24
ATOM     24  O   UNL     1       8.123   8.456  17.668  0.00  0.00    +0.000 OA
ATOM     25  H   UNL     1       7.700   9.295  17.366  0.00  0.00    +0.000 HD
ENDBRANCH  22  24
ENDBRANCH  19  20
BRANCH  19  26
ATOM     26  C   UNL     1       7.382   4.773  15.585  0.00  0.00    +0.000 C 
BRANCH  26  28
ATOM     27  C   UNL     1       7.768   5.259  13.101  0.00  0.00    +0.000 C 
ATOM     28  C   UNL     1       6.742   4.998  14.202  0.00  0.00    +0.000 C 
ATOM     29  C   UNL     1       5.897   3.770  13.834  0.00  0.00    +0.000 C 
ENDBRANCH  26  28
ENDBRANCH  19  26
ENDBRANCH  17  19
ENDBRANCH   1  17
TORSDOF 10
ENDMDL
MODEL 7
REMARK VINA RESULT:      -8.2      2.031      3.285
REMARK  Name = 
REMARK  12 active torsions:
REMARK  status: ('A' for Active; 'I' for Inactive)
REMARK    1  A    between atoms: C_1  and  C_2
REMARK    2  A    between atoms: C_2  and  C_3
REMARK    3  A    between atoms: C_2  and  C_4
REMARK    4  A    between atoms: C_4  and  C_5
REMARK    5  A    between atoms: C_5  and  N_6
REMARK    6  A    between atoms: C_5  and  C_23
REMARK    7  A    between atoms: N_6  and  S_7
REMARK    8  A    between atoms: S_7  and  C_10
REMARK    9  A    between atoms: C_10  and  C_13
REMARK   10  A    between atoms: C_13  and  C_16
REMARK   11  A    between atoms: C_16  and  C_19
REMARK   12  A    between atoms: N_25  and  O_26
REMARK                            x       y       z     vdW  Elec       q    Type
REMARK                         _______ _______ _______ _____ _____    ______ ____
ROOT
ATOM      1  S   UNL     1       3.498   5.981  18.457  0.00  0.00    +0.000 S 
ATOM      2  O   UNL     1       4.411   5.870  19.573  0.00  0.00    +0.000 OA
ATOM      3  O   UNL     1       2.999   7.267  18.024  0.00  0.00    +0.000 OA
ENDROOT
BRANCH   1   4
ATOM      4  C   UNL     1       2.104   4.806  18.680  0.00  0.00    +0.000 C 
ATOM      5  F   UNL     1       1.235   5.261  19.630  0.00  0.00    +0.000 F 
ATOM      6  F   UNL     1       1.374   4.741  17.523  0.00  0.00    +0.000 F 
BRANCH   4   7
ATOM      7  C   UNL     1       2.667   3.451  19.047  0.00  0.00    +0.000 C 
ATOM      8  F   UNL     1       2.913   2.713  17.932  0.00  0.00    +0.000 F 
ATOM      9  F   UNL     1       3.855   3.582  19.696  0.00  0.00    +0.000 F 
BRANCH   7  10
ATOM     10  C   UNL     1       1.695   2.709  19.930  0.00  0.00    +0.000 C 
ATOM     11  F   UNL     1       0.427   3.168  19.719  0.00  0.00    +0.000 F 
ATOM     12  F   UNL     1       1.657   1.388  19.585  0.00  0.00    +0.000 F 
BRANCH  10  13
ATOM     13  C   UNL     1       2.073   2.856  21.400  0.00  0.00    +0.000 C 
ATOM     14  F   UNL     1       1.122   2.434  22.260  0.00  0.00    +0.000 F 
ATOM     15  F   UNL     1       3.202   2.162  21.691  0.00  0.00    +0.000 F 
ATOM     16  F   UNL     1       2.338   4.151  21.713  0.00  0.00    +0.000 F 
ENDBRANCH  10  13
ENDBRANCH   7  10
ENDBRANCH   4   7
ENDBRANCH   1   4
BRANCH   1  17
ATOM     17  N   UNL     1       4.339   5.312  17.116  0.00  0.00    +0.000 NA
ATOM     18  H   UNL     1       4.053   4.342  16.957  0.00  0.00    +0.000 HD
BRANCH  17  19
ATOM     19  C   UNL     1       5.831   5.459  17.078  0.00  0.00    +0.000 C 
BRANCH  19  20
ATOM     20  C   UNL     1       6.531   4.619  16.003  0.00  0.00    +0.000 C 
ATOM     21  O   UNL     1       7.690   4.208  16.090  0.00  0.00    +0.000 OA
ATOM     22  N   UNL     1       5.751   4.292  14.920  0.00  0.00    +0.000 N 
ATOM     23  H   UNL     1       4.750   4.429  14.858  0.00  0.00    +0.000 HD
BRANCH  22  24
ATOM     24  O   UNL     1       6.340   3.413  13.982  0.00  0.00    +0.000 OA
ATOM     25  H   UNL     1       5.775   2.609  14.072  0.00  0.00    +0.000 HD
ENDBRANCH  22  24
ENDBRANCH  19  20
BRANCH  19  26
ATOM     26  C   UNL     1       6.299   6.923  16.965  0.00  0.00    +0.000 C 
BRANCH  26  28
ATOM     27  C   UNL     1       7.865   8.768  17.802  0.00  0.00    +0.000 C 
ATOM     28  C   UNL     1       7.688   7.275  17.529  0.00  0.00    +0.000 C 
ATOM     29  C   UNL     1       7.919   6.487  18.826  0.00  0.00    +0.000 C 
ENDBRANCH  26  28
ENDBRANCH  19  26
ENDBRANCH  17  19
ENDBRANCH   1  17
TORSDOF 10
ENDMDL
MODEL 8
REMARK VINA RESULT:      -8.2      2.252      3.425
REMARK  Name = 
REMARK  12 active torsions:
REMARK  status: ('A' for Active; 'I' for Inactive)
REMARK    1  A    between atoms: C_1  and  C_2
REMARK    2  A    between atoms: C_2  and  C_3
REMARK    3  A    between atoms: C_2  and  C_4
REMARK    4  A    between atoms: C_4  and  C_5
REMARK    5  A    between atoms: C_5  and  N_6
REMARK    6  A    between atoms: C_5  and  C_23
REMARK    7  A    between atoms: N_6  and  S_7
REMARK    8  A    between atoms: S_7  and  C_10
REMARK    9  A    between atoms: C_10  and  C_13
REMARK   10  A    between atoms: C_13  and  C_16
REMARK   11  A    between atoms: C_16  and  C_19
REMARK   12  A    between atoms: N_25  and  O_26
REMARK                            x       y       z     vdW  Elec       q    Type
REMARK                         _______ _______ _______ _____ _____    ______ ____
ROOT
ATOM      1  S   UNL     1       4.065   4.068  17.700  0.00  0.00    +0.000 S 
ATOM      2  O   UNL     1       2.870   3.659  16.996  0.00  0.00    +0.000 OA
ATOM      3  O   UNL     1       4.950   3.095  18.299  0.00  0.00    +0.000 OA
ENDROOT
BRANCH   1   4
ATOM      4  C   UNL     1       3.648   5.377  18.917  0.00  0.00    +0.000 C 
ATOM      5  F   UNL     1       4.600   5.450  19.894  0.00  0.00    +0.000 F 
ATOM      6  F   UNL     1       3.671   6.599  18.299  0.00  0.00    +0.000 F 
BRANCH   4   7
ATOM      7  C   UNL     1       2.282   5.084  19.496  0.00  0.00    +0.000 C 
ATOM      8  F   UNL     1       1.715   6.216  19.990  0.00  0.00    +0.000 F 
ATOM      9  F   UNL     1       1.442   4.616  18.534  0.00  0.00    +0.000 F 
BRANCH   7  10
ATOM     10  C   UNL     1       2.396   4.062  20.600  0.00  0.00    +0.000 C 
ATOM     11  F   UNL     1       3.554   3.353  20.463  0.00  0.00    +0.000 F 
ATOM     12  F   UNL     1       2.501   4.686  21.811  0.00  0.00    +0.000 F 
BRANCH  10  13
ATOM     13  C   UNL     1       1.196   3.121  20.597  0.00  0.00    +0.000 C 
ATOM     14  F   UNL     1       0.936   2.555  21.794  0.00  0.00    +0.000 F 
ATOM     15  F   UNL     1       0.065   3.763  20.211  0.00  0.00    +0.000 F 
ATOM     16  F   UNL     1       1.371   2.105  19.712  0.00  0.00    +0.000 F 
ENDBRANCH  10  13
ENDBRANCH   7  10
ENDBRANCH   4   7
ENDBRANCH   1   4
BRANCH   1  17
ATOM     17  N   UNL     1       5.003   4.923  16.540  0.00  0.00    +0.000 NA
ATOM     18  H   UNL     1       4.441   5.144  15.713  0.00  0.00    +0.000 HD
BRANCH  17  19
ATOM     19  C   UNL     1       6.339   4.356  16.161  0.00  0.00    +0.000 C 
BRANCH  19  20
ATOM     20  C   UNL     1       6.701   4.503  14.678  0.00  0.00    +0.000 C 
ATOM     21  O   UNL     1       6.120   3.918  13.762  0.00  0.00    +0.000 OA
ATOM     22  N   UNL     1       7.711   5.395  14.411  0.00  0.00    +0.000 N 
ATOM     23  H   UNL     1       8.109   6.045  15.078  0.00  0.00    +0.000 HD
BRANCH  22  24
ATOM     24  O   UNL     1       7.971   5.637  13.042  0.00  0.00    +0.000 OA
ATOM     25  H   UNL     1       8.685   6.317  13.087  0.00  0.00    +0.000 HD
ENDBRANCH  22  24
ENDBRANCH  19  20
BRANCH  19  26
ATOM     26  C   UNL     1       7.498   4.892  17.023  0.00  0.00    +0.000 C 
BRANCH  26  28
ATOM     27  C   UNL     1       7.859   5.778  19.398  0.00  0.00    +0.000 C 
ATOM     28  C   UNL     1       7.175   5.994  18.050  0.00  0.00    +0.000 C 
ATOM     29  C   UNL     1       7.593   7.354  17.475  0.00  0.00    +0.000 C 
ENDBRANCH  26  28
ENDBRANCH  19  26
ENDBRANCH  17  19
ENDBRANCH   1  17
TORSDOF 10
ENDMDL
MODEL 9
REMARK VINA RESULT:      -8.2      2.381      3.457
REMARK  Name = 
REMARK  12 active torsions:
REMARK  status: ('A' for Active; 'I' for Inactive)
REMARK    1  A    between atoms: C_1  and  C_2
REMARK    2  A    between atoms: C_2  and  C_3
REMARK    3  A    between atoms: C_2  and  C_4
REMARK    4  A    between atoms: C_4  and  C_5
REMARK    5  A    between atoms: C_5  and  N_6
REMARK    6  A    between atoms: C_5  and  C_23
REMARK    7  A    between atoms: N_6  and  S_7
REMARK    8  A    between atoms: S_7  and  C_10
REMARK    9  A    between atoms: C_10  and  C_13
REMARK   10  A    between atoms: C_13  and  C_16
REMARK   11  A    between atoms: C_16  and  C_19
REMARK   12  A    between atoms: N_25  and  O_26
REMARK                            x       y       z     vdW  Elec       q    Type
REMARK                         _______ _______ _______ _____ _____    ______ ____
ROOT
ATOM      1  S   UNL     1       4.345   4.389  17.288  0.00  0.00    +0.000 S 
ATOM      2  O   UNL     1       4.328   5.733  16.753  0.00  0.00    +0.000 OA
ATOM      3  O   UNL     1       3.421   3.384  16.813  0.00  0.00    +0.000 OA
ENDROOT
BRANCH   1   4
ATOM      4  C   UNL     1       4.321   4.453  19.122  0.00  0.00    +0.000 C 
ATOM      5  F   UNL     1       4.962   3.369  19.653  0.00  0.00    +0.000 F 
ATOM      6  F   UNL     1       5.035   5.540  19.550  0.00  0.00    +0.000 F 
BRANCH   4   7
ATOM      7  C   UNL     1       2.883   4.527  19.586  0.00  0.00    +0.000 C 
ATOM      8  F   UNL     1       2.718   5.535  20.484  0.00  0.00    +0.000 F 
ATOM      9  F   UNL     1       2.054   4.797  18.542  0.00  0.00    +0.000 F 
BRANCH   7  10
ATOM     10  C   UNL     1       2.476   3.222  20.223  0.00  0.00    +0.000 C 
ATOM     11  F   UNL     1       2.843   2.178  19.424  0.00  0.00    +0.000 F 
ATOM     12  F   UNL     1       3.159   3.034  21.391  0.00  0.00    +0.000 F 
BRANCH  10  13
ATOM     13  C   UNL     1       0.974   3.187  20.483  0.00  0.00    +0.000 C 
ATOM     14  F   UNL     1       0.262   2.554  19.527  0.00  0.00    +0.000 F 
ATOM     15  F   UNL     1       0.690   2.572  21.658  0.00  0.00    +0.000 F 
ATOM     16  F   UNL     1       0.464   4.443  20.584  0.00  0.00    +0.000 F 
ENDBRANCH  10  13
ENDBRANCH   7  10
ENDBRANCH   4   7
ENDBRANCH   1   4
BRANCH   1  17
ATOM     17  N   UNL     1       5.922   3.790  16.956  0.00  0.00    +0.000 NA
ATOM     18  H   UNL     1       6.308   3.315  17.777  0.00  0.00    +0.000 HD
BRANCH  17  19
ATOM     19  C   UNL     1       6.917   4.733  16.347  0.00  0.00    +0.000 C 
BRANCH  19  20
ATOM     20  C   UNL     1       7.002   4.674  14.817  0.00  0.00    +0.000 C 
ATOM     21  O   UNL     1       6.282   3.968  14.110  0.00  0.00    +0.000 OA
ATOM     22  N   UNL     1       7.923   5.524  14.252  0.00  0.00    +0.000 N 
ATOM     23  H   UNL     1       8.416   6.260  14.741  0.00  0.00    +0.000 HD
BRANCH  22  24
ATOM     24  O   UNL     1       7.925   5.575  12.838  0.00  0.00    +0.000 OA
ATOM     25  H   UNL     1       8.875   5.408  12.630  0.00  0.00    +0.000 HD
ENDBRANCH  22  24
ENDBRANCH  19  20
BRANCH  19  26
ATOM     26  C   UNL     1       6.725   6.195  16.791  0.00  0.00    +0.000 C 
BRANCH  26  28
ATOM     27  C   UNL     1       7.708   8.368  17.724  0.00  0.00    +0.000 C 
ATOM     28  C   UNL     1       7.863   6.854  17.593  0.00  0.00    +0.000 C 
ATOM     29  C   UNL     1       7.923   6.223  18.991  0.00  0.00    +0.000 C 
ENDBRANCH  26  28
ENDBRANCH  19  26
ENDBRANCH  17  19
ENDBRANCH   1  17
TORSDOF 10
ENDMDL
