MODEL 1
REMARK VINA RESULT:      -7.5      0.000      0.000
REMARK  Name = 
REMARK  4 active torsions:
REMARK  status: ('A' for Active; 'I' for Inactive)
REMARK    1  A    between atoms: C_1  and  O_2
REMARK    2  A    between atoms: O_2  and  C_3
REMARK    3  A    between atoms: C_19  and  O_20
REMARK    4  A    between atoms: O_20  and  C_21
REMARK                            x       y       z     vdW  Elec       q    Type
REMARK                         _______ _______ _______ _____ _____    ______ ____
ROOT
ATOM      1  C   UNL     1       5.102   4.960  17.599  0.00  0.00    +0.000 A 
ATOM      2  C   UNL     1       4.500   6.072  16.974  0.00  0.00    +0.000 A 
ATOM      3  C   UNL     1       3.575   6.878  17.627  0.00  0.00    +0.000 A 
ATOM      4  N   UNL     1       3.094   7.998  17.047  0.00  0.00    +0.000 NA
ATOM      5  N   UNL     1       2.265   8.835  17.680  0.00  0.00    +0.000 NA
ATOM      6  C   UNL     1       1.888   8.523  18.944  0.00  0.00    +0.000 A 
ATOM      7  C   UNL     1       1.068   9.240  19.856  0.00  0.00    +0.000 A 
ATOM      8  C   UNL     1       0.371  10.459  19.853  0.00  0.00    +0.000 A 
ATOM      9  C   UNL     1      -0.333  10.802  21.008  0.00  0.00    +0.000 A 
ATOM     10  C   UNL     1      -0.313   9.934  22.095  0.00  0.00    +0.000 A 
ATOM     11  N   UNL     1       0.346   8.754  22.150  0.00  0.00    +0.000 NA
ATOM     12  C   UNL     1       1.007   8.474  21.013  0.00  0.00    +0.000 A 
ATOM     13  N   UNL     1       1.758   7.348  20.826  0.00  0.00    +0.000 N 
ATOM     14  C   UNL     1       2.323   7.360  19.575  0.00  0.00    +0.000 A 
ATOM     15  C   UNL     1       3.204   6.495  18.919  0.00  0.00    +0.000 A 
ATOM     16  C   UNL     1       3.707   5.328  19.525  0.00  0.00    +0.000 A 
ATOM     17  C   UNL     1       4.668   4.556  18.870  0.00  0.00    +0.000 A 
ATOM     18  H   UNL     1       1.880   6.638  21.531  0.00  0.00    +0.000 HD
ENDROOT
BRANCH   1  20
ATOM     19  C   UNL     1       7.430   4.642  17.324  0.00  0.00    +0.000 C 
ATOM     20  O   UNL     1       6.098   4.260  16.967  0.00  0.00    +0.000 OA
ENDBRANCH   1  20
BRANCH  17  21
ATOM     21  O   UNL     1       5.064   3.494  19.632  0.00  0.00    +0.000 OA
ATOM     22  C   UNL     1       4.142   2.454  19.914  0.00  0.00    +0.000 C 
ENDBRANCH  17  21
TORSDOF 2
ENDMDL
MODEL 2
REMARK VINA RESULT:      -7.4      4.131      5.358
REMARK  Name = 
REMARK  4 active torsions:
REMARK  status: ('A' for Active; 'I' for Inactive)
REMARK    1  A    between atoms: C_1  and  O_2
REMARK    2  A    between atoms: O_2  and  C_3
REMARK    3  A    between atoms: C_19  and  O_20
REMARK    4  A    between atoms: O_20  and  C_21
REMARK                            x       y       z     vdW  Elec       q    Type
REMARK                         _______ _______ _______ _____ _____    ______ ____
ROOT
ATOM      1  C   UNL     1       7.216   5.116  14.634  0.00  0.00    +0.000 A 
ATOM      2  C   UNL     1       6.942   5.834  15.817  0.00  0.00    +0.000 A 
ATOM      3  C   UNL     1       5.853   5.540  16.627  0.00  0.00    +0.000 A 
ATOM      4  N   UNL     1       5.671   6.168  17.808  0.00  0.00    +0.000 NA
ATOM      5  N   UNL     1       4.678   5.851  18.646  0.00  0.00    +0.000 NA
ATOM      6  C   UNL     1       3.819   4.872  18.272  0.00  0.00    +0.000 A 
ATOM      7  C   UNL     1       2.719   4.306  18.971  0.00  0.00    +0.000 A 
ATOM      8  C   UNL     1       2.112   4.485  20.225  0.00  0.00    +0.000 A 
ATOM      9  C   UNL     1       1.012   3.682  20.529  0.00  0.00    +0.000 A 
ATOM     10  C   UNL     1       0.572   2.754  19.591  0.00  0.00    +0.000 A 
ATOM     11  N   UNL     1       1.125   2.539  18.375  0.00  0.00    +0.000 NA
ATOM     12  C   UNL     1       2.180   3.337  18.135  0.00  0.00    +0.000 A 
ATOM     13  N   UNL     1       2.916   3.303  16.984  0.00  0.00    +0.000 N 
ATOM     14  C   UNL     1       3.935   4.219  17.048  0.00  0.00    +0.000 A 
ATOM     15  C   UNL     1       4.985   4.539  16.180  0.00  0.00    +0.000 A 
ATOM     16  C   UNL     1       5.173   3.882  14.950  0.00  0.00    +0.000 A 
ATOM     17  C   UNL     1       6.298   4.161  14.171  0.00  0.00    +0.000 A 
ATOM     18  H   UNL     1       2.727   2.669  16.223  0.00  0.00    +0.000 HD
ENDROOT
BRANCH   1  20
ATOM     19  C   UNL     1       8.165   5.819  12.585  0.00  0.00    +0.000 C 
ATOM     20  O   UNL     1       8.363   5.354  13.924  0.00  0.00    +0.000 OA
ENDBRANCH   1  20
BRANCH  17  21
ATOM     21  O   UNL     1       6.329   3.396  13.040  0.00  0.00    +0.000 OA
ATOM     22  C   UNL     1       5.214   3.398  12.164  0.00  0.00    +0.000 C 
ENDBRANCH  17  21
TORSDOF 2
ENDMDL
MODEL 3
REMARK VINA RESULT:      -7.2      3.346      6.657
REMARK  Name = 
REMARK  4 active torsions:
REMARK  status: ('A' for Active; 'I' for Inactive)
REMARK    1  A    between atoms: C_1  and  O_2
REMARK    2  A    between atoms: O_2  and  C_3
REMARK    3  A    between atoms: C_19  and  O_20
REMARK    4  A    between atoms: O_20  and  C_21
REMARK                            x       y       z     vdW  Elec       q    Type
REMARK                         _______ _______ _______ _____ _____    ______ ____
ROOT
ATOM      1  C   UNL     1      -0.182  11.150  20.024  0.00  0.00    +0.000 A 
ATOM      2  C   UNL     1       0.585  10.921  18.863  0.00  0.00    +0.000 A 
ATOM      3  C   UNL     1       1.337   9.766  18.686  0.00  0.00    +0.000 A 
ATOM      4  N   UNL     1       1.976   9.521  17.523  0.00  0.00    +0.000 NA
ATOM      5  N   UNL     1       2.641   8.383  17.295  0.00  0.00    +0.000 NA
ATOM      6  C   UNL     1       2.681   7.460  18.286  0.00  0.00    +0.000 A 
ATOM      7  C   UNL     1       3.264   6.164  18.304  0.00  0.00    +0.000 A 
ATOM      8  C   UNL     1       3.970   5.355  17.399  0.00  0.00    +0.000 A 
ATOM      9  C   UNL     1       4.370   4.093  17.840  0.00  0.00    +0.000 A 
ATOM     10  C   UNL     1       4.057   3.699  19.136  0.00  0.00    +0.000 A 
ATOM     11  N   UNL     1       3.376   4.436  20.042  0.00  0.00    +0.000 NA
ATOM     12  C   UNL     1       3.014   5.640  19.566  0.00  0.00    +0.000 A 
ATOM     13  N   UNL     1       2.306   6.562  20.284  0.00  0.00    +0.000 N 
ATOM     14  C   UNL     1       2.073   7.678  19.519  0.00  0.00    +0.000 A 
ATOM     15  C   UNL     1       1.363   8.860  19.751  0.00  0.00    +0.000 A 
ATOM     16  C   UNL     1       0.696   9.115  20.963  0.00  0.00    +0.000 A 
ATOM     17  C   UNL     1      -0.090  10.260  21.105  0.00  0.00    +0.000 A 
ATOM     18  H   UNL     1       1.994   6.409  21.230  0.00  0.00    +0.000 HD
ENDROOT
BRANCH   1  20
ATOM     19  C   UNL     1      -2.308  12.071  19.548  0.00  0.00    +0.000 C 
ATOM     20  O   UNL     1      -1.004  12.243  20.113  0.00  0.00    +0.000 OA
ENDBRANCH   1  20
BRANCH  17  21
ATOM     21  O   UNL     1      -0.691  10.309  22.331  0.00  0.00    +0.000 OA
ATOM     22  C   UNL     1      -0.183   9.515  23.389  0.00  0.00    +0.000 C 
ENDBRANCH  17  21
TORSDOF 2
ENDMDL
MODEL 4
REMARK VINA RESULT:      -7.2      0.880      1.024
REMARK  Name = 
REMARK  4 active torsions:
REMARK  status: ('A' for Active; 'I' for Inactive)
REMARK    1  A    between atoms: C_1  and  O_2
REMARK    2  A    between atoms: O_2  and  C_3
REMARK    3  A    between atoms: C_19  and  O_20
REMARK    4  A    between atoms: O_20  and  C_21
REMARK                            x       y       z     vdW  Elec       q    Type
REMARK                         _______ _______ _______ _____ _____    ______ ____
ROOT
ATOM      1  C   UNL     1       4.459   5.791  17.601  0.00  0.00    +0.000 A 
ATOM      2  C   UNL     1       3.772   6.929  17.130  0.00  0.00    +0.000 A 
ATOM      3  C   UNL     1       2.898   7.653  17.933  0.00  0.00    +0.000 A 
ATOM      4  N   UNL     1       2.336   8.799  17.495  0.00  0.00    +0.000 NA
ATOM      5  N   UNL     1       1.555   9.558  18.271  0.00  0.00    +0.000 NA
ATOM      6  C   UNL     1       1.314   9.137  19.537  0.00  0.00    +0.000 A 
ATOM      7  C   UNL     1       0.573   9.754  20.579  0.00  0.00    +0.000 A 
ATOM      8  C   UNL     1      -0.149  10.948  20.743  0.00  0.00    +0.000 A 
ATOM      9  C   UNL     1      -0.742  11.178  21.985  0.00  0.00    +0.000 A 
ATOM     10  C   UNL     1      -0.594  10.229  22.991  0.00  0.00    +0.000 A 
ATOM     11  N   UNL     1       0.094   9.069  22.886  0.00  0.00    +0.000 NA
ATOM     12  C   UNL     1       0.645   8.899  21.671  0.00  0.00    +0.000 A 
ATOM     13  N   UNL     1       1.399   7.815  21.321  0.00  0.00    +0.000 N 
ATOM     14  C   UNL     1       1.836   7.942  20.026  0.00  0.00    +0.000 A 
ATOM     15  C   UNL     1       2.667   7.158  19.220  0.00  0.00    +0.000 A 
ATOM     16  C   UNL     1       3.254   5.964  19.677  0.00  0.00    +0.000 A 
ATOM     17  C   UNL     1       4.163   5.275  18.872  0.00  0.00    +0.000 A 
ATOM     18  H   UNL     1       1.607   7.056  21.952  0.00  0.00    +0.000 HD
ENDROOT
BRANCH   1  20
ATOM     19  C   UNL     1       6.666   5.840  16.753  0.00  0.00    +0.000 C 
ATOM     20  O   UNL     1       5.402   5.173  16.821  0.00  0.00    +0.000 OA
ENDBRANCH   1  20
BRANCH  17  21
ATOM     21  O   UNL     1       4.657   4.170  19.503  0.00  0.00    +0.000 OA
ATOM     22  C   UNL     1       4.103   2.897  19.219  0.00  0.00    +0.000 C 
ENDBRANCH  17  21
TORSDOF 2
ENDMDL
MODEL 5
REMARK VINA RESULT:      -7.1      3.849      7.396
REMARK  Name = 
REMARK  4 active torsions:
REMARK  status: ('A' for Active; 'I' for Inactive)
REMARK    1  A    between atoms: C_1  and  O_2
REMARK    2  A    between atoms: O_2  and  C_3
REMARK    3  A    between atoms: C_19  and  O_20
REMARK    4  A    between atoms: O_20  and  C_21
REMARK                            x       y       z     vdW  Elec       q    Type
REMARK                         _______ _______ _______ _____ _____    ______ ____
ROOT
ATOM      1  C   UNL     1       3.590   4.341  19.656  0.00  0.00    +0.000 A 
ATOM      2  C   UNL     1       4.618   5.244  19.314  0.00  0.00    +0.000 A 
ATOM      3  C   UNL     1       5.273   5.192  18.089  0.00  0.00    +0.000 A 
ATOM      4  N   UNL     1       6.177   6.132  17.741  0.00  0.00    +0.000 NA
ATOM      5  N   UNL     1       6.765   6.154  16.540  0.00  0.00    +0.000 NA
ATOM      6  C   UNL     1       6.443   5.178  15.657  0.00  0.00    +0.000 A 
ATOM      7  C   UNL     1       6.870   4.983  14.316  0.00  0.00    +0.000 A 
ATOM      8  C   UNL     1       7.712   5.649  13.411  0.00  0.00    +0.000 A 
ATOM      9  C   UNL     1       7.853   5.099  12.136  0.00  0.00    +0.000 A 
ATOM     10  C   UNL     1       7.162   3.933  11.823  0.00  0.00    +0.000 A 
ATOM     11  N   UNL     1       6.336   3.259  12.654  0.00  0.00    +0.000 NA
ATOM     12  C   UNL     1       6.236   3.832  13.866  0.00  0.00    +0.000 A 
ATOM     13  N   UNL     1       5.453   3.348  14.876  0.00  0.00    +0.000 N 
ATOM     14  C   UNL     1       5.547   4.162  15.977  0.00  0.00    +0.000 A 
ATOM     15  C   UNL     1       4.919   4.150  17.227  0.00  0.00    +0.000 A 
ATOM     16  C   UNL     1       3.976   3.170  17.588  0.00  0.00    +0.000 A 
ATOM     17  C   UNL     1       3.297   3.265  18.805  0.00  0.00    +0.000 A 
ATOM     18  H   UNL     1       4.882   2.522  14.789  0.00  0.00    +0.000 HD
ENDROOT
BRANCH   1  20
ATOM     19  C   UNL     1       1.760   5.376  20.740  0.00  0.00    +0.000 C 
ATOM     20  O   UNL     1       2.885   4.496  20.821  0.00  0.00    +0.000 OA
ENDBRANCH   1  20
BRANCH  17  21
ATOM     21  O   UNL     1       2.393   2.252  18.956  0.00  0.00    +0.000 OA
ATOM     22  C   UNL     1       1.031   2.478  18.636  0.00  0.00    +0.000 C 
ENDBRANCH  17  21
TORSDOF 2
ENDMDL
MODEL 6
REMARK VINA RESULT:      -7.0      3.367      6.511
REMARK  Name = 
REMARK  4 active torsions:
REMARK  status: ('A' for Active; 'I' for Inactive)
REMARK    1  A    between atoms: C_1  and  O_2
REMARK    2  A    between atoms: O_2  and  C_3
REMARK    3  A    between atoms: C_19  and  O_20
REMARK    4  A    between atoms: O_20  and  C_21
REMARK                            x       y       z     vdW  Elec       q    Type
REMARK                         _______ _______ _______ _____ _____    ______ ____
ROOT
ATOM      1  C   UNL     1       0.646  10.727  20.459  0.00  0.00    +0.000 A 
ATOM      2  C   UNL     1       1.145  10.298  19.212  0.00  0.00    +0.000 A 
ATOM      3  C   UNL     1       1.655   9.020  19.019  0.00  0.00    +0.000 A 
ATOM      4  N   UNL     1       2.028   8.595  17.793  0.00  0.00    +0.000 NA
ATOM      5  N   UNL     1       2.448   7.347  17.561  0.00  0.00    +0.000 NA
ATOM      6  C   UNL     1       2.513   6.492  18.611  0.00  0.00    +0.000 A 
ATOM      7  C   UNL     1       2.871   5.118  18.650  0.00  0.00    +0.000 A 
ATOM      8  C   UNL     1       3.262   4.144  17.717  0.00  0.00    +0.000 A 
ATOM      9  C   UNL     1       3.524   2.860  18.198  0.00  0.00    +0.000 A 
ATOM     10  C   UNL     1       3.387   2.606  19.558  0.00  0.00    +0.000 A 
ATOM     11  N   UNL     1       3.008   3.505  20.494  0.00  0.00    +0.000 NA
ATOM     12  C   UNL     1       2.767   4.724  19.978  0.00  0.00    +0.000 A 
ATOM     13  N   UNL     1       2.359   5.798  20.717  0.00  0.00    +0.000 N 
ATOM     14  C   UNL     1       2.178   6.889  19.904  0.00  0.00    +0.000 A 
ATOM     15  C   UNL     1       1.723   8.190  20.142  0.00  0.00    +0.000 A 
ATOM     16  C   UNL     1       1.333   8.630  21.420  0.00  0.00    +0.000 A 
ATOM     17  C   UNL     1       0.782   9.903  21.586  0.00  0.00    +0.000 A 
ATOM     18  H   UNL     1       2.200   5.759  21.712  0.00  0.00    +0.000 HD
ENDROOT
BRANCH   1  20
ATOM     19  C   UNL     1       0.922  13.076  20.500  0.00  0.00    +0.000 C 
ATOM     20  O   UNL     1       0.041  11.951  20.584  0.00  0.00    +0.000 OA
ENDBRANCH   1  20
BRANCH  17  21
ATOM     21  O   UNL     1       0.426  10.131  22.885  0.00  0.00    +0.000 OA
ATOM     22  C   UNL     1      -0.947  10.165  23.236  0.00  0.00    +0.000 C 
ENDBRANCH  17  21
TORSDOF 2
ENDMDL
MODEL 7
REMARK VINA RESULT:      -6.9      1.609      1.991
REMARK  Name = 
REMARK  4 active torsions:
REMARK  status: ('A' for Active; 'I' for Inactive)
REMARK    1  A    between atoms: C_1  and  O_2
REMARK    2  A    between atoms: O_2  and  C_3
REMARK    3  A    between atoms: C_19  and  O_20
REMARK    4  A    between atoms: O_20  and  C_21
REMARK                            x       y       z     vdW  Elec       q    Type
REMARK                         _______ _______ _______ _____ _____    ______ ____
ROOT
ATOM      1  C   UNL     1       3.454   4.349  19.032  0.00  0.00    +0.000 A 
ATOM      2  C   UNL     1       3.331   5.484  18.205  0.00  0.00    +0.000 A 
ATOM      3  C   UNL     1       2.670   6.635  18.618  0.00  0.00    +0.000 A 
ATOM      4  N   UNL     1       2.657   7.746  17.852  0.00  0.00    +0.000 NA
ATOM      5  N   UNL     1       2.098   8.891  18.256  0.00  0.00    +0.000 NA
ATOM      6  C   UNL     1       1.510   8.916  19.477  0.00  0.00    +0.000 A 
ATOM      7  C   UNL     1       0.891   9.989  20.171  0.00  0.00    +0.000 A 
ATOM      8  C   UNL     1       0.650  11.351  19.928  0.00  0.00    +0.000 A 
ATOM      9  C   UNL     1      -0.012  12.076  20.920  0.00  0.00    +0.000 A 
ATOM     10  C   UNL     1      -0.399  11.427  22.088  0.00  0.00    +0.000 A 
ATOM     11  N   UNL     1      -0.186  10.122  22.372  0.00  0.00    +0.000 NA
ATOM     12  C   UNL     1       0.456   9.472  21.385  0.00  0.00    +0.000 A 
ATOM     13  N   UNL     1       0.797   8.151  21.438  0.00  0.00    +0.000 N 
ATOM     14  C   UNL     1       1.459   7.788  20.292  0.00  0.00    +0.000 A 
ATOM     15  C   UNL     1       2.060   6.595  19.875  0.00  0.00    +0.000 A 
ATOM     16  C   UNL     1       2.073   5.438  20.676  0.00  0.00    +0.000 A 
ATOM     17  C   UNL     1       2.780   4.307  20.262  0.00  0.00    +0.000 A 
ATOM     18  H   UNL     1       0.599   7.557  22.229  0.00  0.00    +0.000 HD
ENDROOT
BRANCH   1  20
ATOM     19  C   UNL     1       3.497   2.236  17.970  0.00  0.00    +0.000 C 
ATOM     20  O   UNL     1       4.214   3.279  18.638  0.00  0.00    +0.000 OA
ENDBRANCH   1  20
BRANCH  17  21
ATOM     21  O   UNL     1       2.713   3.305  21.188  0.00  0.00    +0.000 OA
ATOM     22  C   UNL     1       1.456   2.734  21.510  0.00  0.00    +0.000 C 
ENDBRANCH  17  21
TORSDOF 2
ENDMDL
MODEL 8
REMARK VINA RESULT:      -6.9      3.353      6.279
REMARK  Name = 
REMARK  4 active torsions:
REMARK  status: ('A' for Active; 'I' for Inactive)
REMARK    1  A    between atoms: C_1  and  O_2
REMARK    2  A    between atoms: O_2  and  C_3
REMARK    3  A    between atoms: C_19  and  O_20
REMARK    4  A    between atoms: O_20  and  C_21
REMARK                            x       y       z     vdW  Elec       q    Type
REMARK                         _______ _______ _______ _____ _____    ______ ____
ROOT
ATOM      1  C   UNL     1       0.860  10.668  19.078  0.00  0.00    +0.000 A 
ATOM      2  C   UNL     1       1.717   9.931  18.234  0.00  0.00    +0.000 A 
ATOM      3  C   UNL     1       2.127   8.639  18.539  0.00  0.00    +0.000 A 
ATOM      4  N   UNL     1       2.858   7.915  17.667  0.00  0.00    +0.000 NA
ATOM      5  N   UNL     1       3.200   6.642  17.897  0.00  0.00    +0.000 NA
ATOM      6  C   UNL     1       2.805   6.080  19.065  0.00  0.00    +0.000 A 
ATOM      7  C   UNL     1       2.982   4.755  19.547  0.00  0.00    +0.000 A 
ATOM      8  C   UNL     1       3.571   3.573  19.073  0.00  0.00    +0.000 A 
ATOM      9  C   UNL     1       3.514   2.447  19.897  0.00  0.00    +0.000 A 
ATOM     10  C   UNL     1       2.885   2.547  21.133  0.00  0.00    +0.000 A 
ATOM     11  N   UNL     1       2.298   3.658  21.632  0.00  0.00    +0.000 NA
ATOM     12  C   UNL     1       2.381   4.710  20.799  0.00  0.00    +0.000 A 
ATOM     13  N   UNL     1       1.854   5.941  21.069  0.00  0.00    +0.000 N 
ATOM     14  C   UNL     1       2.083   6.794  20.019  0.00  0.00    +0.000 A 
ATOM     15  C   UNL     1       1.711   8.118  19.768  0.00  0.00    +0.000 A 
ATOM     16  C   UNL     1       0.947   8.872  20.678  0.00  0.00    +0.000 A 
ATOM     17  C   UNL     1       0.508  10.153  20.334  0.00  0.00    +0.000 A 
ATOM     18  H   UNL     1       1.354   6.157  21.918  0.00  0.00    +0.000 HD
ENDROOT
BRANCH   1  20
ATOM     19  C   UNL     1       1.295  12.982  18.845  0.00  0.00    +0.000 C 
ATOM     20  O   UNL     1       0.381  11.892  18.688  0.00  0.00    +0.000 OA
ENDBRANCH   1  20
BRANCH  17  21
ATOM     21  O   UNL     1      -0.254  10.706  21.324  0.00  0.00    +0.000 OA
ATOM     22  C   UNL     1      -0.363  10.045  22.573  0.00  0.00    +0.000 C 
ENDBRANCH  17  21
TORSDOF 2
ENDMDL
MODEL 9
REMARK VINA RESULT:      -6.8      3.090      6.989
REMARK  Name = 
REMARK  4 active torsions:
REMARK  status: ('A' for Active; 'I' for Inactive)
REMARK    1  A    between atoms: C_1  and  O_2
REMARK    2  A    between atoms: O_2  and  C_3
REMARK    3  A    between atoms: C_19  and  O_20
REMARK    4  A    between atoms: O_20  and  C_21
REMARK                            x       y       z     vdW  Elec       q    Type
REMARK                         _______ _______ _______ _____ _____    ______ ____
ROOT
ATOM      1  C   UNL     1       0.692   9.137  20.619  0.00  0.00    +0.000 A 
ATOM      2  C   UNL     1       1.123   7.824  20.904  0.00  0.00    +0.000 A 
ATOM      3  C   UNL     1       1.979   7.126  20.061  0.00  0.00    +0.000 A 
ATOM      4  N   UNL     1       2.463   5.914  20.406  0.00  0.00    +0.000 NA
ATOM      5  N   UNL     1       3.350   5.254  19.654  0.00  0.00    +0.000 NA
ATOM      6  C   UNL     1       3.753   5.828  18.494  0.00  0.00    +0.000 A 
ATOM      7  C   UNL     1       4.704   5.383  17.538  0.00  0.00    +0.000 A 
ATOM      8  C   UNL     1       5.558   4.278  17.393  0.00  0.00    +0.000 A 
ATOM      9  C   UNL     1       6.368   4.233  16.257  0.00  0.00    +0.000 A 
ATOM     10  C   UNL     1       6.294   5.270  15.333  0.00  0.00    +0.000 A 
ATOM     11  N   UNL     1       5.495   6.356  15.428  0.00  0.00    +0.000 NA
ATOM     12  C   UNL     1       4.738   6.350  16.540  0.00  0.00    +0.000 A 
ATOM     13  N   UNL     1       3.859   7.341  16.871  0.00  0.00    +0.000 N 
ATOM     14  C   UNL     1       3.256   7.057  18.070  0.00  0.00    +0.000 A 
ATOM     15  C   UNL     1       2.342   7.756  18.867  0.00  0.00    +0.000 A 
ATOM     16  C   UNL     1       1.840   9.020  18.506  0.00  0.00    +0.000 A 
ATOM     17  C   UNL     1       1.015   9.724  19.386  0.00  0.00    +0.000 A 
ATOM     18  H   UNL     1       3.713   8.164  16.307  0.00  0.00    +0.000 HD
ENDROOT
BRANCH   1  20
ATOM     19  C   UNL     1       0.098   9.424  22.890  0.00  0.00    +0.000 C 
ATOM     20  O   UNL     1      -0.055   9.839  21.529  0.00  0.00    +0.000 OA
ENDBRANCH   1  20
BRANCH  17  21
ATOM     21  O   UNL     1       0.667  10.944  18.881  0.00  0.00    +0.000 OA
ATOM     22  C   UNL     1       1.669  11.924  18.669  0.00  0.00    +0.000 C 
ENDBRANCH  17  21
TORSDOF 2
ENDMDL
