MODEL 1
REMARK VINA RESULT:      -9.0      0.000      0.000
REMARK  Name = 
REMARK  3 active torsions:
REMARK  status: ('A' for Active; 'I' for Inactive)
REMARK    1  A    between atoms: C_2  and  C_5
REMARK    2  A    between atoms: C_7  and  C_8
REMARK    3  A    between atoms: N_15  and  C_16
REMARK                            x       y       z     vdW  Elec       q    Type
REMARK                         _______ _______ _______ _____ _____    ______ ____
ROOT
ATOM      1  C   UNL     1       3.530   4.214  19.170  0.00  0.00    +0.000 A 
ATOM      2  C   UNL     1       2.510   5.081  19.508  0.00  0.00    +0.000 A 
ATOM      3  C   UNL     1       2.859   6.363  19.018  0.00  0.00    +0.000 A 
ATOM      4  N   UNL     1       3.991   6.254  18.299  0.00  0.00    +0.000 NA
ATOM      5  N   UNL     1       4.420   4.918  18.388  0.00  0.00    +0.000 N 
ENDROOT
BRANCH   5   6
ATOM      6  C   UNL     1       5.614   4.508  17.623  0.00  0.00    +0.000 A 
ATOM      7  C   UNL     1       6.763   4.774  18.341  0.00  0.00    +0.000 A 
ATOM      8  C   UNL     1       7.458   5.875  17.877  0.00  0.00    +0.000 A 
ATOM      9  N   UNL     1       7.409   6.259  16.588  0.00  0.00    +0.000 NA
ATOM     10  C   UNL     1       6.747   5.461  15.745  0.00  0.00    +0.000 A 
ATOM     11  C   UNL     1       7.184   5.494  14.422  0.00  0.00    +0.000 A 
ATOM     12  C   UNL     1       6.798   4.516  13.519  0.00  0.00    +0.000 A 
ATOM     13 CL   UNL     1       7.490   4.477  11.944  0.00  0.00    +0.000 Cl
ATOM     14  C   UNL     1       5.931   3.513  13.934  0.00  0.00    +0.000 A 
ATOM     15  C   UNL     1       5.412   3.521  15.250  0.00  0.00    +0.000 A 
ATOM     16  C   UNL     1       5.792   4.510  16.196  0.00  0.00    +0.000 A 
ENDBRANCH   5   6
BRANCH   3  17
ATOM     17  C   UNL     1       2.124   7.628  19.338  0.00  0.00    +0.000 A 
ATOM     18  C   UNL     1       1.949   8.581  18.306  0.00  0.00    +0.000 A 
ATOM     19  C   UNL     1       1.248   9.782  18.497  0.00  0.00    +0.000 A 
ATOM     20  C   UNL     1       0.702  10.073  19.739  0.00  0.00    +0.000 A 
ATOM     21  C   UNL     1       0.876   9.170  20.789  0.00  0.00    +0.000 A 
ATOM     22  C   UNL     1       1.581   7.953  20.591  0.00  0.00    +0.000 A 
ENDBRANCH   3  17
BRANCH   1  24
ATOM     23  F   UNL     1       3.698   1.999  18.494  0.00  0.00    +0.000 F 
ATOM     24  C   UNL     1       3.686   2.823  19.578  0.00  0.00    +0.000 C 
ATOM     25  F   UNL     1       2.656   2.406  20.348  0.00  0.00    +0.000 F 
ATOM     26  F   UNL     1       4.837   2.597  20.248  0.00  0.00    +0.000 F 
ENDBRANCH   1  24
TORSDOF 3
ENDMDL
MODEL 2
REMARK VINA RESULT:      -8.9      0.143      1.199
REMARK  Name = 
REMARK  3 active torsions:
REMARK  status: ('A' for Active; 'I' for Inactive)
REMARK    1  A    between atoms: C_2  and  C_5
REMARK    2  A    between atoms: C_7  and  C_8
REMARK    3  A    between atoms: N_15  and  C_16
REMARK                            x       y       z     vdW  Elec       q    Type
REMARK                         _______ _______ _______ _____ _____    ______ ____
ROOT
ATOM      1  C   UNL     1       3.444   4.263  19.065  0.00  0.00    +0.000 A 
ATOM      2  C   UNL     1       2.442   5.157  19.386  0.00  0.00    +0.000 A 
ATOM      3  C   UNL     1       2.820   6.423  18.874  0.00  0.00    +0.000 A 
ATOM      4  N   UNL     1       3.951   6.276  18.160  0.00  0.00    +0.000 NA
ATOM      5  N   UNL     1       4.350   4.934  18.273  0.00  0.00    +0.000 N 
ENDROOT
BRANCH   5   6
ATOM      6  C   UNL     1       5.537   4.485  17.519  0.00  0.00    +0.000 A 
ATOM      7  C   UNL     1       6.684   4.682  18.260  0.00  0.00    +0.000 A 
ATOM      8  C   UNL     1       7.437   5.758  17.831  0.00  0.00    +0.000 A 
ATOM      9  N   UNL     1       7.427   6.170  16.550  0.00  0.00    +0.000 NA
ATOM     10  C   UNL     1       6.744   5.422  15.680  0.00  0.00    +0.000 A 
ATOM     11  C   UNL     1       7.203   5.462  14.364  0.00  0.00    +0.000 A 
ATOM     12  C   UNL     1       6.787   4.522  13.435  0.00  0.00    +0.000 A 
ATOM     13 CL   UNL     1       7.503   4.483  11.870  0.00  0.00    +0.000 Cl
ATOM     14  C   UNL     1       5.868   3.551  13.815  0.00  0.00    +0.000 A 
ATOM     15  C   UNL     1       5.329   3.557  15.122  0.00  0.00    +0.000 A 
ATOM     16  C   UNL     1       5.739   4.508  16.095  0.00  0.00    +0.000 A 
ENDBRANCH   5   6
BRANCH   3  17
ATOM     17  C   UNL     1       2.112   7.709  19.170  0.00  0.00    +0.000 A 
ATOM     18  C   UNL     1       1.614   7.913  20.480  0.00  0.00    +0.000 A 
ATOM     19  C   UNL     1       0.965   9.097  20.864  0.00  0.00    +0.000 A 
ATOM     20  C   UNL     1       0.785  10.118  19.942  0.00  0.00    +0.000 A 
ATOM     21  C   UNL     1       1.239   9.943  18.634  0.00  0.00    +0.000 A 
ATOM     22  C   UNL     1       1.900   8.747  18.249  0.00  0.00    +0.000 A 
ENDBRANCH   3  17
BRANCH   1  24
ATOM     23  F   UNL     1       4.746   2.678  20.154  0.00  0.00    +0.000 F 
ATOM     24  C   UNL     1       3.569   2.877  19.498  0.00  0.00    +0.000 C 
ATOM     25  F   UNL     1       3.581   2.021  18.451  0.00  0.00    +0.000 F 
ATOM     26  F   UNL     1       2.587   2.498  20.344  0.00  0.00    +0.000 F 
ENDBRANCH   1  24
TORSDOF 3
ENDMDL
MODEL 3
REMARK VINA RESULT:      -8.6      0.924      1.246
REMARK  Name = 
REMARK  3 active torsions:
REMARK  status: ('A' for Active; 'I' for Inactive)
REMARK    1  A    between atoms: C_2  and  C_5
REMARK    2  A    between atoms: C_7  and  C_8
REMARK    3  A    between atoms: N_15  and  C_16
REMARK                            x       y       z     vdW  Elec       q    Type
REMARK                         _______ _______ _______ _____ _____    ______ ____
ROOT
ATOM      1  C   UNL     1       2.831   4.328  19.746  0.00  0.00    +0.000 A 
ATOM      2  C   UNL     1       1.861   5.258  20.061  0.00  0.00    +0.000 A 
ATOM      3  C   UNL     1       2.361   6.534  19.703  0.00  0.00    +0.000 A 
ATOM      4  N   UNL     1       3.543   6.372  19.080  0.00  0.00    +0.000 NA
ATOM      5  N   UNL     1       3.846   5.000  19.101  0.00  0.00    +0.000 N 
ENDROOT
BRANCH   5   6
ATOM      6  C   UNL     1       5.068   4.537  18.414  0.00  0.00    +0.000 A 
ATOM      7  C   UNL     1       6.144   4.550  19.278  0.00  0.00    +0.000 A 
ATOM      8  C   UNL     1       7.016   5.597  19.055  0.00  0.00    +0.000 A 
ATOM      9  N   UNL     1       7.170   6.150  17.837  0.00  0.00    +0.000 NA
ATOM     10  C   UNL     1       6.526   5.565  16.823  0.00  0.00    +0.000 A 
ATOM     11  C   UNL     1       7.122   5.712  15.571  0.00  0.00    +0.000 A 
ATOM     12  C   UNL     1       6.735   4.921  14.501  0.00  0.00    +0.000 A 
ATOM     13 CL   UNL     1       7.605   4.995  13.017  0.00  0.00    +0.000 Cl
ATOM     14  C   UNL     1       5.711   3.998  14.673  0.00  0.00    +0.000 A 
ATOM     15  C   UNL     1       5.041   3.904  15.915  0.00  0.00    +0.000 A 
ATOM     16  C   UNL     1       5.417   4.701  17.029  0.00  0.00    +0.000 A 
ENDBRANCH   5   6
BRANCH   3  17
ATOM     17  C   UNL     1       1.710   7.835  20.055  0.00  0.00    +0.000 A 
ATOM     18  C   UNL     1       1.599   8.824  19.047  0.00  0.00    +0.000 A 
ATOM     19  C   UNL     1       0.976  10.062  19.269  0.00  0.00    +0.000 A 
ATOM     20  C   UNL     1       0.449  10.357  20.518  0.00  0.00    +0.000 A 
ATOM     21  C   UNL     1       0.562   9.418  21.545  0.00  0.00    +0.000 A 
ATOM     22  C   UNL     1       1.188   8.164  21.316  0.00  0.00    +0.000 A 
ENDBRANCH   3  17
BRANCH   1  24
ATOM     23  F   UNL     1       3.904   2.575  20.828  0.00  0.00    +0.000 F 
ATOM     24  C   UNL     1       2.829   2.903  20.057  0.00  0.00    +0.000 C 
ATOM     25  F   UNL     1       2.928   2.144  18.943  0.00  0.00    +0.000 F 
ATOM     26  F   UNL     1       1.731   2.514  20.740  0.00  0.00    +0.000 F 
ENDBRANCH   1  24
TORSDOF 3
ENDMDL
MODEL 4
REMARK VINA RESULT:      -8.4      1.216      1.858
REMARK  Name = 
REMARK  3 active torsions:
REMARK  status: ('A' for Active; 'I' for Inactive)
REMARK    1  A    between atoms: C_2  and  C_5
REMARK    2  A    between atoms: C_7  and  C_8
REMARK    3  A    between atoms: N_15  and  C_16
REMARK                            x       y       z     vdW  Elec       q    Type
REMARK                         _______ _______ _______ _____ _____    ______ ____
ROOT
ATOM      1  C   UNL     1       2.407   4.558  19.977  0.00  0.00    +0.000 A 
ATOM      2  C   UNL     1       1.502   5.558  20.272  0.00  0.00    +0.000 A 
ATOM      3  C   UNL     1       2.096   6.792  19.909  0.00  0.00    +0.000 A 
ATOM      4  N   UNL     1       3.270   6.540  19.301  0.00  0.00    +0.000 NA
ATOM      5  N   UNL     1       3.475   5.150  19.339  0.00  0.00    +0.000 N 
ENDROOT
BRANCH   5   6
ATOM      6  C   UNL     1       4.669   4.595  18.671  0.00  0.00    +0.000 A 
ATOM      7  C   UNL     1       5.715   4.483  19.564  0.00  0.00    +0.000 A 
ATOM      8  C   UNL     1       6.686   5.451  19.396  0.00  0.00    +0.000 A 
ATOM      9  N   UNL     1       6.927   6.021  18.201  0.00  0.00    +0.000 NA
ATOM     10  C   UNL     1       6.262   5.528  17.152  0.00  0.00    +0.000 A 
ATOM     11  C   UNL     1       6.905   5.654  15.922  0.00  0.00    +0.000 A 
ATOM     12  C   UNL     1       6.480   4.934  14.818  0.00  0.00    +0.000 A 
ATOM     13 CL   UNL     1       7.396   4.969  13.361  0.00  0.00    +0.000 Cl
ATOM     14  C   UNL     1       5.370   4.105  14.934  0.00  0.00    +0.000 A 
ATOM     15  C   UNL     1       4.657   4.039  16.153  0.00  0.00    +0.000 A 
ATOM     16  C   UNL     1       5.073   4.765  17.302  0.00  0.00    +0.000 A 
ENDBRANCH   5   6
BRANCH   3  17
ATOM     17  C   UNL     1       1.534   8.139  20.242  0.00  0.00    +0.000 A 
ATOM     18  C   UNL     1       1.226   8.422  21.595  0.00  0.00    +0.000 A 
ATOM     19  C   UNL     1       0.726   9.665  22.012  0.00  0.00    +0.000 A 
ATOM     20  C   UNL     1       0.508  10.671  21.080  0.00  0.00    +0.000 A 
ATOM     21  C   UNL     1       0.775  10.421  19.733  0.00  0.00    +0.000 A 
ATOM     22  C   UNL     1       1.287   9.164  19.315  0.00  0.00    +0.000 A 
ENDBRANCH   3  17
BRANCH   1  24
ATOM     23  F   UNL     1       1.044   2.833  20.727  0.00  0.00    +0.000 F 
ATOM     24  C   UNL     1       2.301   3.140  20.301  0.00  0.00    +0.000 C 
ATOM     25  F   UNL     1       3.129   2.791  21.312  0.00  0.00    +0.000 F 
ATOM     26  F   UNL     1       2.558   2.338  19.246  0.00  0.00    +0.000 F 
ENDBRANCH   1  24
TORSDOF 3
ENDMDL
MODEL 5
REMARK VINA RESULT:      -8.2      4.660      8.326
REMARK  Name = 
REMARK  3 active torsions:
REMARK  status: ('A' for Active; 'I' for Inactive)
REMARK    1  A    between atoms: C_2  and  C_5
REMARK    2  A    between atoms: C_7  and  C_8
REMARK    3  A    between atoms: N_15  and  C_16
REMARK                            x       y       z     vdW  Elec       q    Type
REMARK                         _______ _______ _______ _____ _____    ______ ____
ROOT
ATOM      1  C   UNL     1       1.675   8.295  19.827  0.00  0.00    +0.000 A 
ATOM      2  C   UNL     1       2.592   7.290  19.596  0.00  0.00    +0.000 A 
ATOM      3  C   UNL     1       2.873   7.278  18.208  0.00  0.00    +0.000 A 
ATOM      4  N   UNL     1       2.243   8.319  17.634  0.00  0.00    +0.000 NA
ATOM      5  N   UNL     1       1.492   8.961  18.634  0.00  0.00    +0.000 N 
ENDROOT
BRANCH   5   6
ATOM      6  C   UNL     1       0.753  10.190  18.282  0.00  0.00    +0.000 A 
ATOM      7  C   UNL     1       1.529  11.305  18.523  0.00  0.00    +0.000 A 
ATOM      8  C   UNL     1       1.155  12.002  19.656  0.00  0.00    +0.000 A 
ATOM      9  N   UNL     1      -0.113  11.997  20.110  0.00  0.00    +0.000 NA
ATOM     10  C   UNL     1      -1.023  11.380  19.351  0.00  0.00    +0.000 A 
ATOM     11  C   UNL     1      -2.325  11.867  19.463  0.00  0.00    +0.000 A 
ATOM     12  C   UNL     1      -3.294  11.531  18.531  0.00  0.00    +0.000 A 
ATOM     13 CL   UNL     1      -4.841  12.284  18.588  0.00  0.00    +0.000 Cl
ATOM     14  C   UNL     1      -2.969  10.664  17.496  0.00  0.00    +0.000 A 
ATOM     15  C   UNL     1      -1.676  10.094  17.425  0.00  0.00    +0.000 A 
ATOM     16  C   UNL     1      -0.663  10.423  18.365  0.00  0.00    +0.000 A 
ENDBRANCH   5   6
BRANCH   3  17
ATOM     17  C   UNL     1       3.665   6.218  17.507  0.00  0.00    +0.000 A 
ATOM     18  C   UNL     1       4.714   6.624  16.647  0.00  0.00    +0.000 A 
ATOM     19  C   UNL     1       5.534   5.706  15.971  0.00  0.00    +0.000 A 
ATOM     20  C   UNL     1       5.322   4.344  16.127  0.00  0.00    +0.000 A 
ATOM     21  C   UNL     1       4.280   3.905  16.945  0.00  0.00    +0.000 A 
ATOM     22  C   UNL     1       3.456   4.835  17.633  0.00  0.00    +0.000 A 
ENDBRANCH   3  17
BRANCH   1  24
ATOM     23  F   UNL     1       1.199   7.620  21.997  0.00  0.00    +0.000 F 
ATOM     24  C   UNL     1       0.984   8.598  21.074  0.00  0.00    +0.000 C 
ATOM     25  F   UNL     1      -0.356   8.658  20.905  0.00  0.00    +0.000 F 
ATOM     26  F   UNL     1       1.393   9.756  21.636  0.00  0.00    +0.000 F 
ENDBRANCH   1  24
TORSDOF 3
ENDMDL
MODEL 6
REMARK VINA RESULT:      -8.1      4.696      8.420
REMARK  Name = 
REMARK  3 active torsions:
REMARK  status: ('A' for Active; 'I' for Inactive)
REMARK    1  A    between atoms: C_2  and  C_5
REMARK    2  A    between atoms: C_7  and  C_8
REMARK    3  A    between atoms: N_15  and  C_16
REMARK                            x       y       z     vdW  Elec       q    Type
REMARK                         _______ _______ _______ _____ _____    ______ ____
ROOT
ATOM      1  C   UNL     1       1.624   8.327  19.830  0.00  0.00    +0.000 A 
ATOM      2  C   UNL     1       2.553   7.334  19.595  0.00  0.00    +0.000 A 
ATOM      3  C   UNL     1       2.856   7.351  18.211  0.00  0.00    +0.000 A 
ATOM      4  N   UNL     1       2.226   8.398  17.648  0.00  0.00    +0.000 NA
ATOM      5  N   UNL     1       1.453   9.013  18.647  0.00  0.00    +0.000 N 
ENDROOT
BRANCH   5   6
ATOM      6  C   UNL     1       0.710  10.243  18.307  0.00  0.00    +0.000 A 
ATOM      7  C   UNL     1       1.483  11.359  18.553  0.00  0.00    +0.000 A 
ATOM      8  C   UNL     1       1.110  12.046  19.692  0.00  0.00    +0.000 A 
ATOM      9  N   UNL     1      -0.155  12.033  20.151  0.00  0.00    +0.000 NA
ATOM     10  C   UNL     1      -1.067  11.420  19.392  0.00  0.00    +0.000 A 
ATOM     11  C   UNL     1      -2.369  11.902  19.512  0.00  0.00    +0.000 A 
ATOM     12  C   UNL     1      -3.341  11.569  18.582  0.00  0.00    +0.000 A 
ATOM     13 CL   UNL     1      -4.890  12.317  18.650  0.00  0.00    +0.000 Cl
ATOM     14  C   UNL     1      -3.017  10.710  17.539  0.00  0.00    +0.000 A 
ATOM     15  C   UNL     1      -1.723  10.146  17.459  0.00  0.00    +0.000 A 
ATOM     16  C   UNL     1      -0.707  10.471  18.398  0.00  0.00    +0.000 A 
ENDBRANCH   5   6
BRANCH   3  17
ATOM     17  C   UNL     1       3.668   6.312  17.503  0.00  0.00    +0.000 A 
ATOM     18  C   UNL     1       3.318   4.951  17.680  0.00  0.00    +0.000 A 
ATOM     19  C   UNL     1       3.997   3.906  17.034  0.00  0.00    +0.000 A 
ATOM     20  C   UNL     1       5.062   4.190  16.191  0.00  0.00    +0.000 A 
ATOM     21  C   UNL     1       5.454   5.518  16.012  0.00  0.00    +0.000 A 
ATOM     22  C   UNL     1       4.762   6.574  16.662  0.00  0.00    +0.000 A 
ENDBRANCH   3  17
BRANCH   1  24
ATOM     23  F   UNL     1       1.330   9.771  21.624  0.00  0.00    +0.000 F 
ATOM     24  C   UNL     1       0.910   8.599  21.071  0.00  0.00    +0.000 C 
ATOM     25  F   UNL     1       1.139   7.648  22.004  0.00  0.00    +0.000 F 
ATOM     26  F   UNL     1      -0.425   8.711  20.898  0.00  0.00    +0.000 F 
ENDBRANCH   1  24
TORSDOF 3
ENDMDL
MODEL 7
REMARK VINA RESULT:      -7.7      4.826      8.413
REMARK  Name = 
REMARK  3 active torsions:
REMARK  status: ('A' for Active; 'I' for Inactive)
REMARK    1  A    between atoms: C_2  and  C_5
REMARK    2  A    between atoms: C_7  and  C_8
REMARK    3  A    between atoms: N_15  and  C_16
REMARK                            x       y       z     vdW  Elec       q    Type
REMARK                         _______ _______ _______ _____ _____    ______ ____
ROOT
ATOM      1  C   UNL     1       1.300   8.567  20.332  0.00  0.00    +0.000 A 
ATOM      2  C   UNL     1       2.160   7.488  20.381  0.00  0.00    +0.000 A 
ATOM      3  C   UNL     1       2.459   7.120  19.046  0.00  0.00    +0.000 A 
ATOM      4  N   UNL     1       1.901   8.021  18.217  0.00  0.00    +0.000 NA
ATOM      5  N   UNL     1       1.174   8.928  19.008  0.00  0.00    +0.000 N 
ENDROOT
BRANCH   5   6
ATOM      6  C   UNL     1       0.516  10.071  18.345  0.00  0.00    +0.000 A 
ATOM      7  C   UNL     1       1.263  11.220  18.506  0.00  0.00    +0.000 A 
ATOM      8  C   UNL     1       0.733  12.095  19.435  0.00  0.00    +0.000 A 
ATOM      9  N   UNL     1      -0.588  12.153  19.687  0.00  0.00    +0.000 NA
ATOM     10  C   UNL     1      -1.383  11.407  18.917  0.00  0.00    +0.000 A 
ATOM     11  C   UNL     1      -2.679  11.891  18.747  0.00  0.00    +0.000 A 
ATOM     12  C   UNL     1      -3.502  11.390  17.751  0.00  0.00    +0.000 A 
ATOM     13 CL   UNL     1      -5.029  12.126  17.445  0.00  0.00    +0.000 Cl
ATOM     14  C   UNL     1      -3.039  10.363  16.939  0.00  0.00    +0.000 A 
ATOM     15  C   UNL     1      -1.759   9.804  17.161  0.00  0.00    +0.000 A 
ATOM     16  C   UNL     1      -0.893  10.299  18.173  0.00  0.00    +0.000 A 
ENDBRANCH   5   6
BRANCH   3  17
ATOM     17  C   UNL     1       3.197   5.879  18.649  0.00  0.00    +0.000 A 
ATOM     18  C   UNL     1       4.467   5.640  19.227  0.00  0.00    +0.000 A 
ATOM     19  C   UNL     1       5.222   4.491  18.944  0.00  0.00    +0.000 A 
ATOM     20  C   UNL     1       4.731   3.541  18.059  0.00  0.00    +0.000 A 
ATOM     21  C   UNL     1       3.494   3.754  17.449  0.00  0.00    +0.000 A 
ATOM     22  C   UNL     1       2.729   4.915  17.742  0.00  0.00    +0.000 A 
ENDBRANCH   3  17
BRANCH   1  24
ATOM     23  F   UNL     1       0.757   8.475  22.588  0.00  0.00    +0.000 F 
ATOM     24  C   UNL     1       0.610   9.204  21.447  0.00  0.00    +0.000 C 
ATOM     25  F   UNL     1      -0.722   9.289  21.232  0.00  0.00    +0.000 F 
ATOM     26  F   UNL     1       1.076  10.442  21.717  0.00  0.00    +0.000 F 
ENDBRANCH   1  24
TORSDOF 3
ENDMDL
MODEL 8
REMARK VINA RESULT:      -7.6      3.799      5.994
REMARK  Name = 
REMARK  3 active torsions:
REMARK  status: ('A' for Active; 'I' for Inactive)
REMARK    1  A    between atoms: C_2  and  C_5
REMARK    2  A    between atoms: C_7  and  C_8
REMARK    3  A    between atoms: N_15  and  C_16
REMARK                            x       y       z     vdW  Elec       q    Type
REMARK                         _______ _______ _______ _____ _____    ______ ____
ROOT
ATOM      1  C   UNL     1       7.150   6.130  17.767  0.00  0.00    +0.000 A 
ATOM      2  C   UNL     1       8.092   7.039  18.205  0.00  0.00    +0.000 A 
ATOM      3  C   UNL     1       7.545   8.335  18.039  0.00  0.00    +0.000 A 
ATOM      4  N   UNL     1       6.268   8.212  17.630  0.00  0.00    +0.000 NA
ATOM      5  N   UNL     1       6.011   6.842  17.456  0.00  0.00    +0.000 N 
ENDROOT
BRANCH   5   6
ATOM      6  C   UNL     1       4.647   6.423  17.076  0.00  0.00    +0.000 A 
ATOM      7  C   UNL     1       3.868   7.523  16.782  0.00  0.00    +0.000 A 
ATOM      8  C   UNL     1       2.958   7.832  17.774  0.00  0.00    +0.000 A 
ATOM      9  N   UNL     1       2.452   6.894  18.597  0.00  0.00    +0.000 NA
ATOM     10  C   UNL     1       2.781   5.625  18.340  0.00  0.00    +0.000 A 
ATOM     11  C   UNL     1       1.847   4.672  18.742  0.00  0.00    +0.000 A 
ATOM     12  C   UNL     1       1.915   3.368  18.278  0.00  0.00    +0.000 A 
ATOM     13 CL   UNL     1       0.653   2.256  18.644  0.00  0.00    +0.000 Cl
ATOM     14  C   UNL     1       2.954   3.001  17.431  0.00  0.00    +0.000 A 
ATOM     15  C   UNL     1       3.956   3.939  17.089  0.00  0.00    +0.000 A 
ATOM     16  C   UNL     1       3.910   5.282  17.549  0.00  0.00    +0.000 A 
ENDBRANCH   5   6
BRANCH   3  17
ATOM     17  C   UNL     1       8.309   9.612  18.206  0.00  0.00    +0.000 A 
ATOM     18  C   UNL     1       9.318   9.663  19.198  0.00  0.00    +0.000 A 
ATOM     19  C   UNL     1      10.110  10.802  19.411  0.00  0.00    +0.000 A 
ATOM     20  C   UNL     1       9.911  11.938  18.638  0.00  0.00    +0.000 A 
ATOM     21  C   UNL     1       8.908  11.934  17.668  0.00  0.00    +0.000 A 
ATOM     22  C   UNL     1       8.111  10.778  17.451  0.00  0.00    +0.000 A 
ENDBRANCH   3  17
BRANCH   1  24
ATOM     23  F   UNL     1       6.474   4.017  18.453  0.00  0.00    +0.000 F 
ATOM     24  C   UNL     1       7.309   4.689  17.613  0.00  0.00    +0.000 C 
ATOM     25  F   UNL     1       8.559   4.284  17.933  0.00  0.00    +0.000 F 
ATOM     26  F   UNL     1       7.030   4.258  16.364  0.00  0.00    +0.000 F 
ENDBRANCH   1  24
TORSDOF 3
ENDMDL
MODEL 9
REMARK VINA RESULT:      -7.6      3.801      5.908
REMARK  Name = 
REMARK  3 active torsions:
REMARK  status: ('A' for Active; 'I' for Inactive)
REMARK    1  A    between atoms: C_2  and  C_5
REMARK    2  A    between atoms: C_7  and  C_8
REMARK    3  A    between atoms: N_15  and  C_16
REMARK                            x       y       z     vdW  Elec       q    Type
REMARK                         _______ _______ _______ _____ _____    ______ ____
ROOT
ATOM      1  C   UNL     1       7.160   6.106  17.821  0.00  0.00    +0.000 A 
ATOM      2  C   UNL     1       8.109   7.006  18.262  0.00  0.00    +0.000 A 
ATOM      3  C   UNL     1       7.580   8.307  18.078  0.00  0.00    +0.000 A 
ATOM      4  N   UNL     1       6.307   8.198  17.657  0.00  0.00    +0.000 NA
ATOM      5  N   UNL     1       6.034   6.829  17.492  0.00  0.00    +0.000 N 
ENDROOT
BRANCH   5   6
ATOM      6  C   UNL     1       4.670   6.424  17.100  0.00  0.00    +0.000 A 
ATOM      7  C   UNL     1       3.901   7.533  16.808  0.00  0.00    +0.000 A 
ATOM      8  C   UNL     1       2.987   7.844  17.797  0.00  0.00    +0.000 A 
ATOM      9  N   UNL     1       2.469   6.904  18.609  0.00  0.00    +0.000 NA
ATOM     10  C   UNL     1       2.788   5.634  18.346  0.00  0.00    +0.000 A 
ATOM     11  C   UNL     1       1.844   4.686  18.735  0.00  0.00    +0.000 A 
ATOM     12  C   UNL     1       1.904   3.385  18.262  0.00  0.00    +0.000 A 
ATOM     13 CL   UNL     1       0.629   2.282  18.612  0.00  0.00    +0.000 Cl
ATOM     14  C   UNL     1       2.945   3.015  17.420  0.00  0.00    +0.000 A 
ATOM     15  C   UNL     1       3.957   3.946  17.091  0.00  0.00    +0.000 A 
ATOM     16  C   UNL     1       3.920   5.287  17.560  0.00  0.00    +0.000 A 
ENDBRANCH   5   6
BRANCH   3  17
ATOM     17  C   UNL     1       8.359   9.575  18.244  0.00  0.00    +0.000 A 
ATOM     18  C   UNL     1       7.985  10.698  17.467  0.00  0.00    +0.000 A 
ATOM     19  C   UNL     1       8.631  11.940  17.573  0.00  0.00    +0.000 A 
ATOM     20  C   UNL     1       9.687  12.096  18.459  0.00  0.00    +0.000 A 
ATOM     21  C   UNL     1      10.103  11.005  19.223  0.00  0.00    +0.000 A 
ATOM     22  C   UNL     1       9.443   9.751  19.118  0.00  0.00    +0.000 A 
ENDBRANCH   3  17
BRANCH   1  24
ATOM     23  F   UNL     1       8.570   4.268  17.989  0.00  0.00    +0.000 F 
ATOM     24  C   UNL     1       7.303   4.661  17.682  0.00  0.00    +0.000 C 
ATOM     25  F   UNL     1       7.088   4.255  16.411  0.00  0.00    +0.000 F 
ATOM     26  F   UNL     1       6.476   3.969  18.495  0.00  0.00    +0.000 F 
ENDBRANCH   1  24
TORSDOF 3
ENDMDL
