MODEL 1
REMARK VINA RESULT:      -9.2      0.000      0.000
REMARK  Name = 
REMARK  5 active torsions:
REMARK  status: ('A' for Active; 'I' for Inactive)
REMARK    1  A    between atoms: C_2  and  C_4
REMARK    2  A    between atoms: C_9  and  N_10
REMARK    3  A    between atoms: N_10  and  C_11
REMARK    4  A    between atoms: C_15  and  C_16
REMARK    5  A    between atoms: C_17  and  C_18
REMARK                            x       y       z     vdW  Elec       q    Type
REMARK                         _______ _______ _______ _____ _____    ______ ____
ROOT
ATOM      1  C   UNL     1       4.597   4.937  17.641  0.00  0.00    +0.000 A 
ATOM      2  C   UNL     1       4.654   6.056  16.800  0.00  0.00    +0.000 A 
ATOM      3  C   UNL     1       5.721   6.969  16.853  0.00  0.00    +0.000 A 
ATOM      4  C   UNL     1       6.744   6.774  17.802  0.00  0.00    +0.000 A 
ATOM      5  C   UNL     1       7.903   7.487  18.248  0.00  0.00    +0.000 A 
ATOM      6  N   UNL     1       8.551   6.804  19.207  0.00  0.00    +0.000 NA
ATOM      7  N   UNL     1       7.796   5.714  19.401  0.00  0.00    +0.000 N 
ATOM      8  C   UNL     1       6.683   5.646  18.610  0.00  0.00    +0.000 A 
ATOM      9  C   UNL     1       5.632   4.718  18.566  0.00  0.00    +0.000 A 
ATOM     10  H   UNL     1       8.084   5.055  20.116  0.00  0.00    +0.000 HD
ENDROOT
BRANCH   1  11
ATOM     11  N   UNL     1       3.413   4.145  17.633  0.00  0.00    +0.000 N 
ATOM     12  H   UNL     1       2.787   4.518  16.902  0.00  0.00    +0.000 HD
BRANCH  11  18
ATOM     13  C   UNL     1       2.852   2.575  19.485  0.00  0.00    +0.000 A 
ATOM     14  C   UNL     1       2.036   2.252  20.585  0.00  0.00    +0.000 A 
ATOM     15  C   UNL     1       1.068   3.146  21.036  0.00  0.00    +0.000 A 
ATOM     16  C   UNL     1       0.911   4.370  20.397  0.00  0.00    +0.000 A 
ATOM     17  C   UNL     1       1.687   4.680  19.278  0.00  0.00    +0.000 A 
ATOM     18  C   UNL     1       2.634   3.773  18.768  0.00  0.00    +0.000 A 
BRANCH  13  20
ATOM     19  N   UNL     1       4.994   1.487  19.923  0.00  0.00    +0.000 N 
ATOM     20  C   UNL     1       3.922   1.622  19.079  0.00  0.00    +0.000 C 
ATOM     21  O   UNL     1       3.875   1.012  18.019  0.00  0.00    +0.000 OA
ATOM     22  H   UNL     1       5.764   0.918  19.600  0.00  0.00    +0.000 HD
ATOM     23  H   UNL     1       5.190   2.158  20.656  0.00  0.00    +0.000 HD
ENDBRANCH  13  20
ENDBRANCH  11  18
ENDBRANCH   1  11
BRANCH   5  24
ATOM     24  C   UNL     1       8.294   8.797  17.804  0.00  0.00    +0.000 C 
ATOM     25  C   UNL     1       8.978   9.678  18.557  0.00  0.00    +0.000 C 
BRANCH  25  26
ATOM     26  C   UNL     1       9.314  11.052  18.163  0.00  0.00    +0.000 A 
ATOM     27  C   UNL     1      10.649  11.416  17.999  0.00  0.00    +0.000 A 
ATOM     28  C   UNL     1      10.954  12.729  17.647  0.00  0.00    +0.000 A 
ATOM     29  C   UNL     1       9.923  13.642  17.472  0.00  0.00    +0.000 A 
ATOM     30  C   UNL     1       8.624  13.199  17.657  0.00  0.00    +0.000 A 
ATOM     31  N   UNL     1       8.296  11.930  17.996  0.00  0.00    +0.000 NA
ENDBRANCH  25  26
ENDBRANCH   5  24
TORSDOF 5
ENDMDL
MODEL 2
REMARK VINA RESULT:      -8.9      1.426      1.660
REMARK  Name = 
REMARK  5 active torsions:
REMARK  status: ('A' for Active; 'I' for Inactive)
REMARK    1  A    between atoms: C_2  and  C_4
REMARK    2  A    between atoms: C_9  and  N_10
REMARK    3  A    between atoms: N_10  and  C_11
REMARK    4  A    between atoms: C_15  and  C_16
REMARK    5  A    between atoms: C_17  and  C_18
REMARK                            x       y       z     vdW  Elec       q    Type
REMARK                         _______ _______ _______ _____ _____    ______ ____
ROOT
ATOM      1  C   UNL     1       3.745   4.940  17.334  0.00  0.00    +0.000 A 
ATOM      2  C   UNL     1       3.555   6.231  17.845  0.00  0.00    +0.000 A 
ATOM      3  C   UNL     1       4.562   7.209  17.775  0.00  0.00    +0.000 A 
ATOM      4  C   UNL     1       5.807   6.874  17.209  0.00  0.00    +0.000 A 
ATOM      5  C   UNL     1       7.083   7.503  17.046  0.00  0.00    +0.000 A 
ATOM      6  N   UNL     1       7.940   6.698  16.396  0.00  0.00    +0.000 NA
ATOM      7  N   UNL     1       7.245   5.568  16.200  0.00  0.00    +0.000 N 
ATOM      8  C   UNL     1       5.968   5.596  16.686  0.00  0.00    +0.000 A 
ATOM      9  C   UNL     1       4.972   4.609  16.737  0.00  0.00    +0.000 A 
ATOM     10  H   UNL     1       7.712   4.794  15.743  0.00  0.00    +0.000 HD
ENDROOT
BRANCH   1  11
ATOM     11  N   UNL     1       2.737   3.963  17.578  0.00  0.00    +0.000 N 
ATOM     12  H   UNL     1       1.943   4.162  16.949  0.00  0.00    +0.000 HD
BRANCH  11  18
ATOM     13  C   UNL     1       2.776   2.487  19.585  0.00  0.00    +0.000 A 
ATOM     14  C   UNL     1       2.222   2.128  20.828  0.00  0.00    +0.000 A 
ATOM     15  C   UNL     1       1.195   2.882  21.390  0.00  0.00    +0.000 A 
ATOM     16  C   UNL     1       0.718   4.002  20.720  0.00  0.00    +0.000 A 
ATOM     17  C   UNL     1       1.234   4.340  19.468  0.00  0.00    +0.000 A 
ATOM     18  C   UNL     1       2.232   3.565  18.851  0.00  0.00    +0.000 A 
BRANCH  13  20
ATOM     19  N   UNL     1       5.057   1.645  19.816  0.00  0.00    +0.000 N 
ATOM     20  C   UNL     1       3.920   1.695  19.052  0.00  0.00    +0.000 C 
ATOM     21  O   UNL     1       3.871   1.144  17.960  0.00  0.00    +0.000 OA
ATOM     22  H   UNL     1       5.865   1.194  19.410  0.00  0.00    +0.000 HD
ATOM     23  H   UNL     1       5.224   2.294  20.576  0.00  0.00    +0.000 HD
ENDBRANCH  13  20
ENDBRANCH  11  18
ENDBRANCH   1  11
BRANCH   5  24
ATOM     24  C   UNL     1       7.447   8.791  17.570  0.00  0.00    +0.000 C 
ATOM     25  C   UNL     1       8.617   9.056  18.181  0.00  0.00    +0.000 C 
BRANCH  25  26
ATOM     26  C   UNL     1       8.979  10.336  18.804  0.00  0.00    +0.000 A 
ATOM     27  C   UNL     1       8.993  11.497  18.035  0.00  0.00    +0.000 A 
ATOM     28  C   UNL     1       9.360  12.701  18.634  0.00  0.00    +0.000 A 
ATOM     29  C   UNL     1       9.707  12.711  19.978  0.00  0.00    +0.000 A 
ATOM     30  C   UNL     1       9.668  11.512  20.670  0.00  0.00    +0.000 A 
ATOM     31  N   UNL     1       9.313  10.329  20.117  0.00  0.00    +0.000 NA
ENDBRANCH  25  26
ENDBRANCH   5  24
TORSDOF 5
ENDMDL
MODEL 3
REMARK VINA RESULT:      -8.9      1.574      1.754
REMARK  Name = 
REMARK  5 active torsions:
REMARK  status: ('A' for Active; 'I' for Inactive)
REMARK    1  A    between atoms: C_2  and  C_4
REMARK    2  A    between atoms: C_9  and  N_10
REMARK    3  A    between atoms: N_10  and  C_11
REMARK    4  A    between atoms: C_15  and  C_16
REMARK    5  A    between atoms: C_17  and  C_18
REMARK                            x       y       z     vdW  Elec       q    Type
REMARK                         _______ _______ _______ _____ _____    ______ ____
ROOT
ATOM      1  C   UNL     1       3.973   4.768  17.374  0.00  0.00    +0.000 A 
ATOM      2  C   UNL     1       3.732   6.015  17.965  0.00  0.00    +0.000 A 
ATOM      3  C   UNL     1       4.667   7.062  17.893  0.00  0.00    +0.000 A 
ATOM      4  C   UNL     1       5.896   6.841  17.241  0.00  0.00    +0.000 A 
ATOM      5  C   UNL     1       7.116   7.563  17.042  0.00  0.00    +0.000 A 
ATOM      6  N   UNL     1       7.983   6.852  16.302  0.00  0.00    +0.000 NA
ATOM      7  N   UNL     1       7.352   5.689  16.083  0.00  0.00    +0.000 N 
ATOM      8  C   UNL     1       6.107   5.606  16.641  0.00  0.00    +0.000 A 
ATOM      9  C   UNL     1       5.182   4.552  16.693  0.00  0.00    +0.000 A 
ATOM     10  H   UNL     1       7.841   4.972  15.559  0.00  0.00    +0.000 HD
ENDROOT
BRANCH   1  11
ATOM     11  N   UNL     1       3.047   3.714  17.620  0.00  0.00    +0.000 N 
ATOM     12  H   UNL     1       2.311   3.763  16.897  0.00  0.00    +0.000 HD
BRANCH  11  18
ATOM     13  C   UNL     1       3.180   2.838  19.949  0.00  0.00    +0.000 A 
ATOM     14  C   UNL     1       2.528   2.515  21.154  0.00  0.00    +0.000 A 
ATOM     15  C   UNL     1       1.180   2.815  21.333  0.00  0.00    +0.000 A 
ATOM     16  C   UNL     1       0.474   3.444  20.315  0.00  0.00    +0.000 A 
ATOM     17  C   UNL     1       1.103   3.728  19.101  0.00  0.00    +0.000 A 
ATOM     18  C   UNL     1       2.448   3.386  18.872  0.00  0.00    +0.000 A 
BRANCH  13  20
ATOM     19  N   UNL     1       5.033   1.251  19.850  0.00  0.00    +0.000 N 
ATOM     20  C   UNL     1       4.639   2.563  19.825  0.00  0.00    +0.000 C 
ATOM     21  O   UNL     1       5.461   3.467  19.745  0.00  0.00    +0.000 OA
ATOM     22  H   UNL     1       6.028   1.070  19.867  0.00  0.00    +0.000 HD
ATOM     23  H   UNL     1       4.423   0.511  20.178  0.00  0.00    +0.000 HD
ENDBRANCH  13  20
ENDBRANCH  11  18
ENDBRANCH   1  11
BRANCH   5  24
ATOM     24  C   UNL     1       7.426   8.844  17.615  0.00  0.00    +0.000 C 
ATOM     25  C   UNL     1       8.648   9.201  18.052  0.00  0.00    +0.000 C 
BRANCH  25  26
ATOM     26  C   UNL     1       8.974  10.467  18.722  0.00  0.00    +0.000 A 
ATOM     27  C   UNL     1       9.414  10.453  20.044  0.00  0.00    +0.000 A 
ATOM     28  C   UNL     1       9.699  11.662  20.675  0.00  0.00    +0.000 A 
ATOM     29  C   UNL     1       9.533  12.849  19.973  0.00  0.00    +0.000 A 
ATOM     30  C   UNL     1       9.090  12.774  18.663  0.00  0.00    +0.000 A 
ATOM     31  N   UNL     1       8.808  11.615  18.023  0.00  0.00    +0.000 NA
ENDBRANCH  25  26
ENDBRANCH   5  24
TORSDOF 5
ENDMDL
MODEL 4
REMARK VINA RESULT:      -8.7      1.613      2.090
REMARK  Name = 
REMARK  5 active torsions:
REMARK  status: ('A' for Active; 'I' for Inactive)
REMARK    1  A    between atoms: C_2  and  C_4
REMARK    2  A    between atoms: C_9  and  N_10
REMARK    3  A    between atoms: N_10  and  C_11
REMARK    4  A    between atoms: C_15  and  C_16
REMARK    5  A    between atoms: C_17  and  C_18
REMARK                            x       y       z     vdW  Elec       q    Type
REMARK                         _______ _______ _______ _____ _____    ______ ____
ROOT
ATOM      1  C   UNL     1       4.676   4.801  17.169  0.00  0.00    +0.000 A 
ATOM      2  C   UNL     1       4.837   5.958  16.396  0.00  0.00    +0.000 A 
ATOM      3  C   UNL     1       5.895   6.856  16.619  0.00  0.00    +0.000 A 
ATOM      4  C   UNL     1       6.798   6.605  17.670  0.00  0.00    +0.000 A 
ATOM      5  C   UNL     1       7.900   7.283  18.284  0.00  0.00    +0.000 A 
ATOM      6  N   UNL     1       8.427   6.548  19.277  0.00  0.00    +0.000 NA
ATOM      7  N   UNL     1       7.648   5.458  19.328  0.00  0.00    +0.000 N 
ATOM      8  C   UNL     1       6.636   5.440  18.410  0.00  0.00    +0.000 A 
ATOM      9  C   UNL     1       5.593   4.527  18.197  0.00  0.00    +0.000 A 
ATOM     10  H   UNL     1       7.847   4.764  20.039  0.00  0.00    +0.000 HD
ENDROOT
BRANCH   1  11
ATOM     11  N   UNL     1       3.496   4.024  16.984  0.00  0.00    +0.000 N 
ATOM     12  H   UNL     1       2.959   4.442  16.207  0.00  0.00    +0.000 HD
BRANCH  11  18
ATOM     13  C   UNL     1       2.017   4.496  18.933  0.00  0.00    +0.000 A 
ATOM     14  C   UNL     1       1.146   4.016  19.928  0.00  0.00    +0.000 A 
ATOM     15  C   UNL     1       0.766   2.677  19.952  0.00  0.00    +0.000 A 
ATOM     16  C   UNL     1       1.248   1.808  18.980  0.00  0.00    +0.000 A 
ATOM     17  C   UNL     1       2.147   2.267  18.015  0.00  0.00    +0.000 A 
ATOM     18  C   UNL     1       2.590   3.601  18.001  0.00  0.00    +0.000 A 
BRANCH  13  20
ATOM     19  N   UNL     1       3.017   6.463  19.978  0.00  0.00    +0.000 N 
ATOM     20  C   UNL     1       2.343   5.949  18.901  0.00  0.00    +0.000 C 
ATOM     21  O   UNL     1       1.989   6.670  17.977  0.00  0.00    +0.000 OA
ATOM     22  H   UNL     1       3.148   7.465  20.003  0.00  0.00    +0.000 HD
ATOM     23  H   UNL     1       3.084   5.967  20.859  0.00  0.00    +0.000 HD
ENDBRANCH  13  20
ENDBRANCH  11  18
ENDBRANCH   1  11
BRANCH   5  24
ATOM     24  C   UNL     1       8.348   8.609  17.952  0.00  0.00    +0.000 C 
ATOM     25  C   UNL     1       8.966   9.435  18.815  0.00  0.00    +0.000 C 
BRANCH  25  26
ATOM     26  C   UNL     1       9.355  10.823  18.532  0.00  0.00    +0.000 A 
ATOM     27  C   UNL     1      10.562  11.315  19.024  0.00  0.00    +0.000 A 
ATOM     28  C   UNL     1      10.908  12.640  18.767  0.00  0.00    +0.000 A 
ATOM     29  C   UNL     1      10.040  13.437  18.032  0.00  0.00    +0.000 A 
ATOM     30  C   UNL     1       8.859  12.871  17.583  0.00  0.00    +0.000 A 
ATOM     31  N   UNL     1       8.497  11.587  17.814  0.00  0.00    +0.000 NA
ENDBRANCH  25  26
ENDBRANCH   5  24
TORSDOF 5
ENDMDL
MODEL 5
REMARK VINA RESULT:      -8.6      0.911      1.170
REMARK  Name = 
REMARK  5 active torsions:
REMARK  status: ('A' for Active; 'I' for Inactive)
REMARK    1  A    between atoms: C_2  and  C_4
REMARK    2  A    between atoms: C_9  and  N_10
REMARK    3  A    between atoms: N_10  and  C_11
REMARK    4  A    between atoms: C_15  and  C_16
REMARK    5  A    between atoms: C_17  and  C_18
REMARK                            x       y       z     vdW  Elec       q    Type
REMARK                         _______ _______ _______ _____ _____    ______ ____
ROOT
ATOM      1  C   UNL     1       4.835   4.642  17.412  0.00  0.00    +0.000 A 
ATOM      2  C   UNL     1       4.746   5.827  16.670  0.00  0.00    +0.000 A 
ATOM      3  C   UNL     1       5.701   6.851  16.793  0.00  0.00    +0.000 A 
ATOM      4  C   UNL     1       6.757   6.698  17.712  0.00  0.00    +0.000 A 
ATOM      5  C   UNL     1       7.833   7.502  18.208  0.00  0.00    +0.000 A 
ATOM      6  N   UNL     1       8.574   6.821  19.098  0.00  0.00    +0.000 NA
ATOM      7  N   UNL     1       7.954   5.637  19.205  0.00  0.00    +0.000 N 
ATOM      8  C   UNL     1       6.842   5.506  18.421  0.00  0.00    +0.000 A 
ATOM      9  C   UNL     1       5.905   4.468  18.306  0.00  0.00    +0.000 A 
ATOM     10  H   UNL     1       8.330   4.959  19.858  0.00  0.00    +0.000 HD
ENDROOT
BRANCH   1  11
ATOM     11  N   UNL     1       3.751   3.720  17.346  0.00  0.00    +0.000 N 
ATOM     12  H   UNL     1       3.264   3.866  16.447  0.00  0.00    +0.000 HD
BRANCH  11  18
ATOM     13  C   UNL     1       2.942   2.472  19.346  0.00  0.00    +0.000 A 
ATOM     14  C   UNL     1       1.942   2.264  20.313  0.00  0.00    +0.000 A 
ATOM     15  C   UNL     1       0.829   3.100  20.373  0.00  0.00    +0.000 A 
ATOM     16  C   UNL     1       0.710   4.152  19.473  0.00  0.00    +0.000 A 
ATOM     17  C   UNL     1       1.678   4.338  18.483  0.00  0.00    +0.000 A 
ATOM     18  C   UNL     1       2.782   3.476  18.364  0.00  0.00    +0.000 A 
BRANCH  13  20
ATOM     19  N   UNL     1       4.212   0.601  18.423  0.00  0.00    +0.000 N 
ATOM     20  C   UNL     1       4.149   1.599  19.360  0.00  0.00    +0.000 C 
ATOM     21  O   UNL     1       5.033   1.732  20.198  0.00  0.00    +0.000 OA
ATOM     22  H   UNL     1       4.980  -0.052  18.497  0.00  0.00    +0.000 HD
ATOM     23  H   UNL     1       3.396   0.298  17.903  0.00  0.00    +0.000 HD
ENDBRANCH  13  20
ENDBRANCH  11  18
ENDBRANCH   1  11
BRANCH   5  24
ATOM     24  C   UNL     1       8.061   8.882  17.875  0.00  0.00    +0.000 C 
ATOM     25  C   UNL     1       8.915   9.687  18.533  0.00  0.00    +0.000 C 
BRANCH  25  26
ATOM     26  C   UNL     1       9.103  11.120  18.272  0.00  0.00    +0.000 A 
ATOM     27  C   UNL     1       8.090  11.846  17.651  0.00  0.00    +0.000 A 
ATOM     28  C   UNL     1       8.289  13.200  17.389  0.00  0.00    +0.000 A 
ATOM     29  C   UNL     1       9.494  13.790  17.750  0.00  0.00    +0.000 A 
ATOM     30  C   UNL     1      10.449  12.996  18.362  0.00  0.00    +0.000 A 
ATOM     31  N   UNL     1      10.283  11.680  18.631  0.00  0.00    +0.000 NA
ENDBRANCH  25  26
ENDBRANCH   5  24
TORSDOF 5
ENDMDL
MODEL 6
REMARK VINA RESULT:      -8.4      6.261      8.193
REMARK  Name = 
REMARK  5 active torsions:
REMARK  status: ('A' for Active; 'I' for Inactive)
REMARK    1  A    between atoms: C_2  and  C_4
REMARK    2  A    between atoms: C_9  and  N_10
REMARK    3  A    between atoms: N_10  and  C_11
REMARK    4  A    between atoms: C_15  and  C_16
REMARK    5  A    between atoms: C_17  and  C_18
REMARK                            x       y       z     vdW  Elec       q    Type
REMARK                         _______ _______ _______ _____ _____    ______ ____
ROOT
ATOM      1  C   UNL     1       2.096   7.274  19.908  0.00  0.00    +0.000 A 
ATOM      2  C   UNL     1       1.492   7.654  21.113  0.00  0.00    +0.000 A 
ATOM      3  C   UNL     1       0.825   8.884  21.252  0.00  0.00    +0.000 A 
ATOM      4  C   UNL     1       0.794   9.774  20.162  0.00  0.00    +0.000 A 
ATOM      5  C   UNL     1       0.341  11.111  19.918  0.00  0.00    +0.000 A 
ATOM      6  N   UNL     1       0.558  11.470  18.642  0.00  0.00    +0.000 NA
ATOM      7  N   UNL     1       1.181  10.411  18.104  0.00  0.00    +0.000 N 
ATOM      8  C   UNL     1       1.378   9.370  18.967  0.00  0.00    +0.000 A 
ATOM      9  C   UNL     1       2.040   8.143  18.806  0.00  0.00    +0.000 A 
ATOM     10  H   UNL     1       1.473  10.471  17.136  0.00  0.00    +0.000 HD
ENDROOT
BRANCH   1  11
ATOM     11  N   UNL     1       2.881   6.085  19.891  0.00  0.00    +0.000 N 
ATOM     12  H   UNL     1       3.771   6.299  19.414  0.00  0.00    +0.000 HD
BRANCH  11  18
ATOM     13  C   UNL     1       3.195   3.955  18.636  0.00  0.00    +0.000 A 
ATOM     14  C   UNL     1       2.701   2.691  18.266  0.00  0.00    +0.000 A 
ATOM     15  C   UNL     1       1.515   2.206  18.811  0.00  0.00    +0.000 A 
ATOM     16  C   UNL     1       0.817   2.976  19.734  0.00  0.00    +0.000 A 
ATOM     17  C   UNL     1       1.279   4.249  20.074  0.00  0.00    +0.000 A 
ATOM     18  C   UNL     1       2.443   4.786  19.497  0.00  0.00    +0.000 A 
BRANCH  13  20
ATOM     19  N   UNL     1       5.629   3.777  18.545  0.00  0.00    +0.000 N 
ATOM     20  C   UNL     1       4.503   4.407  18.083  0.00  0.00    +0.000 C 
ATOM     21  O   UNL     1       4.581   5.328  17.281  0.00  0.00    +0.000 OA
ATOM     22  H   UNL     1       6.520   4.150  18.246  0.00  0.00    +0.000 HD
ATOM     23  H   UNL     1       5.624   3.212  19.386  0.00  0.00    +0.000 HD
ENDBRANCH  13  20
ENDBRANCH  11  18
ENDBRANCH   1  11
BRANCH   5  24
ATOM     24  C   UNL     1      -0.203  11.997  20.911  0.00  0.00    +0.000 C 
ATOM     25  C   UNL     1      -1.120  11.635  21.827  0.00  0.00    +0.000 C 
BRANCH  25  26
ATOM     26  C   UNL     1      -1.757  12.538  22.794  0.00  0.00    +0.000 A 
ATOM     27  C   UNL     1      -3.044  12.261  23.251  0.00  0.00    +0.000 A 
ATOM     28  C   UNL     1      -3.646  13.138  24.151  0.00  0.00    +0.000 A 
ATOM     29  C   UNL     1      -2.951  14.267  24.565  0.00  0.00    +0.000 A 
ATOM     30  C   UNL     1      -1.678  14.469  24.061  0.00  0.00    +0.000 A 
ATOM     31  N   UNL     1      -1.066  13.634  23.188  0.00  0.00    +0.000 NA
ENDBRANCH  25  26
ENDBRANCH   5  24
TORSDOF 5
ENDMDL
MODEL 7
REMARK VINA RESULT:      -8.3      6.377      8.357
REMARK  Name = 
REMARK  5 active torsions:
REMARK  status: ('A' for Active; 'I' for Inactive)
REMARK    1  A    between atoms: C_2  and  C_4
REMARK    2  A    between atoms: C_9  and  N_10
REMARK    3  A    between atoms: N_10  and  C_11
REMARK    4  A    between atoms: C_15  and  C_16
REMARK    5  A    between atoms: C_17  and  C_18
REMARK                            x       y       z     vdW  Elec       q    Type
REMARK                         _______ _______ _______ _____ _____    ______ ____
ROOT
ATOM      1  C   UNL     1       2.443   7.451  18.998  0.00  0.00    +0.000 A 
ATOM      2  C   UNL     1       1.957   7.480  20.312  0.00  0.00    +0.000 A 
ATOM      3  C   UNL     1       1.099   8.498  20.761  0.00  0.00    +0.000 A 
ATOM      4  C   UNL     1       0.746   9.538  19.879  0.00  0.00    +0.000 A 
ATOM      5  C   UNL     1       0.021  10.770  19.954  0.00  0.00    +0.000 A 
ATOM      6  N   UNL     1      -0.016  11.383  18.759  0.00  0.00    +0.000 NA
ATOM      7  N   UNL     1       0.710  10.589  17.960  0.00  0.00    +0.000 N 
ATOM      8  C   UNL     1       1.220   9.479  18.574  0.00  0.00    +0.000 A 
ATOM      9  C   UNL     1       2.069   8.466  18.103  0.00  0.00    +0.000 A 
ATOM     10  H   UNL     1       0.845  10.876  16.997  0.00  0.00    +0.000 HD
ENDROOT
BRANCH   1  11
ATOM     11  N   UNL     1       3.426   6.475  18.664  0.00  0.00    +0.000 N 
ATOM     12  H   UNL     1       4.049   6.884  17.950  0.00  0.00    +0.000 HD
BRANCH  11  18
ATOM     13  C   UNL     1       4.217   4.140  18.300  0.00  0.00    +0.000 A 
ATOM     14  C   UNL     1       3.922   2.807  17.956  0.00  0.00    +0.000 A 
ATOM     15  C   UNL     1       2.605   2.405  17.744  0.00  0.00    +0.000 A 
ATOM     16  C   UNL     1       1.574   3.327  17.879  0.00  0.00    +0.000 A 
ATOM     17  C   UNL     1       1.863   4.660  18.178  0.00  0.00    +0.000 A 
ATOM     18  C   UNL     1       3.186   5.106  18.343  0.00  0.00    +0.000 A 
BRANCH  13  20
ATOM     19  N   UNL     1       6.562   4.220  17.624  0.00  0.00    +0.000 N 
ATOM     20  C   UNL     1       5.630   4.512  18.586  0.00  0.00    +0.000 C 
ATOM     21  O   UNL     1       5.962   5.019  19.650  0.00  0.00    +0.000 OA
ATOM     22  H   UNL     1       7.532   4.380  17.860  0.00  0.00    +0.000 HD
ATOM     23  H   UNL     1       6.371   3.574  16.868  0.00  0.00    +0.000 HD
ENDBRANCH  13  20
ENDBRANCH  11  18
ENDBRANCH   1  11
BRANCH   5  24
ATOM     24  C   UNL     1      -0.531  11.337  21.155  0.00  0.00    +0.000 C 
ATOM     25  C   UNL     1      -1.677  12.039  21.201  0.00  0.00    +0.000 C 
BRANCH  25  26
ATOM     26  C   UNL     1      -2.219  12.704  22.394  0.00  0.00    +0.000 A 
ATOM     27  C   UNL     1      -1.547  13.796  22.939  0.00  0.00    +0.000 A 
ATOM     28  C   UNL     1      -2.060  14.403  24.083  0.00  0.00    +0.000 A 
ATOM     29  C   UNL     1      -3.223  13.903  24.653  0.00  0.00    +0.000 A 
ATOM     30  C   UNL     1      -3.827  12.813  24.050  0.00  0.00    +0.000 A 
ATOM     31  N   UNL     1      -3.354  12.204  22.936  0.00  0.00    +0.000 NA
ENDBRANCH  25  26
ENDBRANCH   5  24
TORSDOF 5
ENDMDL
MODEL 8
REMARK VINA RESULT:      -8.3      6.474      8.578
REMARK  Name = 
REMARK  5 active torsions:
REMARK  status: ('A' for Active; 'I' for Inactive)
REMARK    1  A    between atoms: C_2  and  C_4
REMARK    2  A    between atoms: C_9  and  N_10
REMARK    3  A    between atoms: N_10  and  C_11
REMARK    4  A    between atoms: C_15  and  C_16
REMARK    5  A    between atoms: C_17  and  C_18
REMARK                            x       y       z     vdW  Elec       q    Type
REMARK                         _______ _______ _______ _____ _____    ______ ____
ROOT
ATOM      1  C   UNL     1       1.982   7.563  20.034  0.00  0.00    +0.000 A 
ATOM      2  C   UNL     1       1.164   7.782  21.150  0.00  0.00    +0.000 A 
ATOM      3  C   UNL     1       0.271   8.866  21.213  0.00  0.00    +0.000 A 
ATOM      4  C   UNL     1       0.222   9.777  20.140  0.00  0.00    +0.000 A 
ATOM      5  C   UNL     1      -0.432  11.018  19.854  0.00  0.00    +0.000 A 
ATOM      6  N   UNL     1      -0.117  11.459  18.624  0.00  0.00    +0.000 NA
ATOM      7  N   UNL     1       0.754  10.550  18.163  0.00  0.00    +0.000 N 
ATOM      8  C   UNL     1       1.023   9.530  19.032  0.00  0.00    +0.000 A 
ATOM      9  C   UNL     1       1.913   8.449  18.946  0.00  0.00    +0.000 A 
ATOM     10  H   UNL     1       1.156  10.698  17.244  0.00  0.00    +0.000 HD
ENDROOT
BRANCH   1  11
ATOM     11  N   UNL     1       2.966   6.535  20.109  0.00  0.00    +0.000 N 
ATOM     12  H   UNL     1       3.873   6.980  20.322  0.00  0.00    +0.000 HD
BRANCH  11  18
ATOM     13  C   UNL     1       2.603   4.202  19.312  0.00  0.00    +0.000 A 
ATOM     14  C   UNL     1       2.860   3.202  18.357  0.00  0.00    +0.000 A 
ATOM     15  C   UNL     1       3.598   3.489  17.211  0.00  0.00    +0.000 A 
ATOM     16  C   UNL     1       4.080   4.777  17.008  0.00  0.00    +0.000 A 
ATOM     17  C   UNL     1       3.866   5.764  17.972  0.00  0.00    +0.000 A 
ATOM     18  C   UNL     1       3.172   5.488  19.164  0.00  0.00    +0.000 A 
BRANCH  13  20
ATOM     19  N   UNL     1       0.503   3.364  20.234  0.00  0.00    +0.000 N 
ATOM     20  C   UNL     1       1.751   3.871  20.488  0.00  0.00    +0.000 C 
ATOM     21  O   UNL     1       2.124   4.080  21.636  0.00  0.00    +0.000 OA
ATOM     22  H   UNL     1      -0.111   3.235  21.027  0.00  0.00    +0.000 HD
ATOM     23  H   UNL     1       0.070   3.431  19.321  0.00  0.00    +0.000 HD
ENDBRANCH  13  20
ENDBRANCH  11  18
ENDBRANCH   1  11
BRANCH   5  24
ATOM     24  C   UNL     1      -1.255  11.755  20.774  0.00  0.00    +0.000 C 
ATOM     25  C   UNL     1      -0.837  12.200  21.973  0.00  0.00    +0.000 C 
BRANCH  25  26
ATOM     26  C   UNL     1      -1.678  12.876  22.969  0.00  0.00    +0.000 A 
ATOM     27  C   UNL     1      -2.927  12.347  23.289  0.00  0.00    +0.000 A 
ATOM     28  C   UNL     1      -3.724  13.010  24.220  0.00  0.00    +0.000 A 
ATOM     29  C   UNL     1      -3.257  14.181  24.801  0.00  0.00    +0.000 A 
ATOM     30  C   UNL     1      -2.005  14.640  24.426  0.00  0.00    +0.000 A 
ATOM     31  N   UNL     1      -1.207  14.016  23.527  0.00  0.00    +0.000 NA
ENDBRANCH  25  26
ENDBRANCH   5  24
TORSDOF 5
ENDMDL
MODEL 9
REMARK VINA RESULT:      -8.1      6.936      8.737
REMARK  Name = 
REMARK  5 active torsions:
REMARK  status: ('A' for Active; 'I' for Inactive)
REMARK    1  A    between atoms: C_2  and  C_4
REMARK    2  A    between atoms: C_9  and  N_10
REMARK    3  A    between atoms: N_10  and  C_11
REMARK    4  A    between atoms: C_15  and  C_16
REMARK    5  A    between atoms: C_17  and  C_18
REMARK                            x       y       z     vdW  Elec       q    Type
REMARK                         _______ _______ _______ _____ _____    ______ ____
ROOT
ATOM      1  C   UNL     1       1.603   7.977  20.194  0.00  0.00    +0.000 A 
ATOM      2  C   UNL     1       0.845   8.203  21.350  0.00  0.00    +0.000 A 
ATOM      3  C   UNL     1       0.032   9.341  21.491  0.00  0.00    +0.000 A 
ATOM      4  C   UNL     1       0.004  10.297  20.458  0.00  0.00    +0.000 A 
ATOM      5  C   UNL     1      -0.574  11.590  20.248  0.00  0.00    +0.000 A 
ATOM      6  N   UNL     1      -0.278  12.059  19.024  0.00  0.00    +0.000 NA
ATOM      7  N   UNL     1       0.512  11.115  18.493  0.00  0.00    +0.000 N 
ATOM      8  C   UNL     1       0.743  10.043  19.309  0.00  0.00    +0.000 A 
ATOM      9  C   UNL     1       1.554   8.910  19.145  0.00  0.00    +0.000 A 
ATOM     10  H   UNL     1       0.887  11.274  17.565  0.00  0.00    +0.000 HD
ENDROOT
BRANCH   1  11
ATOM     11  N   UNL     1       2.517   6.884  20.188  0.00  0.00    +0.000 N 
ATOM     12  H   UNL     1       3.442   7.245  19.906  0.00  0.00    +0.000 HD
BRANCH  11  18
ATOM     13  C   UNL     1       3.071   5.155  18.481  0.00  0.00    +0.000 A 
ATOM     14  C   UNL     1       2.807   3.895  17.912  0.00  0.00    +0.000 A 
ATOM     15  C   UNL     1       1.861   3.046  18.480  0.00  0.00    +0.000 A 
ATOM     16  C   UNL     1       1.176   3.444  19.622  0.00  0.00    +0.000 A 
ATOM     17  C   UNL     1       1.402   4.709  20.167  0.00  0.00    +0.000 A 
ATOM     18  C   UNL     1       2.311   5.609  19.582  0.00  0.00    +0.000 A 
BRANCH  13  20
ATOM     19  N   UNL     1       5.436   5.590  18.053  0.00  0.00    +0.000 N 
ATOM     20  C   UNL     1       4.140   6.004  17.884  0.00  0.00    +0.000 C 
ATOM     21  O   UNL     1       3.884   7.051  17.303  0.00  0.00    +0.000 OA
ATOM     22  H   UNL     1       6.163   6.216  17.736  0.00  0.00    +0.000 HD
ATOM     23  H   UNL     1       5.693   4.892  18.741  0.00  0.00    +0.000 HD
ENDBRANCH  13  20
ENDBRANCH  11  18
ENDBRANCH   1  11
BRANCH   5  24
ATOM     24  C   UNL     1      -1.309  12.341  21.229  0.00  0.00    +0.000 C 
ATOM     25  C   UNL     1      -0.748  12.954  22.287  0.00  0.00    +0.000 C 
BRANCH  25  26
ATOM     26  C   UNL     1      -1.481  13.651  23.352  0.00  0.00    +0.000 A 
ATOM     27  C   UNL     1      -2.817  13.335  23.590  0.00  0.00    +0.000 A 
ATOM     28  C   UNL     1      -3.507  14.019  24.589  0.00  0.00    +0.000 A 
ATOM     29  C   UNL     1      -2.848  15.001  25.317  0.00  0.00    +0.000 A 
ATOM     30  C   UNL     1      -1.521  15.255  25.015  0.00  0.00    +0.000 A 
ATOM     31  N   UNL     1      -0.824  14.606  24.053  0.00  0.00    +0.000 NA
ENDBRANCH  25  26
ENDBRANCH   5  24
TORSDOF 5
ENDMDL
