MODEL 1
REMARK VINA RESULT:      -6.9      0.000      0.000
REMARK  Name = 
REMARK  13 active torsions:
REMARK  status: ('A' for Active; 'I' for Inactive)
REMARK    1  A    between atoms: C_1  and  C_2
REMARK    2  A    between atoms: C_2  and  C_3
REMARK    3  A    between atoms: C_3  and  C_4
REMARK    4  A    between atoms: C_4  and  N_5
REMARK    5  A    between atoms: N_5  and  C_6
REMARK    6  A    between atoms: N_5  and  C_7
REMARK    7  A    between atoms: C_7  and  C_8
REMARK    8  A    between atoms: C_8  and  N_9
REMARK    9  A    between atoms: C_10  and  S_11
REMARK   10  A    between atoms: N_12  and  C_13
REMARK   11  A    between atoms: N_22  and  C_23
REMARK   12  A    between atoms: C_23  and  C_24
REMARK   13  A    between atoms: C_28  and  C_29
REMARK                            x       y       z     vdW  Elec       q    Type
REMARK                         _______ _______ _______ _____ _____    ______ ____
ROOT
ATOM      1  C   UNL     1      -0.504  12.275  19.977  0.00  0.00    +0.000 A 
ATOM      2  C   UNL     1       0.068  12.018  18.732  0.00  0.00    +0.000 A 
ATOM      3  C   UNL     1       0.742  10.809  18.494  0.00  0.00    +0.000 A 
ATOM      4  C   UNL     1       0.888   9.841  19.477  0.00  0.00    +0.000 A 
ATOM      5  N   UNL     1       1.588   8.723  19.209  0.00  0.00    +0.000 NA
ATOM      6  C   UNL     1       1.736   7.781  20.165  0.00  0.00    +0.000 A 
ATOM      7  N   UNL     1       2.465   6.642  19.890  0.00  0.00    +0.000 N 
ATOM      8  C   UNL     1       2.094   5.348  20.472  0.00  0.00    +0.000 C 
ATOM      9  C   UNL     1       1.835   4.283  19.380  0.00  0.00    +0.000 C 
ATOM     10  N   UNL     1       2.886   4.171  18.340  0.00  0.00    +0.000 NA
ATOM     11  C   UNL     1       3.065   5.524  17.754  0.00  0.00    +0.000 C 
ATOM     12  C   UNL     1       3.414   6.630  18.772  0.00  0.00    +0.000 C 
ATOM     13  C   UNL     1       1.192   7.968  21.433  0.00  0.00    +0.000 A 
ATOM     14  C   UNL     1       0.468   9.118  21.739  0.00  0.00    +0.000 A 
ATOM     15  C   UNL     1      -0.062   9.293  23.136  0.00  0.00    +0.000 C 
ATOM     16  C   UNL     1       0.300  10.081  20.734  0.00  0.00    +0.000 A 
ATOM     17  C   UNL     1      -0.403  11.278  20.948  0.00  0.00    +0.000 A 
ENDROOT
BRANCH   1  20
ATOM     18  N   UNL     1      -3.350  12.969  20.297  0.00  0.00    +0.000 NA
ATOM     19  C   UNL     1      -2.391  13.821  20.419  0.00  0.00    +0.000 C 
ATOM     20  N   UNL     1      -1.058  13.532  20.262  0.00  0.00    +0.000 N 
ATOM     21  H   UNL     1      -0.415  14.262  20.536  0.00  0.00    +0.000 HD
BRANCH  19  22
ATOM     22  S   UNL     1      -2.608  15.521  20.841  0.00  0.00    +0.000 S 
ATOM     23  H   UNL     1      -1.593  16.032  20.136  0.00  0.00    +0.000 HD
ENDBRANCH  19  22
BRANCH  18  24
ATOM     24  C   UNL     1      -4.738  13.330  20.524  0.00  0.00    +0.000 C 
BRANCH  24  25
ATOM     25  C   UNL     1      -5.702  12.266  19.958  0.00  0.00    +0.000 C 
BRANCH  25  26
ATOM     26  N   UNL     1      -5.808  12.343  18.477  0.00  0.00    +0.000 NA
ATOM     27  C   UNL     1      -7.193  12.567  18.052  0.00  0.00    +0.000 C 
BRANCH  26  28
ATOM     28  C   UNL     1      -5.240  11.127  17.859  0.00  0.00    +0.000 C 
BRANCH  28  29
ATOM     29  C   UNL     1      -4.378  11.446  16.628  0.00  0.00    +0.000 C 
BRANCH  29  31
ATOM     30  C   UNL     1      -2.834   9.811  17.722  0.00  0.00    +0.000 C 
ATOM     31  C   UNL     1      -2.923  11.021  16.800  0.00  0.00    +0.000 C 
ENDBRANCH  29  31
ENDBRANCH  28  29
ENDBRANCH  26  28
ENDBRANCH  25  26
ENDBRANCH  24  25
ENDBRANCH  18  24
ENDBRANCH   1  20
BRANCH  10  32
ATOM     32  C   UNL     1       4.117   3.609  18.920  0.00  0.00    +0.000 C 
ATOM     33  C   UNL     1       3.951   2.198  19.471  0.00  0.00    +0.000 C 
ENDBRANCH  10  32
TORSDOF 9
ENDMDL
MODEL 2
REMARK VINA RESULT:      -6.8      4.033      9.915
REMARK  Name = 
REMARK  13 active torsions:
REMARK  status: ('A' for Active; 'I' for Inactive)
REMARK    1  A    between atoms: C_1  and  C_2
REMARK    2  A    between atoms: C_2  and  C_3
REMARK    3  A    between atoms: C_3  and  C_4
REMARK    4  A    between atoms: C_4  and  N_5
REMARK    5  A    between atoms: N_5  and  C_6
REMARK    6  A    between atoms: N_5  and  C_7
REMARK    7  A    between atoms: C_7  and  C_8
REMARK    8  A    between atoms: C_8  and  N_9
REMARK    9  A    between atoms: C_10  and  S_11
REMARK   10  A    between atoms: N_12  and  C_13
REMARK   11  A    between atoms: N_22  and  C_23
REMARK   12  A    between atoms: C_23  and  C_24
REMARK   13  A    between atoms: C_28  and  C_29
REMARK                            x       y       z     vdW  Elec       q    Type
REMARK                         _______ _______ _______ _____ _____    ______ ____
ROOT
ATOM      1  C   UNL     1       2.060   7.060  19.486  0.00  0.00    +0.000 A 
ATOM      2  C   UNL     1       2.289   7.771  18.309  0.00  0.00    +0.000 A 
ATOM      3  C   UNL     1       1.968   9.136  18.229  0.00  0.00    +0.000 A 
ATOM      4  C   UNL     1       1.395   9.822  19.290  0.00  0.00    +0.000 A 
ATOM      5  N   UNL     1       1.060  11.117  19.141  0.00  0.00    +0.000 NA
ATOM      6  C   UNL     1       0.497  11.786  20.169  0.00  0.00    +0.000 A 
ATOM      7  N   UNL     1       0.143  13.110  20.007  0.00  0.00    +0.000 N 
ATOM      8  C   UNL     1       0.249  14.062  21.118  0.00  0.00    +0.000 C 
ATOM      9  C   UNL     1       1.159  15.261  20.759  0.00  0.00    +0.000 C 
ATOM     10  N   UNL     1       0.864  15.915  19.461  0.00  0.00    +0.000 NA
ATOM     11  C   UNL     1       0.915  14.857  18.419  0.00  0.00    +0.000 C 
ATOM     12  C   UNL     1      -0.032  13.664  18.661  0.00  0.00    +0.000 C 
ATOM     13  C   UNL     1       0.237  11.140  21.375  0.00  0.00    +0.000 A 
ATOM     14  C   UNL     1       0.569   9.800  21.556  0.00  0.00    +0.000 A 
ATOM     15  C   UNL     1       0.228   9.136  22.862  0.00  0.00    +0.000 C 
ATOM     16  C   UNL     1       1.173   9.118  20.489  0.00  0.00    +0.000 A 
ATOM     17  C   UNL     1       1.533   7.763  20.570  0.00  0.00    +0.000 A 
ENDROOT
BRANCH   1  20
ATOM     18  N   UNL     1       4.604   5.578  19.359  0.00  0.00    +0.000 NA
ATOM     19  C   UNL     1       3.454   5.009  19.479  0.00  0.00    +0.000 C 
ATOM     20  N   UNL     1       2.251   5.670  19.528  0.00  0.00    +0.000 N 
ATOM     21  H   UNL     1       1.450   5.107  19.776  0.00  0.00    +0.000 HD
BRANCH  19  22
ATOM     22  S   UNL     1       3.208   3.269  19.637  0.00  0.00    +0.000 S 
ATOM     23  H   UNL     1       4.488   2.883  19.601  0.00  0.00    +0.000 HD
ENDBRANCH  19  22
BRANCH  18  24
ATOM     24  C   UNL     1       5.844   4.823  19.363  0.00  0.00    +0.000 C 
BRANCH  24  25
ATOM     25  C   UNL     1       7.074   5.748  19.254  0.00  0.00    +0.000 C 
BRANCH  25  26
ATOM     26  N   UNL     1       7.638   5.763  17.879  0.00  0.00    +0.000 NA
ATOM     27  C   UNL     1       7.289   6.999  17.172  0.00  0.00    +0.000 C 
BRANCH  26  28
ATOM     28  C   UNL     1       7.197   4.567  17.130  0.00  0.00    +0.000 C 
BRANCH  28  29
ATOM     29  C   UNL     1       7.084   4.832  15.621  0.00  0.00    +0.000 C 
BRANCH  29  31
ATOM     30  C   UNL     1       4.767   4.014  16.085  0.00  0.00    +0.000 C 
ATOM     31  C   UNL     1       5.823   4.231  15.009  0.00  0.00    +0.000 C 
ENDBRANCH  29  31
ENDBRANCH  28  29
ENDBRANCH  26  28
ENDBRANCH  25  26
ENDBRANCH  24  25
ENDBRANCH  18  24
ENDBRANCH   1  20
BRANCH  10  32
ATOM     32  C   UNL     1      -0.426  16.619  19.527  0.00  0.00    +0.000 C 
ATOM     33  C   UNL     1      -0.816  17.319  18.231  0.00  0.00    +0.000 C 
ENDBRANCH  10  32
TORSDOF 9
ENDMDL
MODEL 3
REMARK VINA RESULT:      -6.8      3.911     10.005
REMARK  Name = 
REMARK  13 active torsions:
REMARK  status: ('A' for Active; 'I' for Inactive)
REMARK    1  A    between atoms: C_1  and  C_2
REMARK    2  A    between atoms: C_2  and  C_3
REMARK    3  A    between atoms: C_3  and  C_4
REMARK    4  A    between atoms: C_4  and  N_5
REMARK    5  A    between atoms: N_5  and  C_6
REMARK    6  A    between atoms: N_5  and  C_7
REMARK    7  A    between atoms: C_7  and  C_8
REMARK    8  A    between atoms: C_8  and  N_9
REMARK    9  A    between atoms: C_10  and  S_11
REMARK   10  A    between atoms: N_12  and  C_13
REMARK   11  A    between atoms: N_22  and  C_23
REMARK   12  A    between atoms: C_23  and  C_24
REMARK   13  A    between atoms: C_28  and  C_29
REMARK                            x       y       z     vdW  Elec       q    Type
REMARK                         _______ _______ _______ _____ _____    ______ ____
ROOT
ATOM      1  C   UNL     1       1.801   7.190  20.172  0.00  0.00    +0.000 A 
ATOM      2  C   UNL     1       2.057   7.828  18.958  0.00  0.00    +0.000 A 
ATOM      3  C   UNL     1       1.718   9.179  18.780  0.00  0.00    +0.000 A 
ATOM      4  C   UNL     1       1.102   9.922  19.776  0.00  0.00    +0.000 A 
ATOM      5  N   UNL     1       0.753  11.199  19.533  0.00  0.00    +0.000 NA
ATOM      6  C   UNL     1       0.148  11.923  20.499  0.00  0.00    +0.000 A 
ATOM      7  N   UNL     1      -0.220  13.228  20.240  0.00  0.00    +0.000 N 
ATOM      8  C   UNL     1      -0.163  14.251  21.290  0.00  0.00    +0.000 C 
ATOM      9  C   UNL     1       0.739  15.440  20.881  0.00  0.00    +0.000 C 
ATOM     10  N   UNL     1       0.476  16.003  19.535  0.00  0.00    +0.000 NA
ATOM     11  C   UNL     1       0.575  14.882  18.567  0.00  0.00    +0.000 C 
ATOM     12  C   UNL     1      -0.361  13.690  18.856  0.00  0.00    +0.000 C 
ATOM     13  C   UNL     1      -0.140  11.352  21.736  0.00  0.00    +0.000 A 
ATOM     14  C   UNL     1       0.206  10.032  22.013  0.00  0.00    +0.000 A 
ATOM     15  C   UNL     1      -0.166   9.448  23.348  0.00  0.00    +0.000 C 
ATOM     16  C   UNL     1       0.853   9.293  21.012  0.00  0.00    +0.000 A 
ATOM     17  C   UNL     1       1.230   7.952  21.191  0.00  0.00    +0.000 A 
ENDROOT
BRANCH   1  20
ATOM     18  N   UNL     1       4.172   5.632  19.374  0.00  0.00    +0.000 NA
ATOM     19  C   UNL     1       3.136   5.113  19.938  0.00  0.00    +0.000 C 
ATOM     20  N   UNL     1       2.011   5.809  20.309  0.00  0.00    +0.000 N 
ATOM     21  H   UNL     1       1.347   5.301  20.875  0.00  0.00    +0.000 HD
BRANCH  19  22
ATOM     22  S   UNL     1       2.977   3.409  20.372  0.00  0.00    +0.000 S 
ATOM     23  H   UNL     1       4.129   3.265  21.036  0.00  0.00    +0.000 HD
ENDBRANCH  19  22
BRANCH  18  24
ATOM     24  C   UNL     1       5.350   4.847  19.051  0.00  0.00    +0.000 C 
BRANCH  24  25
ATOM     25  C   UNL     1       5.254   4.229  17.641  0.00  0.00    +0.000 C 
BRANCH  25  26
ATOM     26  N   UNL     1       6.520   4.385  16.878  0.00  0.00    +0.000 NA
ATOM     27  C   UNL     1       7.654   4.640  17.771  0.00  0.00    +0.000 C 
BRANCH  26  28
ATOM     28  C   UNL     1       6.379   5.450  15.863  0.00  0.00    +0.000 C 
BRANCH  28  29
ATOM     29  C   UNL     1       6.808   4.984  14.463  0.00  0.00    +0.000 C 
BRANCH  29  31
ATOM     30  C   UNL     1       6.230   3.560  12.490  0.00  0.00    +0.000 C 
ATOM     31  C   UNL     1       6.038   3.756  13.989  0.00  0.00    +0.000 C 
ENDBRANCH  29  31
ENDBRANCH  28  29
ENDBRANCH  26  28
ENDBRANCH  25  26
ENDBRANCH  24  25
ENDBRANCH  18  24
ENDBRANCH   1  20
BRANCH  10  32
ATOM     32  C   UNL     1      -0.826  16.689  19.517  0.00  0.00    +0.000 C 
ATOM     33  C   UNL     1      -1.083  17.492  18.248  0.00  0.00    +0.000 C 
ENDBRANCH  10  32
TORSDOF 9
ENDMDL
MODEL 4
REMARK VINA RESULT:      -6.8      1.329      2.405
REMARK  Name = 
REMARK  13 active torsions:
REMARK  status: ('A' for Active; 'I' for Inactive)
REMARK    1  A    between atoms: C_1  and  C_2
REMARK    2  A    between atoms: C_2  and  C_3
REMARK    3  A    between atoms: C_3  and  C_4
REMARK    4  A    between atoms: C_4  and  N_5
REMARK    5  A    between atoms: N_5  and  C_6
REMARK    6  A    between atoms: N_5  and  C_7
REMARK    7  A    between atoms: C_7  and  C_8
REMARK    8  A    between atoms: C_8  and  N_9
REMARK    9  A    between atoms: C_10  and  S_11
REMARK   10  A    between atoms: N_12  and  C_13
REMARK   11  A    between atoms: N_22  and  C_23
REMARK   12  A    between atoms: C_23  and  C_24
REMARK   13  A    between atoms: C_28  and  C_29
REMARK                            x       y       z     vdW  Elec       q    Type
REMARK                         _______ _______ _______ _____ _____    ______ ____
ROOT
ATOM      1  C   UNL     1      -0.169  11.210  21.887  0.00  0.00    +0.000 A 
ATOM      2  C   UNL     1      -0.207  10.035  22.636  0.00  0.00    +0.000 A 
ATOM      3  C   UNL     1       0.369   8.855  22.137  0.00  0.00    +0.000 A 
ATOM      4  C   UNL     1       0.969   8.799  20.887  0.00  0.00    +0.000 A 
ATOM      5  N   UNL     1       1.459   7.628  20.437  0.00  0.00    +0.000 NA
ATOM      6  C   UNL     1       2.038   7.569  19.219  0.00  0.00    +0.000 A 
ATOM      7  N   UNL     1       2.527   6.365  18.757  0.00  0.00    +0.000 N 
ATOM      8  C   UNL     1       3.731   6.308  17.920  0.00  0.00    +0.000 C 
ATOM      9  C   UNL     1       4.824   5.412  18.549  0.00  0.00    +0.000 C 
ATOM     10  N   UNL     1       4.367   4.074  18.998  0.00  0.00    +0.000 NA
ATOM     11  C   UNL     1       3.233   4.293  19.932  0.00  0.00    +0.000 C 
ATOM     12  C   UNL     1       2.060   5.107  19.348  0.00  0.00    +0.000 C 
ATOM     13  C   UNL     1       2.111   8.704  18.415  0.00  0.00    +0.000 A 
ATOM     14  C   UNL     1       1.608   9.925  18.853  0.00  0.00    +0.000 A 
ATOM     15  C   UNL     1       1.670  11.110  17.928  0.00  0.00    +0.000 C 
ATOM     16  C   UNL     1       1.027   9.983  20.128  0.00  0.00    +0.000 A 
ATOM     17  C   UNL     1       0.481  11.166  20.653  0.00  0.00    +0.000 A 
ENDROOT
BRANCH   1  20
ATOM     18  N   UNL     1      -2.571  12.432  20.693  0.00  0.00    +0.000 NA
ATOM     19  C   UNL     1      -1.987  12.891  21.746  0.00  0.00    +0.000 C 
ATOM     20  N   UNL     1      -0.860  12.353  22.319  0.00  0.00    +0.000 N 
ATOM     21  H   UNL     1      -0.606  12.726  23.222  0.00  0.00    +0.000 HD
BRANCH  19  22
ATOM     22  S   UNL     1      -2.545  14.285  22.675  0.00  0.00    +0.000 S 
ATOM     23  H   UNL     1      -1.982  15.251  21.940  0.00  0.00    +0.000 HD
ENDBRANCH  19  22
BRANCH  18  24
ATOM     24  C   UNL     1      -3.789  13.020  20.166  0.00  0.00    +0.000 C 
BRANCH  24  25
ATOM     25  C   UNL     1      -4.734  11.947  19.586  0.00  0.00    +0.000 C 
BRANCH  25  26
ATOM     26  N   UNL     1      -4.531  11.758  18.126  0.00  0.00    +0.000 NA
ATOM     27  C   UNL     1      -5.629  12.349  17.354  0.00  0.00    +0.000 C 
BRANCH  26  28
ATOM     28  C   UNL     1      -4.359  10.324  17.813  0.00  0.00    +0.000 C 
BRANCH  28  29
ATOM     29  C   UNL     1      -2.881   9.907  17.780  0.00  0.00    +0.000 C 
BRANCH  29  31
ATOM     30  C   UNL     1      -2.827  10.106  15.288  0.00  0.00    +0.000 C 
ATOM     31  C   UNL     1      -2.130  10.490  16.587  0.00  0.00    +0.000 C 
ENDBRANCH  29  31
ENDBRANCH  28  29
ENDBRANCH  26  28
ENDBRANCH  25  26
ENDBRANCH  24  25
ENDBRANCH  18  24
ENDBRANCH   1  20
BRANCH  10  32
ATOM     32  C   UNL     1       4.025   3.237  17.837  0.00  0.00    +0.000 C 
ATOM     33  C   UNL     1       3.486   1.861  18.205  0.00  0.00    +0.000 C 
ENDBRANCH  10  32
TORSDOF 9
ENDMDL
MODEL 5
REMARK VINA RESULT:      -6.6      3.931      9.889
REMARK  Name = 
REMARK  13 active torsions:
REMARK  status: ('A' for Active; 'I' for Inactive)
REMARK    1  A    between atoms: C_1  and  C_2
REMARK    2  A    between atoms: C_2  and  C_3
REMARK    3  A    between atoms: C_3  and  C_4
REMARK    4  A    between atoms: C_4  and  N_5
REMARK    5  A    between atoms: N_5  and  C_6
REMARK    6  A    between atoms: N_5  and  C_7
REMARK    7  A    between atoms: C_7  and  C_8
REMARK    8  A    between atoms: C_8  and  N_9
REMARK    9  A    between atoms: C_10  and  S_11
REMARK   10  A    between atoms: N_12  and  C_13
REMARK   11  A    between atoms: N_22  and  C_23
REMARK   12  A    between atoms: C_23  and  C_24
REMARK   13  A    between atoms: C_28  and  C_29
REMARK                            x       y       z     vdW  Elec       q    Type
REMARK                         _______ _______ _______ _____ _____    ______ ____
ROOT
ATOM      1  C   UNL     1       1.867   6.994  20.236  0.00  0.00    +0.000 A 
ATOM      2  C   UNL     1       2.155   7.571  19.000  0.00  0.00    +0.000 A 
ATOM      3  C   UNL     1       1.846   8.919  18.755  0.00  0.00    +0.000 A 
ATOM      4  C   UNL     1       1.229   9.719  19.706  0.00  0.00    +0.000 A 
ATOM      5  N   UNL     1       0.909  10.989  19.399  0.00  0.00    +0.000 NA
ATOM      6  C   UNL     1       0.304  11.769  20.320  0.00  0.00    +0.000 A 
ATOM      7  N   UNL     1      -0.034  13.067  19.997  0.00  0.00    +0.000 N 
ATOM      8  C   UNL     1       0.027  14.136  20.999  0.00  0.00    +0.000 C 
ATOM      9  C   UNL     1       0.959  15.287  20.553  0.00  0.00    +0.000 C 
ATOM     10  N   UNL     1       0.729  15.793  19.178  0.00  0.00    +0.000 NA
ATOM     11  C   UNL     1       0.821  14.627  18.263  0.00  0.00    +0.000 C 
ATOM     12  C   UNL     1      -0.143  13.468  18.591  0.00  0.00    +0.000 C 
ATOM     13  C   UNL     1      -0.015  11.260  21.577  0.00  0.00    +0.000 A 
ATOM     14  C   UNL     1       0.299   9.948  21.919  0.00  0.00    +0.000 A 
ATOM     15  C   UNL     1      -0.106   9.433  23.273  0.00  0.00    +0.000 C 
ATOM     16  C   UNL     1       0.947   9.152  20.964  0.00  0.00    +0.000 A 
ATOM     17  C   UNL     1       1.295   7.813  21.210  0.00  0.00    +0.000 A 
ENDROOT
BRANCH   1  20
ATOM     18  N   UNL     1       3.819   5.212  18.933  0.00  0.00    +0.000 NA
ATOM     19  C   UNL     1       2.977   4.816  19.825  0.00  0.00    +0.000 C 
ATOM     20  N   UNL     1       2.047   5.617  20.440  0.00  0.00    +0.000 N 
ATOM     21  H   UNL     1       1.560   5.205  21.222  0.00  0.00    +0.000 HD
BRANCH  19  22
ATOM     22  S   UNL     1       2.880   3.167  20.449  0.00  0.00    +0.000 S 
ATOM     23  H   UNL     1       3.135   2.509  19.313  0.00  0.00    +0.000 HD
ENDBRANCH  19  22
BRANCH  18  24
ATOM     24  C   UNL     1       4.811   4.322  18.357  0.00  0.00    +0.000 C 
BRANCH  24  25
ATOM     25  C   UNL     1       5.085   4.658  16.876  0.00  0.00    +0.000 C 
BRANCH  25  26
ATOM     26  N   UNL     1       6.442   5.230  16.677  0.00  0.00    +0.000 NA
ATOM     27  C   UNL     1       7.058   4.728  15.445  0.00  0.00    +0.000 C 
BRANCH  26  28
ATOM     28  C   UNL     1       7.291   4.959  17.856  0.00  0.00    +0.000 C 
BRANCH  28  29
ATOM     29  C   UNL     1       7.789   6.249  18.527  0.00  0.00    +0.000 C 
BRANCH  29  31
ATOM     30  C   UNL     1       8.314   8.638  18.011  0.00  0.00    +0.000 C 
ATOM     31  C   UNL     1       7.313   7.508  17.810  0.00  0.00    +0.000 C 
ENDBRANCH  29  31
ENDBRANCH  28  29
ENDBRANCH  26  28
ENDBRANCH  25  26
ENDBRANCH  24  25
ENDBRANCH  18  24
ENDBRANCH   1  20
BRANCH  10  32
ATOM     32  C   UNL     1      -0.559  16.502  19.106  0.00  0.00    +0.000 C 
ATOM     33  C   UNL     1      -0.724  17.358  17.857  0.00  0.00    +0.000 C 
ENDBRANCH  10  32
TORSDOF 9
ENDMDL
MODEL 6
REMARK VINA RESULT:      -6.5      1.510      2.525
REMARK  Name = 
REMARK  13 active torsions:
REMARK  status: ('A' for Active; 'I' for Inactive)
REMARK    1  A    between atoms: C_1  and  C_2
REMARK    2  A    between atoms: C_2  and  C_3
REMARK    3  A    between atoms: C_3  and  C_4
REMARK    4  A    between atoms: C_4  and  N_5
REMARK    5  A    between atoms: N_5  and  C_6
REMARK    6  A    between atoms: N_5  and  C_7
REMARK    7  A    between atoms: C_7  and  C_8
REMARK    8  A    between atoms: C_8  and  N_9
REMARK    9  A    between atoms: C_10  and  S_11
REMARK   10  A    between atoms: N_12  and  C_13
REMARK   11  A    between atoms: N_22  and  C_23
REMARK   12  A    between atoms: C_23  and  C_24
REMARK   13  A    between atoms: C_28  and  C_29
REMARK                            x       y       z     vdW  Elec       q    Type
REMARK                         _______ _______ _______ _____ _____    ______ ____
ROOT
ATOM      1  C   UNL     1      -0.758  11.435  22.534  0.00  0.00    +0.000 A 
ATOM      2  C   UNL     1      -0.478  10.216  23.151  0.00  0.00    +0.000 A 
ATOM      3  C   UNL     1       0.221   9.213  22.461  0.00  0.00    +0.000 A 
ATOM      4  C   UNL     1       0.638   9.375  21.148  0.00  0.00    +0.000 A 
ATOM      5  N   UNL     1       1.260   8.361  20.518  0.00  0.00    +0.000 NA
ATOM      6  C   UNL     1       1.662   8.513  19.239  0.00  0.00    +0.000 A 
ATOM      7  N   UNL     1       2.287   7.466  18.594  0.00  0.00    +0.000 N 
ATOM      8  C   UNL     1       3.349   7.708  17.612  0.00  0.00    +0.000 C 
ATOM      9  C   UNL     1       4.663   6.989  18.001  0.00  0.00    +0.000 C 
ATOM     10  N   UNL     1       4.520   5.557  18.358  0.00  0.00    +0.000 NA
ATOM     11  C   UNL     1       3.509   5.477  19.443  0.00  0.00    +0.000 C 
ATOM     12  C   UNL     1       2.139   6.098  19.100  0.00  0.00    +0.000 C 
ATOM     13  C   UNL     1       1.416   9.702  18.557  0.00  0.00    +0.000 A 
ATOM     14  C   UNL     1       0.770  10.765  19.182  0.00  0.00    +0.000 A 
ATOM     15  C   UNL     1       0.489  12.012  18.389  0.00  0.00    +0.000 C 
ATOM     16  C   UNL     1       0.376  10.607  20.518  0.00  0.00    +0.000 A 
ATOM     17  C   UNL     1      -0.292  11.616  21.231  0.00  0.00    +0.000 A 
ENDROOT
BRANCH   1  20
ATOM     18  N   UNL     1      -3.399  12.416  21.672  0.00  0.00    +0.000 NA
ATOM     19  C   UNL     1      -2.808  12.813  22.746  0.00  0.00    +0.000 C 
ATOM     20  N   UNL     1      -1.573  12.386  23.167  0.00  0.00    +0.000 N 
ATOM     21  H   UNL     1      -1.305  12.667  24.099  0.00  0.00    +0.000 HD
BRANCH  19  22
ATOM     22  S   UNL     1      -3.489  13.963  23.899  0.00  0.00    +0.000 S 
ATOM     23  H   UNL     1      -4.155  14.738  23.037  0.00  0.00    +0.000 HD
ENDBRANCH  19  22
BRANCH  18  24
ATOM     24  C   UNL     1      -4.729  12.872  21.308  0.00  0.00    +0.000 C 
BRANCH  24  25
ATOM     25  C   UNL     1      -5.377  11.952  20.252  0.00  0.00    +0.000 C 
BRANCH  25  26
ATOM     26  N   UNL     1      -4.975  12.325  18.870  0.00  0.00    +0.000 NA
ATOM     27  C   UNL     1      -6.101  12.891  18.121  0.00  0.00    +0.000 C 
BRANCH  26  28
ATOM     28  C   UNL     1      -4.393  11.158  18.173  0.00  0.00    +0.000 C 
BRANCH  28  29
ATOM     29  C   UNL     1      -4.191  11.416  16.672  0.00  0.00    +0.000 C 
BRANCH  29  31
ATOM     30  C   UNL     1      -2.282   9.870  17.138  0.00  0.00    +0.000 C 
ATOM     31  C   UNL     1      -2.859  10.882  16.156  0.00  0.00    +0.000 C 
ENDBRANCH  29  31
ENDBRANCH  28  29
ENDBRANCH  26  28
ENDBRANCH  25  26
ENDBRANCH  24  25
ENDBRANCH  18  24
ENDBRANCH   1  20
BRANCH  10  32
ATOM     32  C   UNL     1       4.171   4.768  17.165  0.00  0.00    +0.000 C 
ATOM     33  C   UNL     1       3.957   3.285  17.446  0.00  0.00    +0.000 C 
ENDBRANCH  10  32
TORSDOF 9
ENDMDL
MODEL 7
REMARK VINA RESULT:      -6.5      3.931      9.828
REMARK  Name = 
REMARK  13 active torsions:
REMARK  status: ('A' for Active; 'I' for Inactive)
REMARK    1  A    between atoms: C_1  and  C_2
REMARK    2  A    between atoms: C_2  and  C_3
REMARK    3  A    between atoms: C_3  and  C_4
REMARK    4  A    between atoms: C_4  and  N_5
REMARK    5  A    between atoms: N_5  and  C_6
REMARK    6  A    between atoms: N_5  and  C_7
REMARK    7  A    between atoms: C_7  and  C_8
REMARK    8  A    between atoms: C_8  and  N_9
REMARK    9  A    between atoms: C_10  and  S_11
REMARK   10  A    between atoms: N_12  and  C_13
REMARK   11  A    between atoms: N_22  and  C_23
REMARK   12  A    between atoms: C_23  and  C_24
REMARK   13  A    between atoms: C_28  and  C_29
REMARK                            x       y       z     vdW  Elec       q    Type
REMARK                         _______ _______ _______ _____ _____    ______ ____
ROOT
ATOM      1  C   UNL     1       1.997   7.049  19.862  0.00  0.00    +0.000 A 
ATOM      2  C   UNL     1       2.264   7.732  18.676  0.00  0.00    +0.000 A 
ATOM      3  C   UNL     1       1.898   9.080  18.534  0.00  0.00    +0.000 A 
ATOM      4  C   UNL     1       1.244   9.777  19.540  0.00  0.00    +0.000 A 
ATOM      5  N   UNL     1       0.871  11.053  19.330  0.00  0.00    +0.000 NA
ATOM      6  C   UNL     1       0.230  11.731  20.305  0.00  0.00    +0.000 A 
ATOM      7  N   UNL     1      -0.162  13.035  20.081  0.00  0.00    +0.000 N 
ATOM      8  C   UNL     1      -0.151  14.025  21.164  0.00  0.00    +0.000 C 
ATOM      9  C   UNL     1       0.732  15.246  20.814  0.00  0.00    +0.000 C 
ATOM     10  N   UNL     1       0.486  15.847  19.482  0.00  0.00    +0.000 NA
ATOM     11  C   UNL     1       0.631  14.760  18.480  0.00  0.00    +0.000 C 
ATOM     12  C   UNL     1      -0.284  13.540  18.710  0.00  0.00    +0.000 C 
ATOM     13  C   UNL     1      -0.071  11.113  21.517  0.00  0.00    +0.000 A 
ATOM     14  C   UNL     1       0.298   9.793  21.758  0.00  0.00    +0.000 A 
ATOM     15  C   UNL     1      -0.089   9.158  23.065  0.00  0.00    +0.000 C 
ATOM     16  C   UNL     1       0.983   9.102  20.748  0.00  0.00    +0.000 A 
ATOM     17  C   UNL     1       1.387   7.765  20.892  0.00  0.00    +0.000 A 
ENDROOT
BRANCH   1  20
ATOM     18  N   UNL     1       4.546   5.621  19.474  0.00  0.00    +0.000 NA
ATOM     19  C   UNL     1       3.441   5.034  19.785  0.00  0.00    +0.000 C 
ATOM     20  N   UNL     1       2.235   5.669  19.959  0.00  0.00    +0.000 N 
ATOM     21  H   UNL     1       1.494   5.105  20.348  0.00  0.00    +0.000 HD
BRANCH  19  22
ATOM     22  S   UNL     1       3.273   3.302  20.078  0.00  0.00    +0.000 S 
ATOM     23  H   UNL     1       1.946   3.205  19.945  0.00  0.00    +0.000 HD
ENDBRANCH  19  22
BRANCH  18  24
ATOM     24  C   UNL     1       5.798   4.896  19.353  0.00  0.00    +0.000 C 
BRANCH  24  25
ATOM     25  C   UNL     1       6.473   5.151  17.989  0.00  0.00    +0.000 C 
BRANCH  25  26
ATOM     26  N   UNL     1       6.305   6.558  17.540  0.00  0.00    +0.000 NA
ATOM     27  C   UNL     1       5.530   6.633  16.298  0.00  0.00    +0.000 C 
BRANCH  26  28
ATOM     28  C   UNL     1       7.623   7.212  17.397  0.00  0.00    +0.000 C 
BRANCH  28  29
ATOM     29  C   UNL     1       7.560   8.721  17.677  0.00  0.00    +0.000 C 
BRANCH  29  31
ATOM     30  C   UNL     1       9.039  10.651  18.259  0.00  0.00    +0.000 C 
ATOM     31  C   UNL     1       8.693   9.202  18.577  0.00  0.00    +0.000 C 
ENDBRANCH  29  31
ENDBRANCH  28  29
ENDBRANCH  26  28
ENDBRANCH  25  26
ENDBRANCH  24  25
ENDBRANCH  18  24
ENDBRANCH   1  20
BRANCH  10  32
ATOM     32  C   UNL     1      -0.831  16.504  19.457  0.00  0.00    +0.000 C 
ATOM     33  C   UNL     1      -0.776  17.985  19.102  0.00  0.00    +0.000 C 
ENDBRANCH  10  32
TORSDOF 9
ENDMDL
MODEL 8
REMARK VINA RESULT:      -6.4      2.646      9.733
REMARK  Name = 
REMARK  13 active torsions:
REMARK  status: ('A' for Active; 'I' for Inactive)
REMARK    1  A    between atoms: C_1  and  C_2
REMARK    2  A    between atoms: C_2  and  C_3
REMARK    3  A    between atoms: C_3  and  C_4
REMARK    4  A    between atoms: C_4  and  N_5
REMARK    5  A    between atoms: N_5  and  C_6
REMARK    6  A    between atoms: N_5  and  C_7
REMARK    7  A    between atoms: C_7  and  C_8
REMARK    8  A    between atoms: C_8  and  N_9
REMARK    9  A    between atoms: C_10  and  S_11
REMARK   10  A    between atoms: N_12  and  C_13
REMARK   11  A    between atoms: N_22  and  C_23
REMARK   12  A    between atoms: C_23  and  C_24
REMARK   13  A    between atoms: C_28  and  C_29
REMARK                            x       y       z     vdW  Elec       q    Type
REMARK                         _______ _______ _______ _____ _____    ______ ____
ROOT
ATOM      1  C   UNL     1       1.044   9.429  18.761  0.00  0.00    +0.000 A 
ATOM      2  C   UNL     1       1.156  10.095  19.981  0.00  0.00    +0.000 A 
ATOM      3  C   UNL     1       0.109  10.905  20.449  0.00  0.00    +0.000 A 
ATOM      4  C   UNL     1      -1.056  11.098  19.720  0.00  0.00    +0.000 A 
ATOM      5  N   UNL     1      -2.005  11.927  20.192  0.00  0.00    +0.000 NA
ATOM      6  C   UNL     1      -3.138  12.120  19.483  0.00  0.00    +0.000 A 
ATOM      7  N   UNL     1      -4.103  12.981  19.965  0.00  0.00    +0.000 N 
ATOM      8  C   UNL     1      -5.529  12.717  19.745  0.00  0.00    +0.000 C 
ATOM      9  C   UNL     1      -6.308  12.635  21.079  0.00  0.00    +0.000 C 
ATOM     10  N   UNL     1      -6.064  13.748  22.026  0.00  0.00    +0.000 NA
ATOM     11  C   UNL     1      -4.598  13.815  22.252  0.00  0.00    +0.000 C 
ATOM     12  C   UNL     1      -3.753  13.986  20.973  0.00  0.00    +0.000 C 
ATOM     13  C   UNL     1      -3.320  11.489  18.255  0.00  0.00    +0.000 A 
ATOM     14  C   UNL     1      -2.352  10.631  17.741  0.00  0.00    +0.000 A 
ATOM     15  C   UNL     1      -2.577  10.008  16.390  0.00  0.00    +0.000 C 
ATOM     16  C   UNL     1      -1.188  10.419  18.494  0.00  0.00    +0.000 A 
ATOM     17  C   UNL     1      -0.150   9.581  18.054  0.00  0.00    +0.000 A 
ENDROOT
BRANCH   1  20
ATOM     18  N   UNL     1       2.099   6.807  19.596  0.00  0.00    +0.000 NA
ATOM     19  C   UNL     1       2.596   7.501  18.630  0.00  0.00    +0.000 C 
ATOM     20  N   UNL     1       2.137   8.730  18.226  0.00  0.00    +0.000 N 
ATOM     21  H   UNL     1       2.526   9.083  17.364  0.00  0.00    +0.000 HD
BRANCH  19  22
ATOM     22  S   UNL     1       3.949   6.986  17.620  0.00  0.00    +0.000 S 
ATOM     23  H   UNL     1       4.945   7.522  18.333  0.00  0.00    +0.000 HD
ENDBRANCH  19  22
BRANCH  18  24
ATOM     24  C   UNL     1       2.602   5.490  19.941  0.00  0.00    +0.000 C 
BRANCH  24  25
ATOM     25  C   UNL     1       1.456   4.474  20.127  0.00  0.00    +0.000 C 
BRANCH  25  26
ATOM     26  N   UNL     1       1.966   3.104  20.399  0.00  0.00    +0.000 NA
ATOM     27  C   UNL     1       1.679   2.691  21.776  0.00  0.00    +0.000 C 
BRANCH  26  28
ATOM     28  C   UNL     1       3.411   3.026  20.100  0.00  0.00    +0.000 C 
BRANCH  28  29
ATOM     29  C   UNL     1       3.710   2.124  18.893  0.00  0.00    +0.000 C 
BRANCH  29  31
ATOM     30  C   UNL     1       2.681   3.301  16.941  0.00  0.00    +0.000 C 
ATOM     31  C   UNL     1       3.989   2.916  17.620  0.00  0.00    +0.000 C 
ENDBRANCH  29  31
ENDBRANCH  28  29
ENDBRANCH  26  28
ENDBRANCH  25  26
ENDBRANCH  24  25
ENDBRANCH  18  24
ENDBRANCH   1  20
BRANCH  10  32
ATOM     32  C   UNL     1      -6.641  14.997  21.502  0.00  0.00    +0.000 C 
ATOM     33  C   UNL     1      -6.457  16.197  22.424  0.00  0.00    +0.000 C 
ENDBRANCH  10  32
TORSDOF 9
ENDMDL
MODEL 9
REMARK VINA RESULT:      -6.4      2.729      9.827
REMARK  Name = 
REMARK  13 active torsions:
REMARK  status: ('A' for Active; 'I' for Inactive)
REMARK    1  A    between atoms: C_1  and  C_2
REMARK    2  A    between atoms: C_2  and  C_3
REMARK    3  A    between atoms: C_3  and  C_4
REMARK    4  A    between atoms: C_4  and  N_5
REMARK    5  A    between atoms: N_5  and  C_6
REMARK    6  A    between atoms: N_5  and  C_7
REMARK    7  A    between atoms: C_7  and  C_8
REMARK    8  A    between atoms: C_8  and  N_9
REMARK    9  A    between atoms: C_10  and  S_11
REMARK   10  A    between atoms: N_12  and  C_13
REMARK   11  A    between atoms: N_22  and  C_23
REMARK   12  A    between atoms: C_23  and  C_24
REMARK   13  A    between atoms: C_28  and  C_29
REMARK                            x       y       z     vdW  Elec       q    Type
REMARK                         _______ _______ _______ _____ _____    ______ ____
ROOT
ATOM      1  C   UNL     1       1.046   9.609  18.406  0.00  0.00    +0.000 A 
ATOM      2  C   UNL     1       1.104  10.269  19.632  0.00  0.00    +0.000 A 
ATOM      3  C   UNL     1      -0.011  10.974  20.114  0.00  0.00    +0.000 A 
ATOM      4  C   UNL     1      -1.193  11.066  19.394  0.00  0.00    +0.000 A 
ATOM      5  N   UNL     1      -2.213  11.798  19.880  0.00  0.00    +0.000 NA
ATOM      6  C   UNL     1      -3.363  11.893  19.179  0.00  0.00    +0.000 A 
ATOM      7  N   UNL     1      -4.400  12.655  19.675  0.00  0.00    +0.000 N 
ATOM      8  C   UNL     1      -5.797  12.263  19.459  0.00  0.00    +0.000 C 
ATOM      9  C   UNL     1      -6.558  12.094  20.796  0.00  0.00    +0.000 C 
ATOM     10  N   UNL     1      -6.412  13.216  21.755  0.00  0.00    +0.000 NA
ATOM     11  C   UNL     1      -4.957  13.416  21.973  0.00  0.00    +0.000 C 
ATOM     12  C   UNL     1      -4.139  13.678  20.692  0.00  0.00    +0.000 C 
ATOM     13  C   UNL     1      -3.493  11.260  17.945  0.00  0.00    +0.000 A 
ATOM     14  C   UNL     1      -2.453  10.501  17.416  0.00  0.00    +0.000 A 
ATOM     15  C   UNL     1      -2.627   9.874  16.060  0.00  0.00    +0.000 C 
ATOM     16  C   UNL     1      -1.270  10.390  18.161  0.00  0.00    +0.000 A 
ATOM     17  C   UNL     1      -0.161   9.657  17.707  0.00  0.00    +0.000 A 
ENDROOT
BRANCH   1  20
ATOM     18  N   UNL     1       2.326   7.071  19.185  0.00  0.00    +0.000 NA
ATOM     19  C   UNL     1       2.761   7.827  18.235  0.00  0.00    +0.000 C 
ATOM     20  N   UNL     1       2.196   9.020  17.858  0.00  0.00    +0.000 N 
ATOM     21  H   UNL     1       2.552   9.425  17.004  0.00  0.00    +0.000 HD
BRANCH  19  22
ATOM     22  S   UNL     1       4.153   7.454  17.216  0.00  0.00    +0.000 S 
ATOM     23  H   UNL     1       4.264   6.152  17.500  0.00  0.00    +0.000 HD
ENDBRANCH  19  22
BRANCH  18  24
ATOM     24  C   UNL     1       2.942   5.795  19.501  0.00  0.00    +0.000 C 
BRANCH  24  25
ATOM     25  C   UNL     1       2.223   4.626  18.798  0.00  0.00    +0.000 C 
BRANCH  25  26
ATOM     26  N   UNL     1       3.132   3.472  18.569  0.00  0.00    +0.000 NA
ATOM     27  C   UNL     1       3.314   2.685  19.792  0.00  0.00    +0.000 C 
BRANCH  26  28
ATOM     28  C   UNL     1       4.425   3.937  18.026  0.00  0.00    +0.000 C 
BRANCH  28  29
ATOM     29  C   UNL     1       4.420   4.017  16.492  0.00  0.00    +0.000 C 
BRANCH  29  31
ATOM     30  C   UNL     1       6.264   4.937  15.076  0.00  0.00    +0.000 C 
ATOM     31  C   UNL     1       5.789   3.734  15.881  0.00  0.00    +0.000 C 
ENDBRANCH  29  31
ENDBRANCH  28  29
ENDBRANCH  26  28
ENDBRANCH  25  26
ENDBRANCH  24  25
ENDBRANCH  18  24
ENDBRANCH   1  20
BRANCH  10  32
ATOM     32  C   UNL     1      -7.105  14.411  21.247  0.00  0.00    +0.000 C 
ATOM     33  C   UNL     1      -7.130  15.574  22.231  0.00  0.00    +0.000 C 
ENDBRANCH  10  32
TORSDOF 9
ENDMDL
