MODEL 1
REMARK VINA RESULT:      -6.4      0.000      0.000
REMARK  Name = 
REMARK  14 active torsions:
REMARK  status: ('A' for Active; 'I' for Inactive)
REMARK    1  A    between atoms: C_1  and  C_2
REMARK    2  A    between atoms: C_2  and  N_3
REMARK    3  A    between atoms: N_3  and  C_4
REMARK    4  A    between atoms: C_4  and  C_5
REMARK    5  A    between atoms: C_6  and  C_8
REMARK    6  A    between atoms: C_8  and  C_9
REMARK    7  A    between atoms: C_9  and  C_10
REMARK    8  A    between atoms: C_10  and  C_11
REMARK    9  A    between atoms: C_10  and  C_17
REMARK   10  A    between atoms: C_11  and  CA_12
REMARK   11  A    between atoms: CA_12  and  N_13
REMARK   12  A    between atoms: CA_12  and  C_14
REMARK   13  A    between atoms: C_14  and  OXT_16
REMARK   14  A    between atoms: C_17  and  O_19
REMARK                            x       y       z     vdW  Elec       q    Type
REMARK                         _______ _______ _______ _____ _____    ______ ____
ROOT
ATOM      1  C   UNL     1       6.293   4.087  15.786  0.00  0.00    +0.000 C 
ENDROOT
BRANCH   1   2
ATOM      2  C   UNL     1       6.747   4.383  14.362  0.00  0.00    +0.000 C 
ATOM      3  O   UNL     1       7.407   5.357  14.039  0.00  0.00    +0.000 OA
BRANCH   2   4
ATOM      4  O   UNL     1       6.372   3.438  13.473  0.00  0.00    +0.000 OA
ATOM      5  H   UNL     1       5.468   3.092  13.602  0.00  0.00    +0.000 HD
ENDBRANCH   2   4
ENDBRANCH   1   2
BRANCH   1   6
ATOM      6  C   UNL     1       4.908   4.699  16.054  0.00  0.00    +0.000 C 
BRANCH   6   7
ATOM      7  C   UNL     1       4.062   3.826  16.976  0.00  0.00    +0.000 C 
BRANCH   7   9
ATOM      8  N   UNL     1       2.426   3.931  18.829  0.00  0.00    +0.000 N 
ATOM      9  C   UNL     1       3.428   4.605  18.114  0.00  0.00    +0.000 C 
ATOM     10  O   UNL     1       3.791   5.750  18.398  0.00  0.00    +0.000 OA
BRANCH   8  12
ATOM     11  C   UNL     1       2.268   4.393  21.284  0.00  0.00    +0.000 C 
ATOM     12  C   UNL     1       1.746   4.688  19.885  0.00  0.00    +0.000 C 
ENDBRANCH   8  12
BRANCH   8  13
ATOM     13  C   UNL     1       1.850   2.679  18.319  0.00  0.00    +0.000 C 
ATOM     14  C   UNL     1       0.540   2.223  18.932  0.00  0.00    +0.000 C 
ENDBRANCH   8  13
ENDBRANCH   7   9
ENDBRANCH   6   7
ENDBRANCH   1   6
BRANCH   1  15
ATOM     15  C   UNL     1       7.380   4.628  16.733  0.00  0.00    +0.000 C 
BRANCH  15  16
ATOM     16  CA  UNL     1       7.065   5.930  17.484  0.00  0.00    +0.000 C 
BRANCH  16  17
ATOM     17  N   UNL     1       7.647   7.079  16.746  0.00  0.00    +0.000 NA
ATOM     18  H1  UNL     1       8.624   7.182  17.040  0.00  0.00    +0.000 HD
ATOM     19  H2  UNL     1       7.228   7.928  17.146  0.00  0.00    +0.000 HD
ENDBRANCH  16  17
BRANCH  16  20
ATOM     20  C   UNL     1       7.492   5.988  18.966  0.00  0.00    +0.000 C 
ATOM     21  O   UNL     1       6.957   5.311  19.838  0.00  0.00    +0.000 OA
BRANCH  20  22
ATOM     22  OXT UNL     1       8.529   6.806  19.236  0.00  0.00    +0.000 OA
ATOM     23  HXT UNL     1       8.563   7.643  18.739  0.00  0.00    +0.000 HD
ENDBRANCH  20  22
ENDBRANCH  16  20
ENDBRANCH  15  16
ENDBRANCH   1  15
TORSDOF 12
ENDMDL
MODEL 2
REMARK VINA RESULT:      -6.1      1.430      1.931
REMARK  Name = 
REMARK  14 active torsions:
REMARK  status: ('A' for Active; 'I' for Inactive)
REMARK    1  A    between atoms: C_1  and  C_2
REMARK    2  A    between atoms: C_2  and  N_3
REMARK    3  A    between atoms: N_3  and  C_4
REMARK    4  A    between atoms: C_4  and  C_5
REMARK    5  A    between atoms: C_6  and  C_8
REMARK    6  A    between atoms: C_8  and  C_9
REMARK    7  A    between atoms: C_9  and  C_10
REMARK    8  A    between atoms: C_10  and  C_11
REMARK    9  A    between atoms: C_10  and  C_17
REMARK   10  A    between atoms: C_11  and  CA_12
REMARK   11  A    between atoms: CA_12  and  N_13
REMARK   12  A    between atoms: CA_12  and  C_14
REMARK   13  A    between atoms: C_14  and  OXT_16
REMARK   14  A    between atoms: C_17  and  O_19
REMARK                            x       y       z     vdW  Elec       q    Type
REMARK                         _______ _______ _______ _____ _____    ______ ____
ROOT
ATOM      1  C   UNL     1       6.166   4.329  16.141  0.00  0.00    +0.000 C 
ENDROOT
BRANCH   1   2
ATOM      2  C   UNL     1       6.774   4.479  14.752  0.00  0.00    +0.000 C 
ATOM      3  O   UNL     1       7.583   5.339  14.444  0.00  0.00    +0.000 OA
BRANCH   2   4
ATOM      4  O   UNL     1       6.353   3.538  13.878  0.00  0.00    +0.000 OA
ATOM      5  H   UNL     1       5.476   3.711  13.483  0.00  0.00    +0.000 HD
ENDBRANCH   2   4
ENDBRANCH   1   2
BRANCH   1   6
ATOM      6  C   UNL     1       4.641   4.151  16.051  0.00  0.00    +0.000 C 
BRANCH   6   7
ATOM      7  C   UNL     1       3.917   4.798  17.228  0.00  0.00    +0.000 C 
BRANCH   7   9
ATOM      8  N   UNL     1       2.814   4.329  19.392  0.00  0.00    +0.000 N 
ATOM      9  C   UNL     1       3.536   3.803  18.310  0.00  0.00    +0.000 C 
ATOM     10  O   UNL     1       3.830   2.608  18.224  0.00  0.00    +0.000 OA
BRANCH   8  12
ATOM     11  C   UNL     1       1.112   2.783  20.383  0.00  0.00    +0.000 C 
ATOM     12  C   UNL     1       2.498   3.405  20.485  0.00  0.00    +0.000 C 
ENDBRANCH   8  12
BRANCH   8  13
ATOM     13  C   UNL     1       2.695   5.780  19.585  0.00  0.00    +0.000 C 
ATOM     14  C   UNL     1       1.653   6.262  20.576  0.00  0.00    +0.000 C 
ENDBRANCH   8  13
ENDBRANCH   7   9
ENDBRANCH   6   7
ENDBRANCH   1   6
BRANCH   1  15
ATOM     15  C   UNL     1       6.577   5.570  16.955  0.00  0.00    +0.000 C 
BRANCH  15  16
ATOM     16  CA  UNL     1       7.660   5.373  18.025  0.00  0.00    +0.000 C 
BRANCH  16  17
ATOM     17  N   UNL     1       8.346   4.076  17.803  0.00  0.00    +0.000 NA
ATOM     18  H1  UNL     1       8.183   3.486  18.626  0.00  0.00    +0.000 HD
ATOM     19  H2  UNL     1       9.354   4.258  17.883  0.00  0.00    +0.000 HD
ENDBRANCH  16  17
BRANCH  16  20
ATOM     20  C   UNL     1       7.200   5.478  19.495  0.00  0.00    +0.000 C 
ATOM     21  O   UNL     1       6.019   5.520  19.819  0.00  0.00    +0.000 OA
BRANCH  20  22
ATOM     22  OXT UNL     1       8.190   5.477  20.410  0.00  0.00    +0.000 OA
ATOM     23  HXT UNL     1       8.058   6.041  21.195  0.00  0.00    +0.000 HD
ENDBRANCH  20  22
ENDBRANCH  16  20
ENDBRANCH  15  16
ENDBRANCH   1  15
TORSDOF 12
ENDMDL
MODEL 3
REMARK VINA RESULT:      -6.1      2.592      6.157
REMARK  Name = 
REMARK  14 active torsions:
REMARK  status: ('A' for Active; 'I' for Inactive)
REMARK    1  A    between atoms: C_1  and  C_2
REMARK    2  A    between atoms: C_2  and  N_3
REMARK    3  A    between atoms: N_3  and  C_4
REMARK    4  A    between atoms: C_4  and  C_5
REMARK    5  A    between atoms: C_6  and  C_8
REMARK    6  A    between atoms: C_8  and  C_9
REMARK    7  A    between atoms: C_9  and  C_10
REMARK    8  A    between atoms: C_10  and  C_11
REMARK    9  A    between atoms: C_10  and  C_17
REMARK   10  A    between atoms: C_11  and  CA_12
REMARK   11  A    between atoms: CA_12  and  N_13
REMARK   12  A    between atoms: CA_12  and  C_14
REMARK   13  A    between atoms: C_14  and  OXT_16
REMARK   14  A    between atoms: C_17  and  O_19
REMARK                            x       y       z     vdW  Elec       q    Type
REMARK                         _______ _______ _______ _____ _____    ______ ____
ROOT
ATOM      1  C   UNL     1       1.981   4.834  19.431  0.00  0.00    +0.000 C 
ENDROOT
BRANCH   1   2
ATOM      2  C   UNL     1       1.086   3.665  19.038  0.00  0.00    +0.000 C 
ATOM      3  O   UNL     1       1.139   3.090  17.963  0.00  0.00    +0.000 OA
BRANCH   2   4
ATOM      4  O   UNL     1       0.231   3.293  20.015  0.00  0.00    +0.000 OA
ATOM      5  H   UNL     1      -0.116   2.384  19.929  0.00  0.00    +0.000 HD
ENDBRANCH   2   4
ENDBRANCH   1   2
BRANCH   1   6
ATOM      6  C   UNL     1       2.592   5.494  18.184  0.00  0.00    +0.000 C 
BRANCH   6   7
ATOM      7  C   UNL     1       4.108   5.627  18.288  0.00  0.00    +0.000 C 
BRANCH   7   9
ATOM      8  N   UNL     1       6.078   5.199  16.852  0.00  0.00    +0.000 N 
ATOM      9  C   UNL     1       4.851   4.712  17.331  0.00  0.00    +0.000 C 
ATOM     10  O   UNL     1       4.408   3.604  17.017  0.00  0.00    +0.000 OA
BRANCH   8  12
ATOM     11  C   UNL     1       6.668   4.879  14.441  0.00  0.00    +0.000 C 
ATOM     12  C   UNL     1       6.779   4.367  15.870  0.00  0.00    +0.000 C 
ENDBRANCH   8  12
BRANCH   8  13
ATOM     13  C   UNL     1       6.457   6.605  17.046  0.00  0.00    +0.000 C 
ATOM     14  C   UNL     1       7.641   6.881  17.953  0.00  0.00    +0.000 C 
ENDBRANCH   8  13
ENDBRANCH   7   9
ENDBRANCH   6   7
ENDBRANCH   1   6
BRANCH   1  15
ATOM     15  C   UNL     1       3.045   4.287  20.401  0.00  0.00    +0.000 C 
BRANCH  15  16
ATOM     16  CA  UNL     1       3.052   2.772  20.646  0.00  0.00    +0.000 C 
BRANCH  16  17
ATOM     17  N   UNL     1       2.628   2.495  22.041  0.00  0.00    +0.000 NA
ATOM     18  H1  UNL     1       3.241   1.766  22.420  0.00  0.00    +0.000 HD
ATOM     19  H2  UNL     1       1.733   1.992  21.983  0.00  0.00    +0.000 HD
ENDBRANCH  16  17
BRANCH  16  20
ATOM     20  C   UNL     1       4.373   2.033  20.343  0.00  0.00    +0.000 C 
ATOM     21  O   UNL     1       5.188   1.746  21.213  0.00  0.00    +0.000 OA
BRANCH  20  22
ATOM     22  OXT UNL     1       4.554   1.681  19.055  0.00  0.00    +0.000 OA
ATOM     23  HXT UNL     1       5.468   1.717  18.718  0.00  0.00    +0.000 HD
ENDBRANCH  20  22
ENDBRANCH  16  20
ENDBRANCH  15  16
ENDBRANCH   1  15
TORSDOF 12
ENDMDL
MODEL 4
REMARK VINA RESULT:      -6.0      1.267      3.843
REMARK  Name = 
REMARK  14 active torsions:
REMARK  status: ('A' for Active; 'I' for Inactive)
REMARK    1  A    between atoms: C_1  and  C_2
REMARK    2  A    between atoms: C_2  and  N_3
REMARK    3  A    between atoms: N_3  and  C_4
REMARK    4  A    between atoms: C_4  and  C_5
REMARK    5  A    between atoms: C_6  and  C_8
REMARK    6  A    between atoms: C_8  and  C_9
REMARK    7  A    between atoms: C_9  and  C_10
REMARK    8  A    between atoms: C_10  and  C_11
REMARK    9  A    between atoms: C_10  and  C_17
REMARK   10  A    between atoms: C_11  and  CA_12
REMARK   11  A    between atoms: CA_12  and  N_13
REMARK   12  A    between atoms: CA_12  and  C_14
REMARK   13  A    between atoms: C_14  and  OXT_16
REMARK   14  A    between atoms: C_17  and  O_19
REMARK                            x       y       z     vdW  Elec       q    Type
REMARK                         _______ _______ _______ _____ _____    ______ ____
ROOT
ATOM      1  C   UNL     1       6.715   5.546  18.234  0.00  0.00    +0.000 C 
ENDROOT
BRANCH   1   2
ATOM      2  C   UNL     1       7.810   6.188  19.077  0.00  0.00    +0.000 C 
ATOM      3  O   UNL     1       8.423   7.194  18.758  0.00  0.00    +0.000 OA
BRANCH   2   4
ATOM      4  O   UNL     1       8.028   5.550  20.248  0.00  0.00    +0.000 OA
ATOM      5  H   UNL     1       7.864   4.588  20.225  0.00  0.00    +0.000 HD
ENDBRANCH   2   4
ENDBRANCH   1   2
BRANCH   1   6
ATOM      6  C   UNL     1       5.803   4.667  19.105  0.00  0.00    +0.000 C 
BRANCH   6   7
ATOM      7  C   UNL     1       4.411   5.270  19.271  0.00  0.00    +0.000 C 
BRANCH   7   9
ATOM      8  N   UNL     1       2.087   4.441  19.087  0.00  0.00    +0.000 N 
ATOM      9  C   UNL     1       3.347   4.536  18.475  0.00  0.00    +0.000 C 
ATOM     10  O   UNL     1       3.578   4.073  17.355  0.00  0.00    +0.000 OA
BRANCH   8  12
ATOM     11  C   UNL     1       1.045   2.193  18.729  0.00  0.00    +0.000 C 
ATOM     12  C   UNL     1       1.063   3.673  18.372  0.00  0.00    +0.000 C 
ENDBRANCH   8  12
BRANCH   8  13
ATOM     13  C   UNL     1       1.911   4.779  20.506  0.00  0.00    +0.000 C 
ATOM     14  C   UNL     1       2.153   3.672  21.514  0.00  0.00    +0.000 C 
ENDBRANCH   8  13
ENDBRANCH   7   9
ENDBRANCH   6   7
ENDBRANCH   1   6
BRANCH   1  15
ATOM     15  C   UNL     1       7.409   4.758  17.108  0.00  0.00    +0.000 C 
BRANCH  15  16
ATOM     16  CA  UNL     1       6.922   5.014  15.675  0.00  0.00    +0.000 C 
BRANCH  16  17
ATOM     17  N   UNL     1       6.023   6.195  15.662  0.00  0.00    +0.000 NA
ATOM     18  H1  UNL     1       5.077   5.876  15.896  0.00  0.00    +0.000 HD
ATOM     19  H2  UNL     1       5.905   6.465  14.677  0.00  0.00    +0.000 HD
ENDBRANCH  16  17
BRANCH  16  20
ATOM     20  C   UNL     1       6.240   3.829  14.959  0.00  0.00    +0.000 C 
ATOM     21  O   UNL     1       6.153   3.751  13.739  0.00  0.00    +0.000 OA
BRANCH  20  22
ATOM     22  OXT UNL     1       5.782   2.853  15.768  0.00  0.00    +0.000 OA
ATOM     23  HXT UNL     1       5.513   3.123  16.666  0.00  0.00    +0.000 HD
ENDBRANCH  20  22
ENDBRANCH  16  20
ENDBRANCH  15  16
ENDBRANCH   1  15
TORSDOF 12
ENDMDL
MODEL 5
REMARK VINA RESULT:      -6.0      1.269      1.626
REMARK  Name = 
REMARK  14 active torsions:
REMARK  status: ('A' for Active; 'I' for Inactive)
REMARK    1  A    between atoms: C_1  and  C_2
REMARK    2  A    between atoms: C_2  and  N_3
REMARK    3  A    between atoms: N_3  and  C_4
REMARK    4  A    between atoms: C_4  and  C_5
REMARK    5  A    between atoms: C_6  and  C_8
REMARK    6  A    between atoms: C_8  and  C_9
REMARK    7  A    between atoms: C_9  and  C_10
REMARK    8  A    between atoms: C_10  and  C_11
REMARK    9  A    between atoms: C_10  and  C_17
REMARK   10  A    between atoms: C_11  and  CA_12
REMARK   11  A    between atoms: CA_12  and  N_13
REMARK   12  A    between atoms: CA_12  and  C_14
REMARK   13  A    between atoms: C_14  and  OXT_16
REMARK   14  A    between atoms: C_17  and  O_19
REMARK                            x       y       z     vdW  Elec       q    Type
REMARK                         _______ _______ _______ _____ _____    ______ ____
ROOT
ATOM      1  C   UNL     1       5.987   4.056  16.115  0.00  0.00    +0.000 C 
ENDROOT
BRANCH   1   2
ATOM      2  C   UNL     1       6.203   4.439  14.656  0.00  0.00    +0.000 C 
ATOM      3  O   UNL     1       6.363   3.636  13.751  0.00  0.00    +0.000 OA
BRANCH   2   4
ATOM      4  O   UNL     1       6.173   5.772  14.441  0.00  0.00    +0.000 OA
ATOM      5  H   UNL     1       5.298   6.125  14.187  0.00  0.00    +0.000 HD
ENDBRANCH   2   4
ENDBRANCH   1   2
BRANCH   1   6
ATOM      6  C   UNL     1       4.652   4.616  16.632  0.00  0.00    +0.000 C 
BRANCH   6   7
ATOM      7  C   UNL     1       3.643   3.512  16.934  0.00  0.00    +0.000 C 
BRANCH   7   9
ATOM      8  N   UNL     1       2.870   4.205  19.179  0.00  0.00    +0.000 N 
ATOM      9  C   UNL     1       2.516   3.969  17.842  0.00  0.00    +0.000 C 
ATOM     10  O   UNL     1       1.370   4.139  17.418  0.00  0.00    +0.000 OA
BRANCH   8  12
ATOM     11  C   UNL     1       1.025   3.385  20.660  0.00  0.00    +0.000 C 
ATOM     12  C   UNL     1       1.785   4.576  20.093  0.00  0.00    +0.000 C 
ENDBRANCH   8  12
BRANCH   8  13
ATOM     13  C   UNL     1       4.168   3.762  19.704  0.00  0.00    +0.000 C 
ATOM     14  C   UNL     1       4.302   2.296  20.067  0.00  0.00    +0.000 C 
ENDBRANCH   8  13
ENDBRANCH   7   9
ENDBRANCH   6   7
ENDBRANCH   1   6
BRANCH   1  15
ATOM     15  C   UNL     1       7.201   4.575  16.907  0.00  0.00    +0.000 C 
BRANCH  15  16
ATOM     16  CA  UNL     1       7.037   5.918  17.633  0.00  0.00    +0.000 C 
BRANCH  16  17
ATOM     17  N   UNL     1       7.571   7.009  16.781  0.00  0.00    +0.000 NA
ATOM     18  H1  UNL     1       6.831   7.709  16.662  0.00  0.00    +0.000 HD
ATOM     19  H2  UNL     1       7.643   6.630  15.828  0.00  0.00    +0.000 HD
ENDBRANCH  16  17
BRANCH  16  20
ATOM     20  C   UNL     1       7.647   6.012  19.048  0.00  0.00    +0.000 C 
ATOM     21  O   UNL     1       7.352   5.237  19.951  0.00  0.00    +0.000 OA
BRANCH  20  22
ATOM     22  OXT UNL     1       8.566   6.983  19.217  0.00  0.00    +0.000 OA
ATOM     23  HXT UNL     1       9.364   6.929  18.659  0.00  0.00    +0.000 HD
ENDBRANCH  20  22
ENDBRANCH  16  20
ENDBRANCH  15  16
ENDBRANCH   1  15
TORSDOF 12
ENDMDL
MODEL 6
REMARK VINA RESULT:      -6.0      1.500      3.313
REMARK  Name = 
REMARK  14 active torsions:
REMARK  status: ('A' for Active; 'I' for Inactive)
REMARK    1  A    between atoms: C_1  and  C_2
REMARK    2  A    between atoms: C_2  and  N_3
REMARK    3  A    between atoms: N_3  and  C_4
REMARK    4  A    between atoms: C_4  and  C_5
REMARK    5  A    between atoms: C_6  and  C_8
REMARK    6  A    between atoms: C_8  and  C_9
REMARK    7  A    between atoms: C_9  and  C_10
REMARK    8  A    between atoms: C_10  and  C_11
REMARK    9  A    between atoms: C_10  and  C_17
REMARK   10  A    between atoms: C_11  and  CA_12
REMARK   11  A    between atoms: CA_12  and  N_13
REMARK   12  A    between atoms: CA_12  and  C_14
REMARK   13  A    between atoms: C_14  and  OXT_16
REMARK   14  A    between atoms: C_17  and  O_19
REMARK                            x       y       z     vdW  Elec       q    Type
REMARK                         _______ _______ _______ _____ _____    ______ ____
ROOT
ATOM      1  C   UNL     1       5.367   6.182  16.970  0.00  0.00    +0.000 C 
ENDROOT
BRANCH   1   2
ATOM      2  C   UNL     1       6.679   6.623  17.607  0.00  0.00    +0.000 C 
ATOM      3  O   UNL     1       7.037   6.308  18.731  0.00  0.00    +0.000 OA
BRANCH   2   4
ATOM      4  O   UNL     1       7.441   7.384  16.793  0.00  0.00    +0.000 OA
ATOM      5  H   UNL     1       7.960   8.076  17.248  0.00  0.00    +0.000 HD
ENDBRANCH   2   4
ENDBRANCH   1   2
BRANCH   1   6
ATOM      6  C   UNL     1       4.168   6.704  17.778  0.00  0.00    +0.000 C 
BRANCH   6   7
ATOM      7  C   UNL     1       2.984   5.742  17.738  0.00  0.00    +0.000 C 
BRANCH   7   9
ATOM      8  N   UNL     1       1.816   4.216  19.297  0.00  0.00    +0.000 N 
ATOM      9  C   UNL     1       2.378   5.488  19.106  0.00  0.00    +0.000 C 
ATOM     10  O   UNL     1       2.402   6.344  19.995  0.00  0.00    +0.000 OA
BRANCH   8  12
ATOM     11  C   UNL     1       2.008   3.171  21.564  0.00  0.00    +0.000 C 
ATOM     12  C   UNL     1       1.160   3.971  20.584  0.00  0.00    +0.000 C 
ENDBRANCH   8  12
BRANCH   8  13
ATOM     13  C   UNL     1       1.585   3.317  18.158  0.00  0.00    +0.000 C 
ATOM     14  C   UNL     1       2.540   2.149  17.997  0.00  0.00    +0.000 C 
ENDBRANCH   8  13
ENDBRANCH   7   9
ENDBRANCH   6   7
ENDBRANCH   1   6
BRANCH   1  15
ATOM     15  C   UNL     1       5.400   4.646  16.872  0.00  0.00    +0.000 C 
BRANCH  15  16
ATOM     16  CA  UNL     1       6.530   4.025  16.037  0.00  0.00    +0.000 C 
BRANCH  16  17
ATOM     17  N   UNL     1       7.811   4.140  16.777  0.00  0.00    +0.000 NA
ATOM     18  H1  UNL     1       8.523   3.610  16.262  0.00  0.00    +0.000 HD
ATOM     19  H2  UNL     1       7.713   3.569  17.626  0.00  0.00    +0.000 HD
ENDBRANCH  16  17
BRANCH  16  20
ATOM     20  C   UNL     1       6.701   4.569  14.603  0.00  0.00    +0.000 C 
ATOM     21  O   UNL     1       5.951   4.263  13.683  0.00  0.00    +0.000 OA
BRANCH  20  22
ATOM     22  OXT UNL     1       7.713   5.444  14.435  0.00  0.00    +0.000 OA
ATOM     23  HXT UNL     1       8.257   5.332  13.634  0.00  0.00    +0.000 HD
ENDBRANCH  20  22
ENDBRANCH  16  20
ENDBRANCH  15  16
ENDBRANCH   1  15
TORSDOF 12
ENDMDL
MODEL 7
REMARK VINA RESULT:      -5.9      1.908      3.603
REMARK  Name = 
REMARK  14 active torsions:
REMARK  status: ('A' for Active; 'I' for Inactive)
REMARK    1  A    between atoms: C_1  and  C_2
REMARK    2  A    between atoms: C_2  and  N_3
REMARK    3  A    between atoms: N_3  and  C_4
REMARK    4  A    between atoms: C_4  and  C_5
REMARK    5  A    between atoms: C_6  and  C_8
REMARK    6  A    between atoms: C_8  and  C_9
REMARK    7  A    between atoms: C_9  and  C_10
REMARK    8  A    between atoms: C_10  and  C_11
REMARK    9  A    between atoms: C_10  and  C_17
REMARK   10  A    between atoms: C_11  and  CA_12
REMARK   11  A    between atoms: CA_12  and  N_13
REMARK   12  A    between atoms: CA_12  and  C_14
REMARK   13  A    between atoms: C_14  and  OXT_16
REMARK   14  A    between atoms: C_17  and  O_19
REMARK                            x       y       z     vdW  Elec       q    Type
REMARK                         _______ _______ _______ _____ _____    ______ ____
ROOT
ATOM      1  C   UNL     1       5.744   4.589  16.200  0.00  0.00    +0.000 C 
ENDROOT
BRANCH   1   2
ATOM      2  C   UNL     1       6.882   5.063  17.096  0.00  0.00    +0.000 C 
ATOM      3  O   UNL     1       7.245   4.489  18.109  0.00  0.00    +0.000 OA
BRANCH   2   4
ATOM      4  O   UNL     1       7.487   6.183  16.645  0.00  0.00    +0.000 OA
ATOM      5  H   UNL     1       6.878   6.910  16.411  0.00  0.00    +0.000 HD
ENDBRANCH   2   4
ENDBRANCH   1   2
BRANCH   1   6
ATOM      6  C   UNL     1       4.648   3.902  17.032  0.00  0.00    +0.000 C 
BRANCH   6   7
ATOM      7  C   UNL     1       3.588   4.889  17.513  0.00  0.00    +0.000 C 
BRANCH   7   9
ATOM      8  N   UNL     1       2.351   4.277  19.566  0.00  0.00    +0.000 N 
ATOM      9  C   UNL     1       3.464   4.938  19.025  0.00  0.00    +0.000 C 
ATOM     10  O   UNL     1       4.305   5.507  19.726  0.00  0.00    +0.000 OA
BRANCH   8  12
ATOM     11  C   UNL     1       2.300   3.039  21.741  0.00  0.00    +0.000 C 
ATOM     12  C   UNL     1       2.169   4.372  21.017  0.00  0.00    +0.000 C 
ENDBRANCH   8  12
BRANCH   8  13
ATOM     13  C   UNL     1       1.250   3.827  18.703  0.00  0.00    +0.000 C 
ATOM     14  C   UNL     1       0.975   2.337  18.658  0.00  0.00    +0.000 C 
ENDBRANCH   8  13
ENDBRANCH   7   9
ENDBRANCH   6   7
ENDBRANCH   1   6
BRANCH   1  15
ATOM     15  C   UNL     1       6.358   3.661  15.136  0.00  0.00    +0.000 C 
BRANCH  15  16
ATOM     16  CA  UNL     1       6.266   4.120  13.674  0.00  0.00    +0.000 C 
BRANCH  16  17
ATOM     17  N   UNL     1       6.084   2.938  12.795  0.00  0.00    +0.000 NA
ATOM     18  H1  UNL     1       6.889   2.317  12.929  0.00  0.00    +0.000 HD
ATOM     19  H2  UNL     1       6.240   3.261  11.831  0.00  0.00    +0.000 HD
ENDBRANCH  16  17
BRANCH  16  20
ATOM     20  C   UNL     1       7.431   4.988  13.152  0.00  0.00    +0.000 C 
ATOM     21  O   UNL     1       8.143   5.658  13.892  0.00  0.00    +0.000 OA
BRANCH  20  22
ATOM     22  OXT UNL     1       7.644   4.927  11.822  0.00  0.00    +0.000 OA
ATOM     23  HXT UNL     1       7.106   4.285  11.324  0.00  0.00    +0.000 HD
ENDBRANCH  20  22
ENDBRANCH  16  20
ENDBRANCH  15  16
ENDBRANCH   1  15
TORSDOF 12
ENDMDL
MODEL 8
REMARK VINA RESULT:      -5.9      1.684      2.259
REMARK  Name = 
REMARK  14 active torsions:
REMARK  status: ('A' for Active; 'I' for Inactive)
REMARK    1  A    between atoms: C_1  and  C_2
REMARK    2  A    between atoms: C_2  and  N_3
REMARK    3  A    between atoms: N_3  and  C_4
REMARK    4  A    between atoms: C_4  and  C_5
REMARK    5  A    between atoms: C_6  and  C_8
REMARK    6  A    between atoms: C_8  and  C_9
REMARK    7  A    between atoms: C_9  and  C_10
REMARK    8  A    between atoms: C_10  and  C_11
REMARK    9  A    between atoms: C_10  and  C_17
REMARK   10  A    between atoms: C_11  and  CA_12
REMARK   11  A    between atoms: CA_12  and  N_13
REMARK   12  A    between atoms: CA_12  and  C_14
REMARK   13  A    between atoms: C_14  and  OXT_16
REMARK   14  A    between atoms: C_17  and  O_19
REMARK                            x       y       z     vdW  Elec       q    Type
REMARK                         _______ _______ _______ _____ _____    ______ ____
ROOT
ATOM      1  C   UNL     1       5.886   4.363  16.683  0.00  0.00    +0.000 C 
ENDROOT
BRANCH   1   2
ATOM      2  C   UNL     1       6.444   4.630  15.290  0.00  0.00    +0.000 C 
ATOM      3  O   UNL     1       7.410   5.340  15.061  0.00  0.00    +0.000 OA
BRANCH   2   4
ATOM      4  O   UNL     1       5.782   3.975  14.312  0.00  0.00    +0.000 OA
ATOM      5  H   UNL     1       6.132   4.122  13.412  0.00  0.00    +0.000 HD
ENDBRANCH   2   4
ENDBRANCH   1   2
BRANCH   1   6
ATOM      6  C   UNL     1       4.444   3.837  16.598  0.00  0.00    +0.000 C 
BRANCH   6   7
ATOM      7  C   UNL     1       3.469   4.699  17.394  0.00  0.00    +0.000 C 
BRANCH   7   9
ATOM      8  N   UNL     1       1.949   4.352  19.316  0.00  0.00    +0.000 N 
ATOM      9  C   UNL     1       2.367   3.893  18.057  0.00  0.00    +0.000 C 
ATOM     10  O   UNL     1       1.861   2.911  17.507  0.00  0.00    +0.000 OA
BRANCH   8  12
ATOM     11  C   UNL     1       1.471   2.806  21.226  0.00  0.00    +0.000 C 
ATOM     12  C   UNL     1       0.938   3.549  20.008  0.00  0.00    +0.000 C 
ENDBRANCH   8  12
BRANCH   8  13
ATOM     13  C   UNL     1       2.728   5.362  20.045  0.00  0.00    +0.000 C 
ATOM     14  C   UNL     1       2.285   6.806  19.908  0.00  0.00    +0.000 C 
ENDBRANCH   8  13
ENDBRANCH   7   9
ENDBRANCH   6   7
ENDBRANCH   1   6
BRANCH   1  15
ATOM     15  C   UNL     1       5.999   5.676  17.479  0.00  0.00    +0.000 C 
BRANCH  15  16
ATOM     16  CA  UNL     1       7.303   5.910  18.254  0.00  0.00    +0.000 C 
BRANCH  16  17
ATOM     17  N   UNL     1       7.093   5.581  19.686  0.00  0.00    +0.000 NA
ATOM     18  H1  UNL     1       6.964   4.566  19.762  0.00  0.00    +0.000 HD
ATOM     19  H2  UNL     1       6.155   5.921  19.932  0.00  0.00    +0.000 HD
ENDBRANCH  16  17
BRANCH  16  20
ATOM     20  C   UNL     1       7.935   7.313  18.126  0.00  0.00    +0.000 C 
ATOM     21  O   UNL     1       7.705   8.061  17.183  0.00  0.00    +0.000 OA
BRANCH  20  22
ATOM     22  OXT UNL     1       8.730   7.683  19.150  0.00  0.00    +0.000 OA
ATOM     23  HXT UNL     1       8.861   8.641  19.275  0.00  0.00    +0.000 HD
ENDBRANCH  20  22
ENDBRANCH  16  20
ENDBRANCH  15  16
ENDBRANCH   1  15
TORSDOF 12
ENDMDL
MODEL 9
REMARK VINA RESULT:      -5.9      2.163      3.470
REMARK  Name = 
REMARK  14 active torsions:
REMARK  status: ('A' for Active; 'I' for Inactive)
REMARK    1  A    between atoms: C_1  and  C_2
REMARK    2  A    between atoms: C_2  and  N_3
REMARK    3  A    between atoms: N_3  and  C_4
REMARK    4  A    between atoms: C_4  and  C_5
REMARK    5  A    between atoms: C_6  and  C_8
REMARK    6  A    between atoms: C_8  and  C_9
REMARK    7  A    between atoms: C_9  and  C_10
REMARK    8  A    between atoms: C_10  and  C_11
REMARK    9  A    between atoms: C_10  and  C_17
REMARK   10  A    between atoms: C_11  and  CA_12
REMARK   11  A    between atoms: CA_12  and  N_13
REMARK   12  A    between atoms: CA_12  and  C_14
REMARK   13  A    between atoms: C_14  and  OXT_16
REMARK   14  A    between atoms: C_17  and  O_19
REMARK                            x       y       z     vdW  Elec       q    Type
REMARK                         _______ _______ _______ _____ _____    ______ ____
ROOT
ATOM      1  C   UNL     1       4.090   3.878  17.477  0.00  0.00    +0.000 C 
ENDROOT
BRANCH   1   2
ATOM      2  C   UNL     1       4.381   2.685  18.379  0.00  0.00    +0.000 C 
ATOM      3  O   UNL     1       3.880   1.581  18.242  0.00  0.00    +0.000 OA
BRANCH   2   4
ATOM      4  O   UNL     1       5.283   2.953  19.348  0.00  0.00    +0.000 OA
ATOM      5  H   UNL     1       6.206   2.732  19.119  0.00  0.00    +0.000 HD
ENDBRANCH   2   4
ENDBRANCH   1   2
BRANCH   1   6
ATOM      6  C   UNL     1       2.711   3.733  16.811  0.00  0.00    +0.000 C 
BRANCH   6   7
ATOM      7  C   UNL     1       1.600   4.361  17.648  0.00  0.00    +0.000 C 
BRANCH   7   9
ATOM      8  N   UNL     1       1.485   4.070  20.102  0.00  0.00    +0.000 N 
ATOM      9  C   UNL     1       1.206   3.514  18.844  0.00  0.00    +0.000 C 
ATOM     10  O   UNL     1       0.657   2.417  18.709  0.00  0.00    +0.000 OA
BRANCH   8  12
ATOM     11  C   UNL     1       2.388   2.498  21.828  0.00  0.00    +0.000 C 
ATOM     12  C   UNL     1       1.181   3.241  21.272  0.00  0.00    +0.000 C 
ENDBRANCH   8  12
BRANCH   8  13
ATOM     13  C   UNL     1       2.352   5.249  20.228  0.00  0.00    +0.000 C 
ATOM     14  C   UNL     1       1.689   6.552  20.635  0.00  0.00    +0.000 C 
ENDBRANCH   8  13
ENDBRANCH   7   9
ENDBRANCH   6   7
ENDBRANCH   1   6
BRANCH   1  15
ATOM     15  C   UNL     1       5.241   3.970  16.458  0.00  0.00    +0.000 C 
BRANCH  15  16
ATOM     16  CA  UNL     1       6.108   5.236  16.498  0.00  0.00    +0.000 C 
BRANCH  16  17
ATOM     17  N   UNL     1       6.639   5.515  15.141  0.00  0.00    +0.000 NA
ATOM     18  H1  UNL     1       7.660   5.426  15.176  0.00  0.00    +0.000 HD
ATOM     19  H2  UNL     1       6.532   6.525  14.984  0.00  0.00    +0.000 HD
ENDBRANCH  16  17
BRANCH  16  20
ATOM     20  C   UNL     1       7.260   5.247  17.525  0.00  0.00    +0.000 C 
ATOM     21  O   UNL     1       7.677   6.276  18.045  0.00  0.00    +0.000 OA
BRANCH  20  22
ATOM     22  OXT UNL     1       7.754   4.036  17.850  0.00  0.00    +0.000 OA
ATOM     23  HXT UNL     1       8.299   3.990  18.657  0.00  0.00    +0.000 HD
ENDBRANCH  20  22
ENDBRANCH  16  20
ENDBRANCH  15  16
ENDBRANCH   1  15
TORSDOF 12
ENDMDL
