MODEL 1
REMARK VINA RESULT:      -7.8      0.000      0.000
REMARK  Name = 
REMARK  6 active torsions:
REMARK  status: ('A' for Active; 'I' for Inactive)
REMARK    1  A    between atoms: C_2  and  O_3
REMARK    2  A    between atoms: C_2  and  C_4
REMARK    3  A    between atoms: C_4  and  C_5
REMARK    4  A    between atoms: C_5  and  C_6
REMARK    5  A    between atoms: N_11  and  C_12
REMARK    6  A    between atoms: C_12  and  C_13
REMARK                            x       y       z     vdW  Elec       q    Type
REMARK                         _______ _______ _______ _____ _____    ______ ____
ROOT
ATOM      1  C   UNL     1       6.280   4.778  14.534  0.00  0.00    +0.000 C 
ATOM      2  O   UNL     1       7.185   5.556  14.223  0.00  0.00    +0.000 OA
ATOM      3  N   UNL     1       5.344   5.090  15.512  0.00  0.00    +0.000 N 
ATOM      4  C   UNL     1       4.306   4.193  16.037  0.00  0.00    +0.000 C 
ATOM      5  C   UNL     1       4.667   3.570  17.394  0.00  0.00    +0.000 C 
ATOM      6  N   UNL     1       4.763   4.514  18.506  0.00  0.00    +0.000 N 
ATOM      7  C   UNL     1       5.909   5.301  18.570  0.00  0.00    +0.000 A 
ATOM      8  N   UNL     1       6.608   5.219  19.722  0.00  0.00    +0.000 NA
ATOM      9  C   UNL     1       7.747   5.929  19.843  0.00  0.00    +0.000 A 
ATOM     10  C   UNL     1       8.242   6.763  18.861  0.00  0.00    +0.000 A 
ATOM     11  C   UNL     1       7.511   6.873  17.688  0.00  0.00    +0.000 A 
ATOM     12  C   UNL     1       6.327   6.137  17.521  0.00  0.00    +0.000 A 
ATOM     13  C   UNL     1       5.524   6.325  16.263  0.00  0.00    +0.000 C 
ENDROOT
BRANCH   1  14
ATOM     14  C   UNL     1       6.127   3.460  13.798  0.00  0.00    +0.000 C 
BRANCH  14  15
ATOM     15  C   UNL     1       6.124   3.666  12.281  0.00  0.00    +0.000 C 
BRANCH  15  17
ATOM     16  O   UNL     1       4.097   2.933  11.177  0.00  0.00    +0.000 OA
ATOM     17  C   UNL     1       5.214   2.678  11.601  0.00  0.00    +0.000 C 
BRANCH  17  18
ATOM     18  O   UNL     1       5.766   1.448  11.499  0.00  0.00    +0.000 OA
ATOM     19  H   UNL     1       6.311   1.328  10.697  0.00  0.00    +0.000 HD
ENDBRANCH  17  18
ENDBRANCH  15  17
ENDBRANCH  14  15
ENDBRANCH   1  14
BRANCH   6  20
ATOM     20  C   UNL     1       3.608   5.135  19.143  0.00  0.00    +0.000 C 
BRANCH  20  21
ATOM     21  C   UNL     1       2.737   4.169  19.903  0.00  0.00    +0.000 C 
ATOM     22  C   UNL     1       1.492   4.588  20.650  0.00  0.00    +0.000 C 
ATOM     23  C   UNL     1       1.364   3.830  19.361  0.00  0.00    +0.000 C 
ENDBRANCH  20  21
ENDBRANCH   6  20
TORSDOF 6
ENDMDL
MODEL 2
REMARK VINA RESULT:      -7.5      3.495      6.406
REMARK  Name = 
REMARK  6 active torsions:
REMARK  status: ('A' for Active; 'I' for Inactive)
REMARK    1  A    between atoms: C_2  and  O_3
REMARK    2  A    between atoms: C_2  and  C_4
REMARK    3  A    between atoms: C_4  and  C_5
REMARK    4  A    between atoms: C_5  and  C_6
REMARK    5  A    between atoms: N_11  and  C_12
REMARK    6  A    between atoms: C_12  and  C_13
REMARK                            x       y       z     vdW  Elec       q    Type
REMARK                         _______ _______ _______ _____ _____    ______ ____
ROOT
ATOM      1  C   UNL     1       3.651   3.262  18.435  0.00  0.00    +0.000 C 
ATOM      2  O   UNL     1       3.062   2.679  17.522  0.00  0.00    +0.000 OA
ATOM      3  N   UNL     1       4.104   4.569  18.302  0.00  0.00    +0.000 N 
ATOM      4  C   UNL     1       4.914   5.309  19.279  0.00  0.00    +0.000 C 
ATOM      5  C   UNL     1       6.406   5.363  18.919  0.00  0.00    +0.000 C 
ATOM      6  N   UNL     1       6.727   6.118  17.709  0.00  0.00    +0.000 N 
ATOM      7  C   UNL     1       6.462   5.501  16.490  0.00  0.00    +0.000 A 
ATOM      8  N   UNL     1       7.515   5.394  15.651  0.00  0.00    +0.000 NA
ATOM      9  C   UNL     1       7.340   4.779  14.466  0.00  0.00    +0.000 A 
ATOM     10  C   UNL     1       6.133   4.263  14.036  0.00  0.00    +0.000 A 
ATOM     11  C   UNL     1       5.044   4.399  14.882  0.00  0.00    +0.000 A 
ATOM     12  C   UNL     1       5.192   5.021  16.132  0.00  0.00    +0.000 A 
ATOM     13  C   UNL     1       3.977   5.209  17.000  0.00  0.00    +0.000 C 
ENDROOT
BRANCH   1  14
ATOM     14  C   UNL     1       3.843   2.575  19.774  0.00  0.00    +0.000 C 
BRANCH  14  15
ATOM     15  C   UNL     1       2.528   1.986  20.291  0.00  0.00    +0.000 C 
BRANCH  15  17
ATOM     16  O   UNL     1       2.145   3.304  22.286  0.00  0.00    +0.000 OA
ATOM     17  C   UNL     1       1.798   2.971  21.164  0.00  0.00    +0.000 C 
BRANCH  17  18
ATOM     18  O   UNL     1       0.690   3.469  20.569  0.00  0.00    +0.000 OA
ATOM     19  H   UNL     1       0.369   2.929  19.821  0.00  0.00    +0.000 HD
ENDBRANCH  17  18
ENDBRANCH  15  17
ENDBRANCH  14  15
ENDBRANCH   1  14
BRANCH   6  20
ATOM     20  C   UNL     1       6.696   7.574  17.631  0.00  0.00    +0.000 C 
BRANCH  20  21
ATOM     21  C   UNL     1       8.060   8.213  17.595  0.00  0.00    +0.000 C 
ATOM     22  C   UNL     1       8.288   9.689  17.825  0.00  0.00    +0.000 C 
ATOM     23  C   UNL     1       8.680   8.704  18.887  0.00  0.00    +0.000 C 
ENDBRANCH  20  21
ENDBRANCH   6  20
TORSDOF 6
ENDMDL
MODEL 3
REMARK VINA RESULT:      -7.1      0.946      1.198
REMARK  Name = 
REMARK  6 active torsions:
REMARK  status: ('A' for Active; 'I' for Inactive)
REMARK    1  A    between atoms: C_2  and  O_3
REMARK    2  A    between atoms: C_2  and  C_4
REMARK    3  A    between atoms: C_4  and  C_5
REMARK    4  A    between atoms: C_5  and  C_6
REMARK    5  A    between atoms: N_11  and  C_12
REMARK    6  A    between atoms: C_12  and  C_13
REMARK                            x       y       z     vdW  Elec       q    Type
REMARK                         _______ _______ _______ _____ _____    ______ ____
ROOT
ATOM      1  C   UNL     1       5.817   4.773  14.791  0.00  0.00    +0.000 C 
ATOM      2  O   UNL     1       6.653   5.573  14.365  0.00  0.00    +0.000 OA
ATOM      3  N   UNL     1       5.009   5.063  15.883  0.00  0.00    +0.000 N 
ATOM      4  C   UNL     1       4.072   4.140  16.537  0.00  0.00    +0.000 C 
ATOM      5  C   UNL     1       4.622   3.527  17.834  0.00  0.00    +0.000 C 
ATOM      6  N   UNL     1       4.840   4.475  18.926  0.00  0.00    +0.000 N 
ATOM      7  C   UNL     1       5.964   5.290  18.841  0.00  0.00    +0.000 A 
ATOM      8  N   UNL     1       6.809   5.226  19.892  0.00  0.00    +0.000 NA
ATOM      9  C   UNL     1       7.936   5.965  19.865  0.00  0.00    +0.000 A 
ATOM     10  C   UNL     1       8.277   6.810  18.828  0.00  0.00    +0.000 A 
ATOM     11  C   UNL     1       7.397   6.901  17.762  0.00  0.00    +0.000 A 
ATOM     12  C   UNL     1       6.220   6.135  17.749  0.00  0.00    +0.000 A 
ATOM     13  C   UNL     1       5.255   6.302  16.607  0.00  0.00    +0.000 C 
ENDROOT
BRANCH   1  14
ATOM     14  C   UNL     1       5.602   3.451  14.078  0.00  0.00    +0.000 C 
BRANCH  14  15
ATOM     15  C   UNL     1       5.435   3.652  12.569  0.00  0.00    +0.000 C 
BRANCH  15  17
ATOM     16  O   UNL     1       7.510   4.360  11.543  0.00  0.00    +0.000 OA
ATOM     17  C   UNL     1       6.742   3.461  11.848  0.00  0.00    +0.000 C 
BRANCH  17  18
ATOM     18  O   UNL     1       6.994   2.163  11.565  0.00  0.00    +0.000 OA
ATOM     19  H   UNL     1       6.404   1.538  12.029  0.00  0.00    +0.000 HD
ENDBRANCH  17  18
ENDBRANCH  15  17
ENDBRANCH  14  15
ENDBRANCH   1  14
BRANCH   6  20
ATOM     20  C   UNL     1       3.762   5.066  19.710  0.00  0.00    +0.000 C 
BRANCH  20  21
ATOM     21  C   UNL     1       2.628   4.119  20.004  0.00  0.00    +0.000 C 
ATOM     22  C   UNL     1       2.792   2.865  20.831  0.00  0.00    +0.000 C 
ATOM     23  C   UNL     1       2.072   4.047  21.411  0.00  0.00    +0.000 C 
ENDBRANCH  20  21
ENDBRANCH   6  20
TORSDOF 6
ENDMDL
MODEL 4
REMARK VINA RESULT:      -7.1      0.848      1.381
REMARK  Name = 
REMARK  6 active torsions:
REMARK  status: ('A' for Active; 'I' for Inactive)
REMARK    1  A    between atoms: C_2  and  O_3
REMARK    2  A    between atoms: C_2  and  C_4
REMARK    3  A    between atoms: C_4  and  C_5
REMARK    4  A    between atoms: C_5  and  C_6
REMARK    5  A    between atoms: N_11  and  C_12
REMARK    6  A    between atoms: C_12  and  C_13
REMARK                            x       y       z     vdW  Elec       q    Type
REMARK                         _______ _______ _______ _____ _____    ______ ____
ROOT
ATOM      1  C   UNL     1       6.212   4.743  14.533  0.00  0.00    +0.000 C 
ATOM      2  O   UNL     1       7.075   5.558  14.198  0.00  0.00    +0.000 OA
ATOM      3  N   UNL     1       5.295   5.013  15.541  0.00  0.00    +0.000 N 
ATOM      4  C   UNL     1       4.311   4.073  16.092  0.00  0.00    +0.000 C 
ATOM      5  C   UNL     1       4.738   3.458  17.434  0.00  0.00    +0.000 C 
ATOM      6  N   UNL     1       4.832   4.400  18.548  0.00  0.00    +0.000 N 
ATOM      7  C   UNL     1       5.947   5.231  18.581  0.00  0.00    +0.000 A 
ATOM      8  N   UNL     1       6.684   5.172  19.710  0.00  0.00    +0.000 NA
ATOM      9  C   UNL     1       7.797   5.925  19.800  0.00  0.00    +0.000 A 
ATOM     10  C   UNL     1       8.228   6.783  18.808  0.00  0.00    +0.000 A 
ATOM     11  C   UNL     1       7.457   6.870  17.660  0.00  0.00    +0.000 A 
ATOM     12  C   UNL     1       6.298   6.088  17.525  0.00  0.00    +0.000 A 
ATOM     13  C   UNL     1       5.450   6.250  16.293  0.00  0.00    +0.000 C 
ENDROOT
BRANCH   1  14
ATOM     14  C   UNL     1       6.088   3.424  13.793  0.00  0.00    +0.000 C 
BRANCH  14  15
ATOM     15  C   UNL     1       6.131   3.628  12.277  0.00  0.00    +0.000 C 
BRANCH  15  17
ATOM     16  O   UNL     1       5.692   1.441  11.333  0.00  0.00    +0.000 OA
ATOM     17  C   UNL     1       5.317   2.581  11.565  0.00  0.00    +0.000 C 
BRANCH  17  18
ATOM     18  O   UNL     1       4.097   3.032  11.199  0.00  0.00    +0.000 OA
ATOM     19  H   UNL     1       3.708   2.545  10.446  0.00  0.00    +0.000 HD
ENDBRANCH  17  18
ENDBRANCH  15  17
ENDBRANCH  14  15
ENDBRANCH   1  14
BRANCH   6  20
ATOM     20  C   UNL     1       3.673   4.972  19.224  0.00  0.00    +0.000 C 
BRANCH  20  21
ATOM     21  C   UNL     1       3.484   6.445  18.972  0.00  0.00    +0.000 C 
ATOM     22  C   UNL     1       2.349   7.004  18.146  0.00  0.00    +0.000 C 
ATOM     23  C   UNL     1       2.330   7.165  19.638  0.00  0.00    +0.000 C 
ENDBRANCH  20  21
ENDBRANCH   6  20
TORSDOF 6
ENDMDL
MODEL 5
REMARK VINA RESULT:      -7.0      3.445      6.172
REMARK  Name = 
REMARK  6 active torsions:
REMARK  status: ('A' for Active; 'I' for Inactive)
REMARK    1  A    between atoms: C_2  and  O_3
REMARK    2  A    between atoms: C_2  and  C_4
REMARK    3  A    between atoms: C_4  and  C_5
REMARK    4  A    between atoms: C_5  and  C_6
REMARK    5  A    between atoms: N_11  and  C_12
REMARK    6  A    between atoms: C_12  and  C_13
REMARK                            x       y       z     vdW  Elec       q    Type
REMARK                         _______ _______ _______ _____ _____    ______ ____
ROOT
ATOM      1  C   UNL     1       2.733   3.381  17.925  0.00  0.00    +0.000 C 
ATOM      2  O   UNL     1       2.120   3.412  16.855  0.00  0.00    +0.000 OA
ATOM      3  N   UNL     1       3.648   4.366  18.278  0.00  0.00    +0.000 N 
ATOM      4  C   UNL     1       4.511   4.361  19.466  0.00  0.00    +0.000 C 
ATOM      5  C   UNL     1       5.956   3.932  19.169  0.00  0.00    +0.000 C 
ATOM      6  N   UNL     1       6.714   4.848  18.317  0.00  0.00    +0.000 N 
ATOM      7  C   UNL     1       6.432   4.821  16.954  0.00  0.00    +0.000 A 
ATOM      8  N   UNL     1       7.488   4.584  16.147  0.00  0.00    +0.000 NA
ATOM      9  C   UNL     1       7.285   4.512  14.817  0.00  0.00    +0.000 A 
ATOM     10  C   UNL     1       6.055   4.688  14.215  0.00  0.00    +0.000 A 
ATOM     11  C   UNL     1       4.975   4.962  15.038  0.00  0.00    +0.000 A 
ATOM     12  C   UNL     1       5.146   5.030  16.431  0.00  0.00    +0.000 A 
ATOM     13  C   UNL     1       3.966   5.390  17.293  0.00  0.00    +0.000 C 
ENDROOT
BRANCH   1  14
ATOM     14  C   UNL     1       2.451   2.279  18.929  0.00  0.00    +0.000 C 
BRANCH  14  15
ATOM     15  C   UNL     1       1.102   2.487  19.620  0.00  0.00    +0.000 C 
BRANCH  15  17
ATOM     16  O   UNL     1       1.511   2.612  22.004  0.00  0.00    +0.000 OA
ATOM     17  C   UNL     1       1.271   3.176  20.947  0.00  0.00    +0.000 C 
BRANCH  17  18
ATOM     18  O   UNL     1       1.133   4.518  20.856  0.00  0.00    +0.000 OA
ATOM     19  H   UNL     1       0.899   4.829  19.960  0.00  0.00    +0.000 HD
ENDBRANCH  17  18
ENDBRANCH  15  17
ENDBRANCH  14  15
ENDBRANCH   1  14
BRANCH   6  20
ATOM     20  C   UNL     1       7.230   6.134  18.769  0.00  0.00    +0.000 C 
BRANCH  20  21
ATOM     21  C   UNL     1       7.596   7.073  17.649  0.00  0.00    +0.000 C 
ATOM     22  C   UNL     1       6.862   8.365  17.379  0.00  0.00    +0.000 C 
ATOM     23  C   UNL     1       8.236   8.405  17.982  0.00  0.00    +0.000 C 
ENDBRANCH  20  21
ENDBRANCH   6  20
TORSDOF 6
ENDMDL
MODEL 6
REMARK VINA RESULT:      -6.8      3.926      5.687
REMARK  Name = 
REMARK  6 active torsions:
REMARK  status: ('A' for Active; 'I' for Inactive)
REMARK    1  A    between atoms: C_2  and  O_3
REMARK    2  A    between atoms: C_2  and  C_4
REMARK    3  A    between atoms: C_4  and  C_5
REMARK    4  A    between atoms: C_5  and  C_6
REMARK    5  A    between atoms: N_11  and  C_12
REMARK    6  A    between atoms: C_12  and  C_13
REMARK                            x       y       z     vdW  Elec       q    Type
REMARK                         _______ _______ _______ _____ _____    ______ ____
ROOT
ATOM      1  C   UNL     1       2.930   2.341  17.963  0.00  0.00    +0.000 C 
ATOM      2  O   UNL     1       3.709   1.539  17.443  0.00  0.00    +0.000 OA
ATOM      3  N   UNL     1       2.849   3.664  17.547  0.00  0.00    +0.000 N 
ATOM      4  C   UNL     1       2.045   4.722  18.174  0.00  0.00    +0.000 C 
ATOM      5  C   UNL     1       2.864   5.656  19.078  0.00  0.00    +0.000 C 
ATOM      6  N   UNL     1       3.858   6.477  18.387  0.00  0.00    +0.000 N 
ATOM      7  C   UNL     1       5.031   5.845  17.987  0.00  0.00    +0.000 A 
ATOM      8  N   UNL     1       6.175   6.397  18.447  0.00  0.00    +0.000 NA
ATOM      9  C   UNL     1       7.349   5.820  18.127  0.00  0.00    +0.000 A 
ATOM     10  C   UNL     1       7.464   4.697  17.331  0.00  0.00    +0.000 A 
ATOM     11  C   UNL     1       6.294   4.146  16.832  0.00  0.00    +0.000 A 
ATOM     12  C   UNL     1       5.050   4.712  17.157  0.00  0.00    +0.000 A 
ATOM     13  C   UNL     1       3.804   4.128  16.551  0.00  0.00    +0.000 C 
ENDROOT
BRANCH   1  14
ATOM     14  C   UNL     1       1.976   1.876  19.048  0.00  0.00    +0.000 C 
BRANCH  14  15
ATOM     15  C   UNL     1       2.615   1.985  20.435  0.00  0.00    +0.000 C 
BRANCH  15  17
ATOM     16  O   UNL     1       2.172   3.308  22.414  0.00  0.00    +0.000 OA
ATOM     17  C   UNL     1       1.791   2.855  21.346  0.00  0.00    +0.000 C 
BRANCH  17  18
ATOM     18  O   UNL     1       0.556   3.099  20.853  0.00  0.00    +0.000 OA
ATOM     19  H   UNL     1       0.250   2.429  20.210  0.00  0.00    +0.000 HD
ENDBRANCH  17  18
ENDBRANCH  15  17
ENDBRANCH  14  15
ENDBRANCH   1  14
BRANCH   6  20
ATOM     20  C   UNL     1       3.522   7.632  17.563  0.00  0.00    +0.000 C 
BRANCH  20  21
ATOM     21  C   UNL     1       2.132   8.165  17.797  0.00  0.00    +0.000 C 
ATOM     22  C   UNL     1       1.722   8.878  19.065  0.00  0.00    +0.000 C 
ATOM     23  C   UNL     1       1.908   9.663  17.799  0.00  0.00    +0.000 C 
ENDBRANCH  20  21
ENDBRANCH   6  20
TORSDOF 6
ENDMDL
MODEL 7
REMARK VINA RESULT:      -6.7      2.307      3.942
REMARK  Name = 
REMARK  6 active torsions:
REMARK  status: ('A' for Active; 'I' for Inactive)
REMARK    1  A    between atoms: C_2  and  O_3
REMARK    2  A    between atoms: C_2  and  C_4
REMARK    3  A    between atoms: C_4  and  C_5
REMARK    4  A    between atoms: C_5  and  C_6
REMARK    5  A    between atoms: N_11  and  C_12
REMARK    6  A    between atoms: C_12  and  C_13
REMARK                            x       y       z     vdW  Elec       q    Type
REMARK                         _______ _______ _______ _____ _____    ______ ____
ROOT
ATOM      1  C   UNL     1       5.509   6.200  16.753  0.00  0.00    +0.000 C 
ATOM      2  O   UNL     1       5.236   7.094  15.949  0.00  0.00    +0.000 OA
ATOM      3  N   UNL     1       4.523   5.450  17.383  0.00  0.00    +0.000 N 
ATOM      4  C   UNL     1       4.737   4.450  18.438  0.00  0.00    +0.000 C 
ATOM      5  C   UNL     1       4.431   4.976  19.849  0.00  0.00    +0.000 C 
ATOM      6  N   UNL     1       3.029   5.306  20.100  0.00  0.00    +0.000 N 
ATOM      7  C   UNL     1       2.553   6.497  19.559  0.00  0.00    +0.000 A 
ATOM      8  N   UNL     1       2.007   7.359  20.443  0.00  0.00    +0.000 NA
ATOM      9  C   UNL     1       1.555   8.547  19.996  0.00  0.00    +0.000 A 
ATOM     10  C   UNL     1       1.593   8.937  18.672  0.00  0.00    +0.000 A 
ATOM     11  C   UNL     1       2.124   8.041  17.758  0.00  0.00    +0.000 A 
ATOM     12  C   UNL     1       2.620   6.800  18.190  0.00  0.00    +0.000 A 
ATOM     13  C   UNL     1       3.133   5.825  17.165  0.00  0.00    +0.000 C 
ENDROOT
BRANCH   1  14
ATOM     14  C   UNL     1       6.958   5.848  17.033  0.00  0.00    +0.000 C 
BRANCH  14  15
ATOM     15  C   UNL     1       7.350   4.527  16.366  0.00  0.00    +0.000 C 
BRANCH  15  17
ATOM     16  O   UNL     1       7.646   5.431  14.139  0.00  0.00    +0.000 OA
ATOM     17  C   UNL     1       7.151   4.592  14.875  0.00  0.00    +0.000 C 
BRANCH  17  18
ATOM     18  O   UNL     1       6.351   3.603  14.415  0.00  0.00    +0.000 OA
ATOM     19  H   UNL     1       5.756   3.884  13.693  0.00  0.00    +0.000 HD
ENDBRANCH  17  18
ENDBRANCH  15  17
ENDBRANCH  14  15
ENDBRANCH   1  14
BRANCH   6  20
ATOM     20  C   UNL     1       1.984   4.306  20.289  0.00  0.00    +0.000 C 
BRANCH  20  21
ATOM     21  C   UNL     1       1.376   3.807  19.004  0.00  0.00    +0.000 C 
ATOM     22  C   UNL     1       1.833   2.546  18.308  0.00  0.00    +0.000 C 
ATOM     23  C   UNL     1       0.517   2.560  19.030  0.00  0.00    +0.000 C 
ENDBRANCH  20  21
ENDBRANCH   6  20
TORSDOF 6
ENDMDL
MODEL 8
REMARK VINA RESULT:      -6.6      3.588      5.609
REMARK  Name = 
REMARK  6 active torsions:
REMARK  status: ('A' for Active; 'I' for Inactive)
REMARK    1  A    between atoms: C_2  and  O_3
REMARK    2  A    between atoms: C_2  and  C_4
REMARK    3  A    between atoms: C_4  and  C_5
REMARK    4  A    between atoms: C_5  and  C_6
REMARK    5  A    between atoms: N_11  and  C_12
REMARK    6  A    between atoms: C_12  and  C_13
REMARK                            x       y       z     vdW  Elec       q    Type
REMARK                         _______ _______ _______ _____ _____    ______ ____
ROOT
ATOM      1  C   UNL     1       2.779   2.425  18.572  0.00  0.00    +0.000 C 
ATOM      2  O   UNL     1       3.304   1.548  17.882  0.00  0.00    +0.000 OA
ATOM      3  N   UNL     1       2.555   3.708  18.088  0.00  0.00    +0.000 N 
ATOM      4  C   UNL     1       2.049   4.850  18.860  0.00  0.00    +0.000 C 
ATOM      5  C   UNL     1       3.151   5.827  19.300  0.00  0.00    +0.000 C 
ATOM      6  N   UNL     1       3.819   6.540  18.212  0.00  0.00    +0.000 N 
ATOM      7  C   UNL     1       4.756   5.827  17.471  0.00  0.00    +0.000 A 
ATOM      8  N   UNL     1       5.991   6.370  17.417  0.00  0.00    +0.000 NA
ATOM      9  C   UNL     1       6.958   5.718  16.743  0.00  0.00    +0.000 A 
ATOM     10  C   UNL     1       6.762   4.525  16.076  0.00  0.00    +0.000 A 
ATOM     11  C   UNL     1       5.488   3.981  16.103  0.00  0.00    +0.000 A 
ATOM     12  C   UNL     1       4.458   4.625  16.809  0.00  0.00    +0.000 A 
ATOM     13  C   UNL     1       3.072   4.041  16.768  0.00  0.00    +0.000 C 
ENDROOT
BRANCH   1  14
ATOM     14  C   UNL     1       2.296   2.100  19.973  0.00  0.00    +0.000 C 
BRANCH  14  15
ATOM     15  C   UNL     1       3.268   2.624  21.033  0.00  0.00    +0.000 C 
BRANCH  15  17
ATOM     16  O   UNL     1       5.246   1.267  21.362  0.00  0.00    +0.000 OA
ATOM     17  C   UNL     1       4.673   2.161  20.758  0.00  0.00    +0.000 C 
BRANCH  17  18
ATOM     18  O   UNL     1       5.257   2.845  19.749  0.00  0.00    +0.000 OA
ATOM     19  H   UNL     1       5.823   3.582  20.049  0.00  0.00    +0.000 HD
ENDBRANCH  17  18
ENDBRANCH  15  17
ENDBRANCH  14  15
ENDBRANCH   1  14
BRANCH   6  20
ATOM     20  C   UNL     1       3.207   7.630  17.463  0.00  0.00    +0.000 C 
BRANCH  20  21
ATOM     21  C   UNL     1       2.312   8.515  18.291  0.00  0.00    +0.000 C 
ATOM     22  C   UNL     1       2.091   9.980  17.994  0.00  0.00    +0.000 C 
ATOM     23  C   UNL     1       0.999   8.992  17.706  0.00  0.00    +0.000 C 
ENDBRANCH  20  21
ENDBRANCH   6  20
TORSDOF 6
ENDMDL
MODEL 9
REMARK VINA RESULT:      -6.6      2.586      4.534
REMARK  Name = 
REMARK  6 active torsions:
REMARK  status: ('A' for Active; 'I' for Inactive)
REMARK    1  A    between atoms: C_2  and  O_3
REMARK    2  A    between atoms: C_2  and  C_4
REMARK    3  A    between atoms: C_4  and  C_5
REMARK    4  A    between atoms: C_5  and  C_6
REMARK    5  A    between atoms: N_11  and  C_12
REMARK    6  A    between atoms: C_12  and  C_13
REMARK                            x       y       z     vdW  Elec       q    Type
REMARK                         _______ _______ _______ _____ _____    ______ ____
ROOT
ATOM      1  C   UNL     1       5.161   5.009  17.086  0.00  0.00    +0.000 C 
ATOM      2  O   UNL     1       5.650   3.893  17.279  0.00  0.00    +0.000 OA
ATOM      3  N   UNL     1       4.706   5.804  18.131  0.00  0.00    +0.000 N 
ATOM      4  C   UNL     1       4.005   7.088  18.000  0.00  0.00    +0.000 C 
ATOM      5  C   UNL     1       2.483   6.975  18.185  0.00  0.00    +0.000 C 
ATOM      6  N   UNL     1       2.047   6.589  19.526  0.00  0.00    +0.000 N 
ATOM      7  C   UNL     1       2.182   5.248  19.873  0.00  0.00    +0.000 A 
ATOM      8  N   UNL     1       1.049   4.634  20.275  0.00  0.00    +0.000 NA
ATOM      9  C   UNL     1       1.099   3.327  20.597  0.00  0.00    +0.000 A 
ATOM     10  C   UNL     1       2.252   2.568  20.563  0.00  0.00    +0.000 A 
ATOM     11  C   UNL     1       3.422   3.203  20.180  0.00  0.00    +0.000 A 
ATOM     12  C   UNL     1       3.406   4.562  19.823  0.00  0.00    +0.000 A 
ATOM     13  C   UNL     1       4.704   5.238  19.472  0.00  0.00    +0.000 C 
ENDROOT
BRANCH   1  14
ATOM     14  C   UNL     1       5.102   5.578  15.681  0.00  0.00    +0.000 C 
BRANCH  14  15
ATOM     15  C   UNL     1       5.442   4.515  14.634  0.00  0.00    +0.000 C 
BRANCH  15  17
ATOM     16  O   UNL     1       7.719   5.337  14.620  0.00  0.00    +0.000 OA
ATOM     17  C   UNL     1       6.815   4.738  14.059  0.00  0.00    +0.000 C 
BRANCH  17  18
ATOM     18  O   UNL     1       6.956   4.195  12.829  0.00  0.00    +0.000 OA
ATOM     19  H   UNL     1       7.744   3.623  12.740  0.00  0.00    +0.000 HD
ENDBRANCH  17  18
ENDBRANCH  15  17
ENDBRANCH  14  15
ENDBRANCH   1  14
BRANCH   6  20
ATOM     20  C   UNL     1       2.079   7.484  20.676  0.00  0.00    +0.000 C 
BRANCH  20  21
ATOM     21  C   UNL     1       0.751   8.118  20.995  0.00  0.00    +0.000 C 
ATOM     22  C   UNL     1       0.561   9.130  22.101  0.00  0.00    +0.000 C 
ATOM     23  C   UNL     1       0.534   9.581  20.670  0.00  0.00    +0.000 C 
ENDBRANCH  20  21
ENDBRANCH   6  20
TORSDOF 6
ENDMDL
