MODEL 1
REMARK VINA RESULT:      -7.8      0.000      0.000
REMARK  Name = 
REMARK  3 active torsions:
REMARK  status: ('A' for Active; 'I' for Inactive)
REMARK    1  A    between atoms: C_2  and  C_3
REMARK    2  A    between atoms: C_3  and  C_4
REMARK    3  A    between atoms: C_4  and  C_6
REMARK                            x       y       z     vdW  Elec       q    Type
REMARK                         _______ _______ _______ _____ _____    ______ ____
ROOT
ATOM      1  O   UNL     1       6.215   6.797  16.327  0.00  0.00    +0.000 OA
ATOM      2  C   UNL     1       5.563   5.775  16.553  0.00  0.00    +0.000 C 
ATOM      3  N   UNL     1       5.339   4.754  15.661  0.00  0.00    +0.000 N 
ATOM      4  C   UNL     1       5.985   4.605  14.427  0.00  0.00    +0.000 A 
ATOM      5  C   UNL     1       5.468   3.683  13.521  0.00  0.00    +0.000 A 
ATOM      6  C   UNL     1       6.135   3.475  12.312  0.00  0.00    +0.000 A 
ATOM      7  C   UNL     1       7.294   4.190  12.043  0.00  0.00    +0.000 A 
ATOM      8  C   UNL     1       7.726   5.098  12.991  0.00  0.00    +0.000 A 
ATOM      9  N   UNL     1       7.100   5.308  14.167  0.00  0.00    +0.000 NA
ATOM     10  H   UNL     1       4.638   4.057  15.906  0.00  0.00    +0.000 HD
ENDROOT
BRANCH   2  11
ATOM     11  C   UNL     1       4.927   5.638  17.924  0.00  0.00    +0.000 C 
BRANCH  11  12
ATOM     12  C   UNL     1       3.483   6.026  18.101  0.00  0.00    +0.000 C 
ATOM     13  O   UNL     1       3.062   7.161  17.859  0.00  0.00    +0.000 OA
BRANCH  12  14
ATOM     14  C   UNL     1       2.537   5.021  18.665  0.00  0.00    +0.000 A 
ATOM     15  C   UNL     1       2.106   5.196  19.985  0.00  0.00    +0.000 A 
ATOM     16  C   UNL     1       1.249   4.267  20.572  0.00  0.00    +0.000 A 
ATOM     17  C   UNL     1       0.805   3.169  19.837  0.00  0.00    +0.000 A 
ATOM     18  C   UNL     1       1.210   3.005  18.513  0.00  0.00    +0.000 A 
ATOM     19  C   UNL     1       2.078   3.927  17.923  0.00  0.00    +0.000 A 
ENDBRANCH  12  14
ENDBRANCH  11  12
ENDBRANCH   2  11
TORSDOF 3
ENDMDL
MODEL 2
REMARK VINA RESULT:      -7.7      0.216      1.159
REMARK  Name = 
REMARK  3 active torsions:
REMARK  status: ('A' for Active; 'I' for Inactive)
REMARK    1  A    between atoms: C_2  and  C_3
REMARK    2  A    between atoms: C_3  and  C_4
REMARK    3  A    between atoms: C_4  and  C_6
REMARK                            x       y       z     vdW  Elec       q    Type
REMARK                         _______ _______ _______ _____ _____    ______ ____
ROOT
ATOM      1  O   UNL     1       6.361   6.939  16.346  0.00  0.00    +0.000 OA
ATOM      2  C   UNL     1       5.657   5.961  16.604  0.00  0.00    +0.000 C 
ATOM      3  N   UNL     1       5.370   4.929  15.743  0.00  0.00    +0.000 N 
ATOM      4  C   UNL     1       5.996   4.711  14.509  0.00  0.00    +0.000 A 
ATOM      5  C   UNL     1       5.422   3.794  13.632  0.00  0.00    +0.000 A 
ATOM      6  C   UNL     1       6.067   3.517  12.425  0.00  0.00    +0.000 A 
ATOM      7  C   UNL     1       7.261   4.160  12.129  0.00  0.00    +0.000 A 
ATOM      8  C   UNL     1       7.750   5.069  13.049  0.00  0.00    +0.000 A 
ATOM      9  N   UNL     1       7.146   5.345  14.222  0.00  0.00    +0.000 NA
ATOM     10  H   UNL     1       4.634   4.279  16.012  0.00  0.00    +0.000 HD
ENDROOT
BRANCH   2  11
ATOM     11  C   UNL     1       5.026   5.896  17.983  0.00  0.00    +0.000 C 
BRANCH  11  12
ATOM     12  C   UNL     1       3.577   6.272  18.141  0.00  0.00    +0.000 C 
ATOM     13  O   UNL     1       3.141   7.390  17.849  0.00  0.00    +0.000 OA
BRANCH  12  14
ATOM     14  C   UNL     1       2.643   5.280  18.747  0.00  0.00    +0.000 A 
ATOM     15  C   UNL     1       2.192   4.227  17.942  0.00  0.00    +0.000 A 
ATOM     16  C   UNL     1       1.292   3.292  18.449  0.00  0.00    +0.000 A 
ATOM     17  C   UNL     1       0.851   3.395  19.768  0.00  0.00    +0.000 A 
ATOM     18  C   UNL     1       1.318   4.426  20.581  0.00  0.00    +0.000 A 
ATOM     19  C   UNL     1       2.213   5.373  20.075  0.00  0.00    +0.000 A 
ENDBRANCH  12  14
ENDBRANCH  11  12
ENDBRANCH   2  11
TORSDOF 3
ENDMDL
MODEL 3
REMARK VINA RESULT:      -7.7      1.078      1.659
REMARK  Name = 
REMARK  3 active torsions:
REMARK  status: ('A' for Active; 'I' for Inactive)
REMARK    1  A    between atoms: C_2  and  C_3
REMARK    2  A    between atoms: C_3  and  C_4
REMARK    3  A    between atoms: C_4  and  C_6
REMARK                            x       y       z     vdW  Elec       q    Type
REMARK                         _______ _______ _______ _____ _____    ______ ____
ROOT
ATOM      1  O   UNL     1       6.186   6.992  16.364  0.00  0.00    +0.000 OA
ATOM      2  C   UNL     1       5.484   6.013  16.627  0.00  0.00    +0.000 C 
ATOM      3  N   UNL     1       5.230   4.959  15.783  0.00  0.00    +0.000 N 
ATOM      4  C   UNL     1       5.891   4.719  14.571  0.00  0.00    +0.000 A 
ATOM      5  C   UNL     1       5.350   3.776  13.701  0.00  0.00    +0.000 A 
ATOM      6  C   UNL     1       6.029   3.478  12.518  0.00  0.00    +0.000 A 
ATOM      7  C   UNL     1       7.224   4.126  12.238  0.00  0.00    +0.000 A 
ATOM      8  C   UNL     1       7.679   5.061  13.149  0.00  0.00    +0.000 A 
ATOM      9  N   UNL     1       7.042   5.358  14.300  0.00  0.00    +0.000 NA
ATOM     10  H   UNL     1       4.494   4.307  16.047  0.00  0.00    +0.000 HD
ENDROOT
BRANCH   2  11
ATOM     11  C   UNL     1       4.818   5.974  17.989  0.00  0.00    +0.000 C 
BRANCH  11  12
ATOM     12  C   UNL     1       4.701   4.655  18.706  0.00  0.00    +0.000 C 
ATOM     13  O   UNL     1       5.670   3.920  18.917  0.00  0.00    +0.000 OA
BRANCH  12  14
ATOM     14  C   UNL     1       3.346   4.180  19.110  0.00  0.00    +0.000 A 
ATOM     15  C   UNL     1       2.654   3.343  18.226  0.00  0.00    +0.000 A 
ATOM     16  C   UNL     1       1.371   2.899  18.540  0.00  0.00    +0.000 A 
ATOM     17  C   UNL     1       0.780   3.274  19.746  0.00  0.00    +0.000 A 
ATOM     18  C   UNL     1       1.476   4.084  20.641  0.00  0.00    +0.000 A 
ATOM     19  C   UNL     1       2.759   4.541  20.328  0.00  0.00    +0.000 A 
ENDBRANCH  12  14
ENDBRANCH  11  12
ENDBRANCH   2  11
TORSDOF 3
ENDMDL
MODEL 4
REMARK VINA RESULT:      -7.7      1.337      1.669
REMARK  Name = 
REMARK  3 active torsions:
REMARK  status: ('A' for Active; 'I' for Inactive)
REMARK    1  A    between atoms: C_2  and  C_3
REMARK    2  A    between atoms: C_3  and  C_4
REMARK    3  A    between atoms: C_4  and  C_6
REMARK                            x       y       z     vdW  Elec       q    Type
REMARK                         _______ _______ _______ _____ _____    ______ ____
ROOT
ATOM      1  O   UNL     1       6.548   6.986  16.378  0.00  0.00    +0.000 OA
ATOM      2  C   UNL     1       5.839   6.010  16.631  0.00  0.00    +0.000 C 
ATOM      3  N   UNL     1       5.543   4.987  15.763  0.00  0.00    +0.000 N 
ATOM      4  C   UNL     1       6.163   4.776  14.525  0.00  0.00    +0.000 A 
ATOM      5  C   UNL     1       5.580   3.870  13.643  0.00  0.00    +0.000 A 
ATOM      6  C   UNL     1       6.218   3.599  12.430  0.00  0.00    +0.000 A 
ATOM      7  C   UNL     1       7.414   4.238  12.134  0.00  0.00    +0.000 A 
ATOM      8  C   UNL     1       7.912   5.137  13.059  0.00  0.00    +0.000 A 
ATOM      9  N   UNL     1       7.314   5.406  14.238  0.00  0.00    +0.000 NA
ATOM     10  H   UNL     1       4.804   4.338  16.030  0.00  0.00    +0.000 HD
ENDROOT
BRANCH   2  11
ATOM     11  C   UNL     1       5.214   5.937  18.012  0.00  0.00    +0.000 C 
BRANCH  11  12
ATOM     12  C   UNL     1       5.072   4.594  18.679  0.00  0.00    +0.000 C 
ATOM     13  O   UNL     1       6.021   4.006  19.207  0.00  0.00    +0.000 OA
BRANCH  12  14
ATOM     14  C   UNL     1       3.748   3.909  18.631  0.00  0.00    +0.000 A 
ATOM     15  C   UNL     1       2.681   4.586  18.026  0.00  0.00    +0.000 A 
ATOM     16  C   UNL     1       1.415   4.006  17.987  0.00  0.00    +0.000 A 
ATOM     17  C   UNL     1       1.213   2.739  18.534  0.00  0.00    +0.000 A 
ATOM     18  C   UNL     1       2.277   2.051  19.113  0.00  0.00    +0.000 A 
ATOM     19  C   UNL     1       3.547   2.632  19.165  0.00  0.00    +0.000 A 
ENDBRANCH  12  14
ENDBRANCH  11  12
ENDBRANCH   2  11
TORSDOF 3
ENDMDL
MODEL 5
REMARK VINA RESULT:      -7.6      1.933      6.648
REMARK  Name = 
REMARK  3 active torsions:
REMARK  status: ('A' for Active; 'I' for Inactive)
REMARK    1  A    between atoms: C_2  and  C_3
REMARK    2  A    between atoms: C_3  and  C_4
REMARK    3  A    between atoms: C_4  and  C_6
REMARK                            x       y       z     vdW  Elec       q    Type
REMARK                         _______ _______ _______ _____ _____    ______ ____
ROOT
ATOM      1  O   UNL     1       6.171   4.715  19.365  0.00  0.00    +0.000 OA
ATOM      2  C   UNL     1       5.950   4.308  18.223  0.00  0.00    +0.000 C 
ATOM      3  N   UNL     1       4.860   3.570  17.831  0.00  0.00    +0.000 N 
ATOM      4  C   UNL     1       3.721   3.337  18.612  0.00  0.00    +0.000 A 
ATOM      5  C   UNL     1       2.824   2.358  18.192  0.00  0.00    +0.000 A 
ATOM      6  C   UNL     1       1.651   2.157  18.924  0.00  0.00    +0.000 A 
ATOM      7  C   UNL     1       1.408   2.934  20.047  0.00  0.00    +0.000 A 
ATOM      8  C   UNL     1       2.362   3.871  20.402  0.00  0.00    +0.000 A 
ATOM      9  N   UNL     1       3.496   4.085  19.705  0.00  0.00    +0.000 NA
ATOM     10  H   UNL     1       4.885   3.143  16.906  0.00  0.00    +0.000 HD
ENDROOT
BRANCH   2  11
ATOM     11  C   UNL     1       6.981   4.625  17.155  0.00  0.00    +0.000 C 
BRANCH  11  12
ATOM     12  C   UNL     1       6.580   5.488  15.988  0.00  0.00    +0.000 C 
ATOM     13  O   UNL     1       6.164   6.643  16.121  0.00  0.00    +0.000 OA
BRANCH  12  14
ATOM     14  C   UNL     1       6.614   4.898  14.619  0.00  0.00    +0.000 A 
ATOM     15  C   UNL     1       7.632   5.313  13.750  0.00  0.00    +0.000 A 
ATOM     16  C   UNL     1       7.688   4.818  12.449  0.00  0.00    +0.000 A 
ATOM     17  C   UNL     1       6.740   3.893  12.014  0.00  0.00    +0.000 A 
ATOM     18  C   UNL     1       5.742   3.456  12.884  0.00  0.00    +0.000 A 
ATOM     19  C   UNL     1       5.674   3.956  14.186  0.00  0.00    +0.000 A 
ENDBRANCH  12  14
ENDBRANCH  11  12
ENDBRANCH   2  11
TORSDOF 3
ENDMDL
MODEL 6
REMARK VINA RESULT:      -7.6      1.184      1.341
REMARK  Name = 
REMARK  3 active torsions:
REMARK  status: ('A' for Active; 'I' for Inactive)
REMARK    1  A    between atoms: C_2  and  C_3
REMARK    2  A    between atoms: C_3  and  C_4
REMARK    3  A    between atoms: C_4  and  C_6
REMARK                            x       y       z     vdW  Elec       q    Type
REMARK                         _______ _______ _______ _____ _____    ______ ____
ROOT
ATOM      1  O   UNL     1       6.576   7.098  16.454  0.00  0.00    +0.000 OA
ATOM      2  C   UNL     1       5.886   6.118  16.745  0.00  0.00    +0.000 C 
ATOM      3  N   UNL     1       5.583   5.072  15.907  0.00  0.00    +0.000 N 
ATOM      4  C   UNL     1       6.177   4.841  14.660  0.00  0.00    +0.000 A 
ATOM      5  C   UNL     1       5.586   3.907  13.812  0.00  0.00    +0.000 A 
ATOM      6  C   UNL     1       6.199   3.617  12.592  0.00  0.00    +0.000 A 
ATOM      7  C   UNL     1       7.380   4.265  12.253  0.00  0.00    +0.000 A 
ATOM      8  C   UNL     1       7.887   5.191  13.146  0.00  0.00    +0.000 A 
ATOM      9  N   UNL     1       7.313   5.479  14.332  0.00  0.00    +0.000 NA
ATOM     10  H   UNL     1       4.860   4.420  16.206  0.00  0.00    +0.000 HD
ENDROOT
BRANCH   2  11
ATOM     11  C   UNL     1       5.294   6.068  18.141  0.00  0.00    +0.000 C 
BRANCH  11  12
ATOM     12  C   UNL     1       4.998   4.728  18.761  0.00  0.00    +0.000 C 
ATOM     13  O   UNL     1       5.881   3.914  19.047  0.00  0.00    +0.000 OA
BRANCH  12  14
ATOM     14  C   UNL     1       3.574   4.336  18.967  0.00  0.00    +0.000 A 
ATOM     15  C   UNL     1       3.149   4.074  20.276  0.00  0.00    +0.000 A 
ATOM     16  C   UNL     1       1.838   3.670  20.519  0.00  0.00    +0.000 A 
ATOM     17  C   UNL     1       0.941   3.544  19.460  0.00  0.00    +0.000 A 
ATOM     18  C   UNL     1       1.352   3.830  18.159  0.00  0.00    +0.000 A 
ATOM     19  C   UNL     1       2.668   4.225  17.907  0.00  0.00    +0.000 A 
ENDBRANCH  12  14
ENDBRANCH  11  12
ENDBRANCH   2  11
TORSDOF 3
ENDMDL
MODEL 7
REMARK VINA RESULT:      -7.6      1.879      6.631
REMARK  Name = 
REMARK  3 active torsions:
REMARK  status: ('A' for Active; 'I' for Inactive)
REMARK    1  A    between atoms: C_2  and  C_3
REMARK    2  A    between atoms: C_3  and  C_4
REMARK    3  A    between atoms: C_4  and  C_6
REMARK                            x       y       z     vdW  Elec       q    Type
REMARK                         _______ _______ _______ _____ _____    ______ ____
ROOT
ATOM      1  O   UNL     1       6.042   4.537  19.332  0.00  0.00    +0.000 OA
ATOM      2  C   UNL     1       5.819   4.230  18.159  0.00  0.00    +0.000 C 
ATOM      3  N   UNL     1       4.695   3.588  17.697  0.00  0.00    +0.000 N 
ATOM      4  C   UNL     1       3.530   3.365  18.443  0.00  0.00    +0.000 A 
ATOM      5  C   UNL     1       2.586   2.474  17.938  0.00  0.00    +0.000 A 
ATOM      6  C   UNL     1       1.391   2.288  18.636  0.00  0.00    +0.000 A 
ATOM      7  C   UNL     1       1.173   2.994  19.811  0.00  0.00    +0.000 A 
ATOM      8  C   UNL     1       2.172   3.844  20.248  0.00  0.00    +0.000 A 
ATOM      9  N   UNL     1       3.329   4.042  19.586  0.00  0.00    +0.000 NA
ATOM     10  H   UNL     1       4.713   3.230  16.744  0.00  0.00    +0.000 HD
ENDROOT
BRANCH   2  11
ATOM     11  C   UNL     1       6.886   4.564  17.133  0.00  0.00    +0.000 C 
BRANCH  11  12
ATOM     12  C   UNL     1       6.534   5.472  15.984  0.00  0.00    +0.000 C 
ATOM     13  O   UNL     1       6.123   6.625  16.145  0.00  0.00    +0.000 OA
BRANCH  12  14
ATOM     14  C   UNL     1       6.613   4.932  14.597  0.00  0.00    +0.000 A 
ATOM     15  C   UNL     1       5.636   4.013  14.194  0.00  0.00    +0.000 A 
ATOM     16  C   UNL     1       5.684   3.451  12.920  0.00  0.00    +0.000 A 
ATOM     17  C   UNL     1       6.696   3.819  12.035  0.00  0.00    +0.000 A 
ATOM     18  C   UNL     1       7.655   4.755  12.421  0.00  0.00    +0.000 A 
ATOM     19  C   UNL     1       7.619   5.313  13.701  0.00  0.00    +0.000 A 
ENDBRANCH  12  14
ENDBRANCH  11  12
ENDBRANCH   2  11
TORSDOF 3
ENDMDL
MODEL 8
REMARK VINA RESULT:      -7.5      1.677      6.835
REMARK  Name = 
REMARK  3 active torsions:
REMARK  status: ('A' for Active; 'I' for Inactive)
REMARK    1  A    between atoms: C_2  and  C_3
REMARK    2  A    between atoms: C_3  and  C_4
REMARK    3  A    between atoms: C_4  and  C_6
REMARK                            x       y       z     vdW  Elec       q    Type
REMARK                         _______ _______ _______ _____ _____    ______ ____
ROOT
ATOM      1  O   UNL     1       5.212   5.686  18.641  0.00  0.00    +0.000 OA
ATOM      2  C   UNL     1       4.552   5.523  17.612  0.00  0.00    +0.000 C 
ATOM      3  N   UNL     1       3.388   4.800  17.513  0.00  0.00    +0.000 N 
ATOM      4  C   UNL     1       2.649   4.308  18.596  0.00  0.00    +0.000 A 
ATOM      5  C   UNL     1       1.649   3.373  18.341  0.00  0.00    +0.000 A 
ATOM      6  C   UNL     1       0.860   2.919  19.400  0.00  0.00    +0.000 A 
ATOM      7  C   UNL     1       1.091   3.409  20.678  0.00  0.00    +0.000 A 
ATOM      8  C   UNL     1       2.116   4.322  20.844  0.00  0.00    +0.000 A 
ATOM      9  N   UNL     1       2.884   4.777  19.833  0.00  0.00    +0.000 NA
ATOM     10  H   UNL     1       3.040   4.589  16.579  0.00  0.00    +0.000 HD
ENDROOT
BRANCH   2  11
ATOM     11  C   UNL     1       5.078   6.151  16.335  0.00  0.00    +0.000 C 
BRANCH  11  12
ATOM     12  C   UNL     1       6.418   5.712  15.805  0.00  0.00    +0.000 C 
ATOM     13  O   UNL     1       7.482   5.990  16.365  0.00  0.00    +0.000 OA
BRANCH  12  14
ATOM     14  C   UNL     1       6.467   4.977  14.509  0.00  0.00    +0.000 A 
ATOM     15  C   UNL     1       7.532   5.248  13.641  0.00  0.00    +0.000 A 
ATOM     16  C   UNL     1       7.605   4.614  12.402  0.00  0.00    +0.000 A 
ATOM     17  C   UNL     1       6.627   3.693  12.032  0.00  0.00    +0.000 A 
ATOM     18  C   UNL     1       5.580   3.400  12.904  0.00  0.00    +0.000 A 
ATOM     19  C   UNL     1       5.494   4.040  14.143  0.00  0.00    +0.000 A 
ENDBRANCH  12  14
ENDBRANCH  11  12
ENDBRANCH   2  11
TORSDOF 3
ENDMDL
MODEL 9
REMARK VINA RESULT:      -7.4      1.923      6.902
REMARK  Name = 
REMARK  3 active torsions:
REMARK  status: ('A' for Active; 'I' for Inactive)
REMARK    1  A    between atoms: C_2  and  C_3
REMARK    2  A    between atoms: C_3  and  C_4
REMARK    3  A    between atoms: C_4  and  C_6
REMARK                            x       y       z     vdW  Elec       q    Type
REMARK                         _______ _______ _______ _____ _____    ______ ____
ROOT
ATOM      1  O   UNL     1       5.586   4.241  18.078  0.00  0.00    +0.000 OA
ATOM      2  C   UNL     1       4.697   4.801  17.432  0.00  0.00    +0.000 C 
ATOM      3  N   UNL     1       3.346   4.620  17.603  0.00  0.00    +0.000 N 
ATOM      4  C   UNL     1       2.753   3.937  18.672  0.00  0.00    +0.000 A 
ATOM      5  C   UNL     1       1.404   3.604  18.573  0.00  0.00    +0.000 A 
ATOM      6  C   UNL     1       0.780   2.979  19.655  0.00  0.00    +0.000 A 
ATOM      7  C   UNL     1       1.516   2.704  20.799  0.00  0.00    +0.000 A 
ATOM      8  C   UNL     1       2.854   3.053  20.804  0.00  0.00    +0.000 A 
ATOM      9  N   UNL     1       3.473   3.663  19.773  0.00  0.00    +0.000 NA
ATOM     10  H   UNL     1       2.724   4.999  16.891  0.00  0.00    +0.000 HD
ENDROOT
BRANCH   2  11
ATOM     11  C   UNL     1       5.126   5.755  16.333  0.00  0.00    +0.000 C 
BRANCH  11  12
ATOM     12  C   UNL     1       6.469   5.560  15.681  0.00  0.00    +0.000 C 
ATOM     13  O   UNL     1       7.519   5.982  16.174  0.00  0.00    +0.000 OA
BRANCH  12  14
ATOM     14  C   UNL     1       6.525   4.897  14.346  0.00  0.00    +0.000 A 
ATOM     15  C   UNL     1       5.499   4.003  14.014  0.00  0.00    +0.000 A 
ATOM     16  C   UNL     1       5.522   3.331  12.794  0.00  0.00    +0.000 A 
ATOM     17  C   UNL     1       6.560   3.562  11.892  0.00  0.00    +0.000 A 
ATOM     18  C   UNL     1       7.568   4.472  12.206  0.00  0.00    +0.000 A 
ATOM     19  C   UNL     1       7.557   5.140  13.433  0.00  0.00    +0.000 A 
ENDBRANCH  12  14
ENDBRANCH  11  12
ENDBRANCH   2  11
TORSDOF 3
ENDMDL
