MODEL 1
REMARK VINA RESULT:      -6.6      0.000      0.000
REMARK  Name = 
REMARK  14 active torsions:
REMARK  status: ('A' for Active; 'I' for Inactive)
REMARK    1  A    between atoms: C_2  and  C_3
REMARK    2  A    between atoms: C_3  and  C_4
REMARK    3  A    between atoms: C_4  and  N_5
REMARK    4  A    between atoms: N_5  and  C_6
REMARK    5  A    between atoms: C_6  and  C_7
REMARK    6  A    between atoms: C_7  and  O_8
REMARK    7  A    between atoms: N_9  and  C_10
REMARK    8  A    between atoms: C_20  and  N_21
REMARK    9  A    between atoms: C_22  and  C_24
REMARK   10  A    between atoms: C_24  and  C_25
REMARK   11  A    between atoms: C_25  and  N_26
REMARK   12  A    between atoms: N_26  and  C_27
REMARK   13  A    between atoms: C_27  and  C_28
REMARK   14  A    between atoms: C_28  and  O_29
REMARK                            x       y       z     vdW  Elec       q    Type
REMARK                         _______ _______ _______ _____ _____    ______ ____
ROOT
ATOM      1  C   UNL     1       2.319   7.767  18.683  0.00  0.00    +0.000 A 
ATOM      2  C   UNL     1       1.745   8.658  17.741  0.00  0.00    +0.000 A 
ATOM      3  C   UNL     1       0.856   9.681  18.122  0.00  0.00    +0.000 A 
ATOM      4  C   UNL     1       0.541   9.809  19.457  0.00  0.00    +0.000 A 
ATOM      5  C   UNL     1       1.113   8.905  20.369  0.00  0.00    +0.000 A 
ATOM      6  C   UNL     1       1.982   7.887  20.027  0.00  0.00    +0.000 A 
ATOM      7  C   UNL     1       0.639   9.261  21.714  0.00  0.00    +0.000 C 
ATOM      8  O   UNL     1       0.921   8.690  22.743  0.00  0.00    +0.000 OA
ATOM      9  C   UNL     1      -0.232  10.439  21.544  0.00  0.00    +0.000 A 
ATOM     10  C   UNL     1      -0.870  11.157  22.530  0.00  0.00    +0.000 A 
ATOM     11  C   UNL     1      -1.613  12.272  22.150  0.00  0.00    +0.000 A 
ATOM     12  C   UNL     1      -1.713  12.593  20.771  0.00  0.00    +0.000 A 
ATOM     13  C   UNL     1      -1.053  11.836  19.781  0.00  0.00    +0.000 A 
ATOM     14  C   UNL     1      -0.289  10.753  20.179  0.00  0.00    +0.000 A 
ENDROOT
BRANCH   1  17
ATOM     15  O   UNL     1       1.711   5.098  17.643  0.00  0.00    +0.000 OA
ATOM     16  C   UNL     1       2.849   5.458  17.914  0.00  0.00    +0.000 C 
ATOM     17  N   UNL     1       3.211   6.728  18.337  0.00  0.00    +0.000 N 
ATOM     18  H   UNL     1       4.201   6.950  18.334  0.00  0.00    +0.000 HD
BRANCH  16  19
ATOM     19  C   UNL     1       4.032   4.509  17.816  0.00  0.00    +0.000 C 
BRANCH  19  20
ATOM     20  C   UNL     1       4.173   3.709  19.113  0.00  0.00    +0.000 C 
BRANCH  20  21
ATOM     21  N   UNL     1       2.895   3.643  19.837  0.00  0.00    +0.000 NA
ATOM     22  H   UNL     1       2.200   3.205  19.231  0.00  0.00    +0.000 HD
BRANCH  21  23
ATOM     23  C   UNL     1       3.037   2.781  21.026  0.00  0.00    +0.000 C 
BRANCH  23  24
ATOM     24  C   UNL     1       1.680   2.555  21.699  0.00  0.00    +0.000 C 
BRANCH  24  25
ATOM     25  O   UNL     1       0.621   3.049  20.879  0.00  0.00    +0.000 OA
ATOM     26  H   UNL     1      -0.120   2.431  21.002  0.00  0.00    +0.000 HD
ENDBRANCH  24  25
ENDBRANCH  23  24
ENDBRANCH  21  23
ENDBRANCH  20  21
ENDBRANCH  19  20
ENDBRANCH  16  19
ENDBRANCH   1  17
BRANCH  11  27
ATOM     27  N   UNL     1      -2.260  13.106  23.094  0.00  0.00    +0.000 N 
ATOM     28  C   UNL     1      -1.689  14.197  23.736  0.00  0.00    +0.000 C 
ATOM     29  O   UNL     1      -0.535  14.596  23.612  0.00  0.00    +0.000 OA
ATOM     30  H   UNL     1      -3.238  12.915  23.274  0.00  0.00    +0.000 HD
BRANCH  28  31
ATOM     31  C   UNL     1      -2.605  14.891  24.716  0.00  0.00    +0.000 C 
BRANCH  31  32
ATOM     32  C   UNL     1      -3.934  15.156  24.024  0.00  0.00    +0.000 C 
BRANCH  32  33
ATOM     33  N   UNL     1      -4.955  14.201  24.468  0.00  0.00    +0.000 NA
ATOM     34  H   UNL     1      -5.300  14.482  25.385  0.00  0.00    +0.000 HD
BRANCH  33  35
ATOM     35  C   UNL     1      -6.082  14.206  23.519  0.00  0.00    +0.000 C 
BRANCH  35  36
ATOM     36  C   UNL     1      -5.662  13.660  22.152  0.00  0.00    +0.000 C 
BRANCH  36  37
ATOM     37  O   UNL     1      -5.117  12.349  22.288  0.00  0.00    +0.000 OA
ATOM     38  H   UNL     1      -5.020  12.010  21.382  0.00  0.00    +0.000 HD
ENDBRANCH  36  37
ENDBRANCH  35  36
ENDBRANCH  33  35
ENDBRANCH  32  33
ENDBRANCH  31  32
ENDBRANCH  28  31
ENDBRANCH  11  27
TORSDOF 14
ENDMDL
MODEL 2
REMARK VINA RESULT:      -6.6      1.939      2.685
REMARK  Name = 
REMARK  14 active torsions:
REMARK  status: ('A' for Active; 'I' for Inactive)
REMARK    1  A    between atoms: C_2  and  C_3
REMARK    2  A    between atoms: C_3  and  C_4
REMARK    3  A    between atoms: C_4  and  N_5
REMARK    4  A    between atoms: N_5  and  C_6
REMARK    5  A    between atoms: C_6  and  C_7
REMARK    6  A    between atoms: C_7  and  O_8
REMARK    7  A    between atoms: N_9  and  C_10
REMARK    8  A    between atoms: C_20  and  N_21
REMARK    9  A    between atoms: C_22  and  C_24
REMARK   10  A    between atoms: C_24  and  C_25
REMARK   11  A    between atoms: C_25  and  N_26
REMARK   12  A    between atoms: N_26  and  C_27
REMARK   13  A    between atoms: C_27  and  C_28
REMARK   14  A    between atoms: C_28  and  O_29
REMARK                            x       y       z     vdW  Elec       q    Type
REMARK                         _______ _______ _______ _____ _____    ______ ____
ROOT
ATOM      1  C   UNL     1       2.422   7.278  19.233  0.00  0.00    +0.000 A 
ATOM      2  C   UNL     1       2.248   8.061  18.064  0.00  0.00    +0.000 A 
ATOM      3  C   UNL     1       1.455   9.225  18.053  0.00  0.00    +0.000 A 
ATOM      4  C   UNL     1       0.834   9.604  19.223  0.00  0.00    +0.000 A 
ATOM      5  C   UNL     1       1.012   8.803  20.365  0.00  0.00    +0.000 A 
ATOM      6  C   UNL     1       1.776   7.653  20.407  0.00  0.00    +0.000 A 
ATOM      7  C   UNL     1       0.271   9.425  21.472  0.00  0.00    +0.000 C 
ATOM      8  O   UNL     1       0.192   9.002  22.602  0.00  0.00    +0.000 OA
ATOM      9  C   UNL     1      -0.340  10.648  20.919  0.00  0.00    +0.000 A 
ATOM     10  C   UNL     1      -1.092  11.584  21.594  0.00  0.00    +0.000 A 
ATOM     11  C   UNL     1      -1.537  12.697  20.884  0.00  0.00    +0.000 A 
ATOM     12  C   UNL     1      -1.234  12.798  19.502  0.00  0.00    +0.000 A 
ATOM     13  C   UNL     1      -0.465  11.820  18.836  0.00  0.00    +0.000 A 
ATOM     14  C   UNL     1      -0.000  10.740  19.563  0.00  0.00    +0.000 A 
ENDROOT
BRANCH   1  17
ATOM     15  O   UNL     1       1.541   4.487  19.316  0.00  0.00    +0.000 OA
ATOM     16  C   UNL     1       2.719   4.810  19.390  0.00  0.00    +0.000 C 
ATOM     17  N   UNL     1       3.206   6.104  19.281  0.00  0.00    +0.000 N 
ATOM     18  H   UNL     1       4.207   6.211  19.159  0.00  0.00    +0.000 HD
BRANCH  16  19
ATOM     19  C   UNL     1       3.816   3.784  19.622  0.00  0.00    +0.000 C 
BRANCH  19  20
ATOM     20  C   UNL     1       4.839   3.843  18.485  0.00  0.00    +0.000 C 
BRANCH  20  21
ATOM     21  N   UNL     1       6.177   4.180  18.992  0.00  0.00    +0.000 NA
ATOM     22  H   UNL     1       6.812   3.413  18.767  0.00  0.00    +0.000 HD
BRANCH  21  23
ATOM     23  C   UNL     1       6.686   5.380  18.302  0.00  0.00    +0.000 C 
BRANCH  23  24
ATOM     24  C   UNL     1       7.872   5.981  19.063  0.00  0.00    +0.000 C 
BRANCH  24  25
ATOM     25  O   UNL     1       7.939   5.460  20.389  0.00  0.00    +0.000 OA
ATOM     26  H   UNL     1       7.196   5.864  20.871  0.00  0.00    +0.000 HD
ENDBRANCH  24  25
ENDBRANCH  23  24
ENDBRANCH  21  23
ENDBRANCH  20  21
ENDBRANCH  19  20
ENDBRANCH  16  19
ENDBRANCH   1  17
BRANCH  11  27
ATOM     27  N   UNL     1      -2.270  13.741  21.500  0.00  0.00    +0.000 N 
ATOM     28  C   UNL     1      -3.610  13.686  21.861  0.00  0.00    +0.000 C 
ATOM     29  O   UNL     1      -4.377  12.744  21.683  0.00  0.00    +0.000 OA
ATOM     30  H   UNL     1      -1.754  14.579  21.741  0.00  0.00    +0.000 HD
BRANCH  28  31
ATOM     31  C   UNL     1      -4.141  14.958  22.478  0.00  0.00    +0.000 C 
BRANCH  31  32
ATOM     32  C   UNL     1      -4.425  14.694  23.950  0.00  0.00    +0.000 C 
BRANCH  32  33
ATOM     33  N   UNL     1      -5.740  15.221  24.332  0.00  0.00    +0.000 NA
ATOM     34  H   UNL     1      -5.758  16.227  24.166  0.00  0.00    +0.000 HD
BRANCH  33  35
ATOM     35  C   UNL     1      -6.784  14.589  23.506  0.00  0.00    +0.000 C 
BRANCH  35  36
ATOM     36  C   UNL     1      -7.269  13.277  24.129  0.00  0.00    +0.000 C 
BRANCH  36  37
ATOM     37  O   UNL     1      -6.722  12.164  23.426  0.00  0.00    +0.000 OA
ATOM     38  H   UNL     1      -6.290  11.614  24.102  0.00  0.00    +0.000 HD
ENDBRANCH  36  37
ENDBRANCH  35  36
ENDBRANCH  33  35
ENDBRANCH  32  33
ENDBRANCH  31  32
ENDBRANCH  28  31
ENDBRANCH  11  27
TORSDOF 14
ENDMDL
MODEL 3
REMARK VINA RESULT:      -6.5      1.991      2.557
REMARK  Name = 
REMARK  14 active torsions:
REMARK  status: ('A' for Active; 'I' for Inactive)
REMARK    1  A    between atoms: C_2  and  C_3
REMARK    2  A    between atoms: C_3  and  C_4
REMARK    3  A    between atoms: C_4  and  N_5
REMARK    4  A    between atoms: N_5  and  C_6
REMARK    5  A    between atoms: C_6  and  C_7
REMARK    6  A    between atoms: C_7  and  O_8
REMARK    7  A    between atoms: N_9  and  C_10
REMARK    8  A    between atoms: C_20  and  N_21
REMARK    9  A    between atoms: C_22  and  C_24
REMARK   10  A    between atoms: C_24  and  C_25
REMARK   11  A    between atoms: C_25  and  N_26
REMARK   12  A    between atoms: N_26  and  C_27
REMARK   13  A    between atoms: C_27  and  C_28
REMARK   14  A    between atoms: C_28  and  O_29
REMARK                            x       y       z     vdW  Elec       q    Type
REMARK                         _______ _______ _______ _____ _____    ______ ____
ROOT
ATOM      1  C   UNL     1       2.594   6.846  18.673  0.00  0.00    +0.000 A 
ATOM      2  C   UNL     1       2.281   6.307  19.947  0.00  0.00    +0.000 A 
ATOM      3  C   UNL     1       1.573   7.041  20.918  0.00  0.00    +0.000 A 
ATOM      4  C   UNL     1       1.178   8.323  20.608  0.00  0.00    +0.000 A 
ATOM      5  C   UNL     1       1.511   8.839  19.344  0.00  0.00    +0.000 A 
ATOM      6  C   UNL     1       2.210   8.150  18.372  0.00  0.00    +0.000 A 
ATOM      7  C   UNL     1       0.966  10.202  19.255  0.00  0.00    +0.000 C 
ATOM      8  O   UNL     1       1.072  10.951  18.311  0.00  0.00    +0.000 OA
ATOM      9  C   UNL     1       0.277  10.452  20.534  0.00  0.00    +0.000 A 
ATOM     10  C   UNL     1      -0.427  11.578  20.899  0.00  0.00    +0.000 A 
ATOM     11  C   UNL     1      -1.044  11.586  22.148  0.00  0.00    +0.000 A 
ATOM     12  C   UNL     1      -0.889  10.462  22.999  0.00  0.00    +0.000 A 
ATOM     13  C   UNL     1      -0.157   9.323  22.601  0.00  0.00    +0.000 A 
ATOM     14  C   UNL     1       0.419   9.316  21.343  0.00  0.00    +0.000 A 
ENDROOT
BRANCH   1  17
ATOM     15  O   UNL     1       5.434   7.016  17.979  0.00  0.00    +0.000 OA
ATOM     16  C   UNL     1       4.641   6.324  17.354  0.00  0.00    +0.000 C 
ATOM     17  N   UNL     1       3.305   6.142  17.676  0.00  0.00    +0.000 N 
ATOM     18  H   UNL     1       2.813   5.394  17.200  0.00  0.00    +0.000 HD
BRANCH  16  19
ATOM     19  C   UNL     1       5.056   5.564  16.105  0.00  0.00    +0.000 C 
BRANCH  19  20
ATOM     20  C   UNL     1       4.897   4.059  16.329  0.00  0.00    +0.000 C 
BRANCH  20  21
ATOM     21  N   UNL     1       5.118   3.705  17.739  0.00  0.00    +0.000 NA
ATOM     22  H   UNL     1       5.070   4.557  18.299  0.00  0.00    +0.000 HD
BRANCH  21  23
ATOM     23  C   UNL     1       4.039   2.816  18.207  0.00  0.00    +0.000 C 
BRANCH  23  24
ATOM     24  C   UNL     1       4.157   2.565  19.713  0.00  0.00    +0.000 C 
BRANCH  24  25
ATOM     25  O   UNL     1       5.172   1.600  19.986  0.00  0.00    +0.000 OA
ATOM     26  H   UNL     1       5.997   2.105  20.094  0.00  0.00    +0.000 HD
ENDBRANCH  24  25
ENDBRANCH  23  24
ENDBRANCH  21  23
ENDBRANCH  20  21
ENDBRANCH  19  20
ENDBRANCH  16  19
ENDBRANCH   1  17
BRANCH  11  27
ATOM     27  N   UNL     1      -1.834  12.675  22.591  0.00  0.00    +0.000 N 
ATOM     28  C   UNL     1      -1.362  13.806  23.244  0.00  0.00    +0.000 C 
ATOM     29  O   UNL     1      -0.199  14.032  23.564  0.00  0.00    +0.000 OA
ATOM     30  H   UNL     1      -2.821  12.641  22.365  0.00  0.00    +0.000 HD
BRANCH  28  31
ATOM     31  C   UNL     1      -2.435  14.797  23.627  0.00  0.00    +0.000 C 
BRANCH  31  32
ATOM     32  C   UNL     1      -2.957  14.428  25.008  0.00  0.00    +0.000 C 
BRANCH  32  33
ATOM     33  N   UNL     1      -4.263  13.765  24.914  0.00  0.00    +0.000 NA
ATOM     34  H   UNL     1      -4.818  14.002  25.736  0.00  0.00    +0.000 HD
BRANCH  33  35
ATOM     35  C   UNL     1      -4.972  14.241  23.714  0.00  0.00    +0.000 C 
BRANCH  35  36
ATOM     36  C   UNL     1      -6.263  13.452  23.479  0.00  0.00    +0.000 C 
BRANCH  36  37
ATOM     37  O   UNL     1      -7.039  13.404  24.675  0.00  0.00    +0.000 OA
ATOM     38  H   UNL     1      -6.963  12.491  25.000  0.00  0.00    +0.000 HD
ENDBRANCH  36  37
ENDBRANCH  35  36
ENDBRANCH  33  35
ENDBRANCH  32  33
ENDBRANCH  31  32
ENDBRANCH  28  31
ENDBRANCH  11  27
TORSDOF 14
ENDMDL
MODEL 4
REMARK VINA RESULT:      -6.4      2.114     10.699
REMARK  Name = 
REMARK  14 active torsions:
REMARK  status: ('A' for Active; 'I' for Inactive)
REMARK    1  A    between atoms: C_2  and  C_3
REMARK    2  A    between atoms: C_3  and  C_4
REMARK    3  A    between atoms: C_4  and  N_5
REMARK    4  A    between atoms: N_5  and  C_6
REMARK    5  A    between atoms: C_6  and  C_7
REMARK    6  A    between atoms: C_7  and  O_8
REMARK    7  A    between atoms: N_9  and  C_10
REMARK    8  A    between atoms: C_20  and  N_21
REMARK    9  A    between atoms: C_22  and  C_24
REMARK   10  A    between atoms: C_24  and  C_25
REMARK   11  A    between atoms: C_25  and  N_26
REMARK   12  A    between atoms: N_26  and  C_27
REMARK   13  A    between atoms: C_27  and  C_28
REMARK   14  A    between atoms: C_28  and  O_29
REMARK                            x       y       z     vdW  Elec       q    Type
REMARK                         _______ _______ _______ _____ _____    ______ ____
ROOT
ATOM      1  C   UNL     1      -1.029  11.585  22.467  0.00  0.00    +0.000 A 
ATOM      2  C   UNL     1      -0.915  10.383  23.210  0.00  0.00    +0.000 A 
ATOM      3  C   UNL     1      -0.235   9.255  22.711  0.00  0.00    +0.000 A 
ATOM      4  C   UNL     1       0.334   9.336  21.459  0.00  0.00    +0.000 A 
ATOM      5  C   UNL     1       0.196  10.535  20.738  0.00  0.00    +0.000 A 
ATOM      6  C   UNL     1      -0.470  11.655  21.194  0.00  0.00    +0.000 A 
ATOM      7  C   UNL     1       0.899  10.374  19.457  0.00  0.00    +0.000 C 
ATOM      8  O   UNL     1       0.979  11.203  18.579  0.00  0.00    +0.000 OA
ATOM      9  C   UNL     1       1.475   9.016  19.473  0.00  0.00    +0.000 A 
ATOM     10  C   UNL     1       2.259   8.429  18.505  0.00  0.00    +0.000 A 
ATOM     11  C   UNL     1       2.739   7.144  18.745  0.00  0.00    +0.000 A 
ATOM     12  C   UNL     1       2.368   6.484  19.946  0.00  0.00    +0.000 A 
ATOM     13  C   UNL     1       1.557   7.109  20.918  0.00  0.00    +0.000 A 
ATOM     14  C   UNL     1       1.120   8.399  20.680  0.00  0.00    +0.000 A 
ENDROOT
BRANCH   1  17
ATOM     15  O   UNL     1       0.016  14.289  22.883  0.00  0.00    +0.000 OA
ATOM     16  C   UNL     1      -1.130  13.971  23.173  0.00  0.00    +0.000 C 
ATOM     17  N   UNL     1      -1.707  12.734  22.932  0.00  0.00    +0.000 N 
ATOM     18  H   UNL     1      -2.713  12.666  23.037  0.00  0.00    +0.000 HD
BRANCH  16  19
ATOM     19  C   UNL     1      -2.078  14.941  23.860  0.00  0.00    +0.000 C 
BRANCH  19  20
ATOM     20  C   UNL     1      -3.495  14.769  23.310  0.00  0.00    +0.000 C 
BRANCH  20  21
ATOM     21  N   UNL     1      -4.383  14.160  24.311  0.00  0.00    +0.000 NA
ATOM     22  H   UNL     1      -4.482  14.807  25.094  0.00  0.00    +0.000 HD
BRANCH  21  23
ATOM     23  C   UNL     1      -5.728  13.967  23.736  0.00  0.00    +0.000 C 
BRANCH  23  24
ATOM     24  C   UNL     1      -6.272  12.578  24.082  0.00  0.00    +0.000 C 
BRANCH  24  25
ATOM     25  O   UNL     1      -5.287  11.805  24.766  0.00  0.00    +0.000 OA
ATOM     26  H   UNL     1      -4.667  11.498  24.081  0.00  0.00    +0.000 HD
ENDBRANCH  24  25
ENDBRANCH  23  24
ENDBRANCH  21  23
ENDBRANCH  20  21
ENDBRANCH  19  20
ENDBRANCH  16  19
ENDBRANCH   1  17
BRANCH  11  27
ATOM     27  N   UNL     1       3.597   6.477  17.837  0.00  0.00    +0.000 N 
ATOM     28  C   UNL     1       3.445   5.170  17.391  0.00  0.00    +0.000 C 
ATOM     29  O   UNL     1       2.568   4.380  17.727  0.00  0.00    +0.000 OA
ATOM     30  H   UNL     1       4.356   7.021  17.446  0.00  0.00    +0.000 HD
BRANCH  28  31
ATOM     31  C   UNL     1       4.527   4.708  16.444  0.00  0.00    +0.000 C 
BRANCH  31  32
ATOM     32  C   UNL     1       5.317   3.598  17.124  0.00  0.00    +0.000 C 
BRANCH  32  33
ATOM     33  N   UNL     1       6.062   4.118  18.276  0.00  0.00    +0.000 NA
ATOM     34  H   UNL     1       6.277   3.349  18.909  0.00  0.00    +0.000 HD
BRANCH  33  35
ATOM     35  C   UNL     1       7.327   4.717  17.816  0.00  0.00    +0.000 C 
BRANCH  35  36
ATOM     36  C   UNL     1       7.538   6.108  18.422  0.00  0.00    +0.000 C 
BRANCH  36  37
ATOM     37  O   UNL     1       8.222   6.006  19.669  0.00  0.00    +0.000 OA
ATOM     38  H   UNL     1       9.164   5.912  19.444  0.00  0.00    +0.000 HD
ENDBRANCH  36  37
ENDBRANCH  35  36
ENDBRANCH  33  35
ENDBRANCH  32  33
ENDBRANCH  31  32
ENDBRANCH  28  31
ENDBRANCH  11  27
TORSDOF 14
ENDMDL
MODEL 5
REMARK VINA RESULT:      -6.4      2.996      4.581
REMARK  Name = 
REMARK  14 active torsions:
REMARK  status: ('A' for Active; 'I' for Inactive)
REMARK    1  A    between atoms: C_2  and  C_3
REMARK    2  A    between atoms: C_3  and  C_4
REMARK    3  A    between atoms: C_4  and  N_5
REMARK    4  A    between atoms: N_5  and  C_6
REMARK    5  A    between atoms: C_6  and  C_7
REMARK    6  A    between atoms: C_7  and  O_8
REMARK    7  A    between atoms: N_9  and  C_10
REMARK    8  A    between atoms: C_20  and  N_21
REMARK    9  A    between atoms: C_22  and  C_24
REMARK   10  A    between atoms: C_24  and  C_25
REMARK   11  A    between atoms: C_25  and  N_26
REMARK   12  A    between atoms: N_26  and  C_27
REMARK   13  A    between atoms: C_27  and  C_28
REMARK   14  A    between atoms: C_28  and  O_29
REMARK                            x       y       z     vdW  Elec       q    Type
REMARK                         _______ _______ _______ _____ _____    ______ ____
ROOT
ATOM      1  C   UNL     1       3.489   5.977  17.992  0.00  0.00    +0.000 A 
ATOM      2  C   UNL     1       3.128   5.501  19.278  0.00  0.00    +0.000 A 
ATOM      3  C   UNL     1       2.373   6.276  20.180  0.00  0.00    +0.000 A 
ATOM      4  C   UNL     1       1.978   7.536  19.787  0.00  0.00    +0.000 A 
ATOM      5  C   UNL     1       2.360   7.989  18.512  0.00  0.00    +0.000 A 
ATOM      6  C   UNL     1       3.106   7.259  17.608  0.00  0.00    +0.000 A 
ATOM      7  C   UNL     1       1.806   9.339  18.329  0.00  0.00    +0.000 C 
ATOM      8  O   UNL     1       1.944  10.039  17.352  0.00  0.00    +0.000 OA
ATOM      9  C   UNL     1       1.060   9.646  19.564  0.00  0.00    +0.000 A 
ATOM     10  C   UNL     1       0.331  10.782  19.839  0.00  0.00    +0.000 A 
ATOM     11  C   UNL     1      -0.338  10.848  21.059  0.00  0.00    +0.000 A 
ATOM     12  C   UNL     1      -0.208   9.771  21.974  0.00  0.00    +0.000 A 
ATOM     13  C   UNL     1       0.551   8.622  21.667  0.00  0.00    +0.000 A 
ATOM     14  C   UNL     1       1.179   8.556  20.436  0.00  0.00    +0.000 A 
ENDROOT
BRANCH   1  17
ATOM     15  O   UNL     1       5.257   6.946  15.869  0.00  0.00    +0.000 OA
ATOM     16  C   UNL     1       5.013   5.757  16.035  0.00  0.00    +0.000 C 
ATOM     17  N   UNL     1       4.248   5.231  17.064  0.00  0.00    +0.000 N 
ATOM     18  H   UNL     1       4.290   4.227  17.203  0.00  0.00    +0.000 HD
BRANCH  16  19
ATOM     19  C   UNL     1       5.543   4.693  15.088  0.00  0.00    +0.000 C 
BRANCH  19  20
ATOM     20  C   UNL     1       6.985   4.335  15.455  0.00  0.00    +0.000 C 
BRANCH  20  21
ATOM     21  N   UNL     1       7.535   5.283  16.435  0.00  0.00    +0.000 NA
ATOM     22  H   UNL     1       6.864   6.040  16.566  0.00  0.00    +0.000 HD
BRANCH  21  23
ATOM     23  C   UNL     1       7.697   4.616  17.740  0.00  0.00    +0.000 C 
BRANCH  23  24
ATOM     24  C   UNL     1       7.624   5.634  18.883  0.00  0.00    +0.000 C 
BRANCH  24  25
ATOM     25  O   UNL     1       6.668   5.226  19.861  0.00  0.00    +0.000 OA
ATOM     26  H   UNL     1       5.970   5.903  19.849  0.00  0.00    +0.000 HD
ENDBRANCH  24  25
ENDBRANCH  23  24
ENDBRANCH  21  23
ENDBRANCH  20  21
ENDBRANCH  19  20
ENDBRANCH  16  19
ENDBRANCH   1  17
BRANCH  11  27
ATOM     27  N   UNL     1      -1.158  11.948  21.411  0.00  0.00    +0.000 N 
ATOM     28  C   UNL     1      -2.239  12.420  20.678  0.00  0.00    +0.000 C 
ATOM     29  O   UNL     1      -2.641  11.982  19.604  0.00  0.00    +0.000 OA
ATOM     30  H   UNL     1      -0.963  12.394  22.300  0.00  0.00    +0.000 HD
BRANCH  28  31
ATOM     31  C   UNL     1      -2.918  13.628  21.279  0.00  0.00    +0.000 C 
BRANCH  31  32
ATOM     32  C   UNL     1      -1.998  14.828  21.107  0.00  0.00    +0.000 C 
BRANCH  32  33
ATOM     33  N   UNL     1      -0.971  14.559  20.094  0.00  0.00    +0.000 NA
ATOM     34  H   UNL     1      -1.248  14.992  19.213  0.00  0.00    +0.000 HD
BRANCH  33  35
ATOM     35  C   UNL     1       0.311  15.145  20.524  0.00  0.00    +0.000 C 
BRANCH  35  36
ATOM     36  C   UNL     1       1.495  14.461  19.836  0.00  0.00    +0.000 C 
BRANCH  36  37
ATOM     37  O   UNL     1       1.760  15.076  18.577  0.00  0.00    +0.000 OA
ATOM     38  H   UNL     1       1.445  14.446  17.907  0.00  0.00    +0.000 HD
ENDBRANCH  36  37
ENDBRANCH  35  36
ENDBRANCH  33  35
ENDBRANCH  32  33
ENDBRANCH  31  32
ENDBRANCH  28  31
ENDBRANCH  11  27
TORSDOF 14
ENDMDL
MODEL 6
REMARK VINA RESULT:      -6.4      1.799      2.968
REMARK  Name = 
REMARK  14 active torsions:
REMARK  status: ('A' for Active; 'I' for Inactive)
REMARK    1  A    between atoms: C_2  and  C_3
REMARK    2  A    between atoms: C_3  and  C_4
REMARK    3  A    between atoms: C_4  and  N_5
REMARK    4  A    between atoms: N_5  and  C_6
REMARK    5  A    between atoms: C_6  and  C_7
REMARK    6  A    between atoms: C_7  and  O_8
REMARK    7  A    between atoms: N_9  and  C_10
REMARK    8  A    between atoms: C_20  and  N_21
REMARK    9  A    between atoms: C_22  and  C_24
REMARK   10  A    between atoms: C_24  and  C_25
REMARK   11  A    between atoms: C_25  and  N_26
REMARK   12  A    between atoms: N_26  and  C_27
REMARK   13  A    between atoms: C_27  and  C_28
REMARK   14  A    between atoms: C_28  and  O_29
REMARK                            x       y       z     vdW  Elec       q    Type
REMARK                         _______ _______ _______ _____ _____    ______ ____
ROOT
ATOM      1  C   UNL     1       2.396   7.481  19.137  0.00  0.00    +0.000 A 
ATOM      2  C   UNL     1       2.166   8.259  17.973  0.00  0.00    +0.000 A 
ATOM      3  C   UNL     1       1.313   9.380  17.977  0.00  0.00    +0.000 A 
ATOM      4  C   UNL     1       0.687   9.720  19.156  0.00  0.00    +0.000 A 
ATOM      5  C   UNL     1       0.921   8.926  20.292  0.00  0.00    +0.000 A 
ATOM      6  C   UNL     1       1.745   7.817  20.320  0.00  0.00    +0.000 A 
ATOM      7  C   UNL     1       0.161   9.503  21.410  0.00  0.00    +0.000 C 
ATOM      8  O   UNL     1       0.118   9.072  22.540  0.00  0.00    +0.000 OA
ATOM      9  C   UNL     1      -0.520  10.694  20.871  0.00  0.00    +0.000 A 
ATOM     10  C   UNL     1      -1.313  11.586  21.558  0.00  0.00    +0.000 A 
ATOM     11  C   UNL     1      -1.824  12.677  20.859  0.00  0.00    +0.000 A 
ATOM     12  C   UNL     1      -1.543  12.800  19.474  0.00  0.00    +0.000 A 
ATOM     13  C   UNL     1      -0.732  11.867  18.794  0.00  0.00    +0.000 A 
ATOM     14  C   UNL     1      -0.202  10.809  19.511  0.00  0.00    +0.000 A 
ENDROOT
BRANCH   1  17
ATOM     15  O   UNL     1       1.905   4.794  18.082  0.00  0.00    +0.000 OA
ATOM     16  C   UNL     1       2.915   5.083  18.711  0.00  0.00    +0.000 C 
ATOM     17  N   UNL     1       3.241   6.350  19.170  0.00  0.00    +0.000 N 
ATOM     18  H   UNL     1       4.190   6.492  19.497  0.00  0.00    +0.000 HD
BRANCH  16  19
ATOM     19  C   UNL     1       3.957   4.038  19.072  0.00  0.00    +0.000 C 
BRANCH  19  20
ATOM     20  C   UNL     1       5.060   4.008  18.012  0.00  0.00    +0.000 C 
BRANCH  20  21
ATOM     21  N   UNL     1       5.739   5.308  17.914  0.00  0.00    +0.000 NA
ATOM     22  H   UNL     1       5.888   5.668  18.857  0.00  0.00    +0.000 HD
BRANCH  21  23
ATOM     23  C   UNL     1       7.069   5.134  17.301  0.00  0.00    +0.000 C 
BRANCH  23  24
ATOM     24  C   UNL     1       6.945   4.546  15.893  0.00  0.00    +0.000 C 
BRANCH  24  25
ATOM     25  O   UNL     1       7.574   5.396  14.934  0.00  0.00    +0.000 OA
ATOM     26  H   UNL     1       7.525   4.921  14.086  0.00  0.00    +0.000 HD
ENDBRANCH  24  25
ENDBRANCH  23  24
ENDBRANCH  21  23
ENDBRANCH  20  21
ENDBRANCH  19  20
ENDBRANCH  16  19
ENDBRANCH   1  17
BRANCH  11  27
ATOM     27  N   UNL     1      -2.604  13.679  21.489  0.00  0.00    +0.000 N 
ATOM     28  C   UNL     1      -3.975  13.623  21.701  0.00  0.00    +0.000 C 
ATOM     29  O   UNL     1      -4.731  12.719  21.358  0.00  0.00    +0.000 OA
ATOM     30  H   UNL     1      -2.105  14.479  21.857  0.00  0.00    +0.000 HD
BRANCH  28  31
ATOM     31  C   UNL     1      -4.551  14.846  22.374  0.00  0.00    +0.000 C 
BRANCH  31  32
ATOM     32  C   UNL     1      -4.520  14.624  23.879  0.00  0.00    +0.000 C 
BRANCH  32  33
ATOM     33  N   UNL     1      -5.513  13.620  24.280  0.00  0.00    +0.000 NA
ATOM     34  H   UNL     1      -5.480  13.502  25.292  0.00  0.00    +0.000 HD
BRANCH  33  35
ATOM     35  C   UNL     1      -6.860  14.082  23.903  0.00  0.00    +0.000 C 
BRANCH  35  36
ATOM     36  C   UNL     1      -7.774  12.905  23.549  0.00  0.00    +0.000 C 
BRANCH  36  37
ATOM     37  O   UNL     1      -7.020  11.857  22.944  0.00  0.00    +0.000 OA
ATOM     38  H   UNL     1      -6.679  11.321  23.681  0.00  0.00    +0.000 HD
ENDBRANCH  36  37
ENDBRANCH  35  36
ENDBRANCH  33  35
ENDBRANCH  32  33
ENDBRANCH  31  32
ENDBRANCH  28  31
ENDBRANCH  11  27
TORSDOF 14
ENDMDL
MODEL 7
REMARK VINA RESULT:      -6.4      3.412      5.087
REMARK  Name = 
REMARK  14 active torsions:
REMARK  status: ('A' for Active; 'I' for Inactive)
REMARK    1  A    between atoms: C_2  and  C_3
REMARK    2  A    between atoms: C_3  and  C_4
REMARK    3  A    between atoms: C_4  and  N_5
REMARK    4  A    between atoms: N_5  and  C_6
REMARK    5  A    between atoms: C_6  and  C_7
REMARK    6  A    between atoms: C_7  and  O_8
REMARK    7  A    between atoms: N_9  and  C_10
REMARK    8  A    between atoms: C_20  and  N_21
REMARK    9  A    between atoms: C_22  and  C_24
REMARK   10  A    between atoms: C_24  and  C_25
REMARK   11  A    between atoms: C_25  and  N_26
REMARK   12  A    between atoms: N_26  and  C_27
REMARK   13  A    between atoms: C_27  and  C_28
REMARK   14  A    between atoms: C_28  and  O_29
REMARK                            x       y       z     vdW  Elec       q    Type
REMARK                         _______ _______ _______ _____ _____    ______ ____
ROOT
ATOM      1  C   UNL     1       4.300   5.750  17.624  0.00  0.00    +0.000 A 
ATOM      2  C   UNL     1       3.966   5.153  18.867  0.00  0.00    +0.000 A 
ATOM      3  C   UNL     1       3.109   5.779  19.793  0.00  0.00    +0.000 A 
ATOM      4  C   UNL     1       2.585   7.011  19.468  0.00  0.00    +0.000 A 
ATOM      5  C   UNL     1       2.942   7.587  18.237  0.00  0.00    +0.000 A 
ATOM      6  C   UNL     1       3.784   7.004  17.310  0.00  0.00    +0.000 A 
ATOM      7  C   UNL     1       2.244   8.876  18.123  0.00  0.00    +0.000 C 
ATOM      8  O   UNL     1       2.325   9.650  17.197  0.00  0.00    +0.000 OA
ATOM      9  C   UNL     1       1.442   9.018  19.352  0.00  0.00    +0.000 A 
ATOM     10  C   UNL     1       0.585  10.046  19.677  0.00  0.00    +0.000 A 
ATOM     11  C   UNL     1      -0.114   9.958  20.878  0.00  0.00    +0.000 A 
ATOM     12  C   UNL     1       0.115   8.844  21.727  0.00  0.00    +0.000 A 
ATOM     13  C   UNL     1       1.004   7.808  21.371  0.00  0.00    +0.000 A 
ATOM     14  C   UNL     1       1.663   7.893  20.157  0.00  0.00    +0.000 A 
ENDROOT
BRANCH   1  17
ATOM     15  O   UNL     1       7.147   6.248  17.157  0.00  0.00    +0.000 OA
ATOM     16  C   UNL     1       6.486   5.490  16.460  0.00  0.00    +0.000 C 
ATOM     17  N   UNL     1       5.158   5.155  16.673  0.00  0.00    +0.000 N 
ATOM     18  H   UNL     1       4.789   4.370  16.147  0.00  0.00    +0.000 HD
BRANCH  16  19
ATOM     19  C   UNL     1       7.076   4.813  15.233  0.00  0.00    +0.000 C 
BRANCH  19  20
ATOM     20  C   UNL     1       6.155   3.685  14.762  0.00  0.00    +0.000 C 
BRANCH  20  21
ATOM     21  N   UNL     1       5.481   4.040  13.504  0.00  0.00    +0.000 NA
ATOM     22  H   UNL     1       5.474   5.056  13.415  0.00  0.00    +0.000 HD
BRANCH  21  23
ATOM     23  C   UNL     1       6.246   3.510  12.360  0.00  0.00    +0.000 C 
BRANCH  23  24
ATOM     24  C   UNL     1       5.414   2.491  11.576  0.00  0.00    +0.000 C 
BRANCH  24  25
ATOM     25  O   UNL     1       6.004   1.194  11.650  0.00  0.00    +0.000 OA
ATOM     26  H   UNL     1       5.342   0.626  12.082  0.00  0.00    +0.000 HD
ENDBRANCH  24  25
ENDBRANCH  23  24
ENDBRANCH  21  23
ENDBRANCH  20  21
ENDBRANCH  19  20
ENDBRANCH  16  19
ENDBRANCH   1  17
BRANCH  11  27
ATOM     27  N   UNL     1      -1.059  10.935  21.276  0.00  0.00    +0.000 N 
ATOM     28  C   UNL     1      -0.759  12.218  21.718  0.00  0.00    +0.000 C 
ATOM     29  O   UNL     1       0.361  12.698  21.861  0.00  0.00    +0.000 OA
ATOM     30  H   UNL     1      -2.036  10.689  21.179  0.00  0.00    +0.000 HD
BRANCH  28  31
ATOM     31  C   UNL     1      -1.967  13.040  22.102  0.00  0.00    +0.000 C 
BRANCH  31  32
ATOM     32  C   UNL     1      -2.738  13.379  20.834  0.00  0.00    +0.000 C 
BRANCH  32  33
ATOM     33  N   UNL     1      -3.809  12.405  20.597  0.00  0.00    +0.000 NA
ATOM     34  H   UNL     1      -4.674  12.752  21.012  0.00  0.00    +0.000 HD
BRANCH  33  35
ATOM     35  C   UNL     1      -4.016  12.242  19.147  0.00  0.00    +0.000 C 
BRANCH  35  36
ATOM     36  C   UNL     1      -2.726  11.806  18.447  0.00  0.00    +0.000 C 
BRANCH  36  37
ATOM     37  O   UNL     1      -2.764  10.408  18.164  0.00  0.00    +0.000 OA
ATOM     38  H   UNL     1      -3.699  10.200  17.996  0.00  0.00    +0.000 HD
ENDBRANCH  36  37
ENDBRANCH  35  36
ENDBRANCH  33  35
ENDBRANCH  32  33
ENDBRANCH  31  32
ENDBRANCH  28  31
ENDBRANCH  11  27
TORSDOF 14
ENDMDL
MODEL 8
REMARK VINA RESULT:      -6.4      1.637      2.506
REMARK  Name = 
REMARK  14 active torsions:
REMARK  status: ('A' for Active; 'I' for Inactive)
REMARK    1  A    between atoms: C_2  and  C_3
REMARK    2  A    between atoms: C_3  and  C_4
REMARK    3  A    between atoms: C_4  and  N_5
REMARK    4  A    between atoms: N_5  and  C_6
REMARK    5  A    between atoms: C_6  and  C_7
REMARK    6  A    between atoms: C_7  and  O_8
REMARK    7  A    between atoms: N_9  and  C_10
REMARK    8  A    between atoms: C_20  and  N_21
REMARK    9  A    between atoms: C_22  and  C_24
REMARK   10  A    between atoms: C_24  and  C_25
REMARK   11  A    between atoms: C_25  and  N_26
REMARK   12  A    between atoms: N_26  and  C_27
REMARK   13  A    between atoms: C_27  and  C_28
REMARK   14  A    between atoms: C_28  and  O_29
REMARK                            x       y       z     vdW  Elec       q    Type
REMARK                         _______ _______ _______ _____ _____    ______ ____
ROOT
ATOM      1  C   UNL     1       2.502   7.412  18.735  0.00  0.00    +0.000 A 
ATOM      2  C   UNL     1       2.122   8.285  17.684  0.00  0.00    +0.000 A 
ATOM      3  C   UNL     1       1.329   9.427  17.908  0.00  0.00    +0.000 A 
ATOM      4  C   UNL     1       0.916   9.693  19.195  0.00  0.00    +0.000 A 
ATOM      5  C   UNL     1       1.295   8.805  20.217  0.00  0.00    +0.000 A 
ATOM      6  C   UNL     1       2.064   7.673  20.030  0.00  0.00    +0.000 A 
ATOM      7  C   UNL     1       0.750   9.315  21.483  0.00  0.00    +0.000 C 
ATOM      8  O   UNL     1       0.871   8.798  22.571  0.00  0.00    +0.000 OA
ATOM      9  C   UNL     1       0.043  10.566  21.151  0.00  0.00    +0.000 A 
ATOM     10  C   UNL     1      -0.590  11.424  22.022  0.00  0.00    +0.000 A 
ATOM     11  C   UNL     1      -1.160  12.582  21.497  0.00  0.00    +0.000 A 
ATOM     12  C   UNL     1      -1.101  12.805  20.097  0.00  0.00    +0.000 A 
ATOM     13  C   UNL     1      -0.450  11.903  19.228  0.00  0.00    +0.000 A 
ATOM     14  C   UNL     1       0.143  10.777  19.769  0.00  0.00    +0.000 A 
ENDROOT
BRANCH   1  17
ATOM     15  O   UNL     1       1.703   4.793  17.695  0.00  0.00    +0.000 OA
ATOM     16  C   UNL     1       2.831   5.022  18.114  0.00  0.00    +0.000 C 
ATOM     17  N   UNL     1       3.292   6.256  18.547  0.00  0.00    +0.000 N 
ATOM     18  H   UNL     1       4.293   6.355  18.677  0.00  0.00    +0.000 HD
BRANCH  16  19
ATOM     19  C   UNL     1       3.885   3.931  18.209  0.00  0.00    +0.000 C 
BRANCH  19  20
ATOM     20  C   UNL     1       5.082   4.428  19.023  0.00  0.00    +0.000 C 
BRANCH  20  21
ATOM     21  N   UNL     1       6.335   4.279  18.268  0.00  0.00    +0.000 NA
ATOM     22  H   UNL     1       6.729   3.360  18.470  0.00  0.00    +0.000 HD
BRANCH  21  23
ATOM     23  C   UNL     1       6.056   4.323  16.821  0.00  0.00    +0.000 C 
BRANCH  23  24
ATOM     24  C   UNL     1       6.433   5.688  16.236  0.00  0.00    +0.000 C 
BRANCH  24  25
ATOM     25  O   UNL     1       5.330   6.590  16.308  0.00  0.00    +0.000 OA
ATOM     26  H   UNL     1       4.537   6.055  16.132  0.00  0.00    +0.000 HD
ENDBRANCH  24  25
ENDBRANCH  23  24
ENDBRANCH  21  23
ENDBRANCH  20  21
ENDBRANCH  19  20
ENDBRANCH  16  19
ENDBRANCH   1  17
BRANCH  11  27
ATOM     27  N   UNL     1      -1.785  13.554  22.317  0.00  0.00    +0.000 N 
ATOM     28  C   UNL     1      -2.592  13.289  23.415  0.00  0.00    +0.000 C 
ATOM     29  O   UNL     1      -2.914  12.181  23.835  0.00  0.00    +0.000 OA
ATOM     30  H   UNL     1      -1.581  14.524  22.108  0.00  0.00    +0.000 HD
BRANCH  28  31
ATOM     31  C   UNL     1      -3.148  14.520  24.090  0.00  0.00    +0.000 C 
BRANCH  31  32
ATOM     32  C   UNL     1      -4.565  14.746  23.581  0.00  0.00    +0.000 C 
BRANCH  32  33
ATOM     33  N   UNL     1      -4.977  13.663  22.681  0.00  0.00    +0.000 NA
ATOM     34  H   UNL     1      -4.461  12.816  22.919  0.00  0.00    +0.000 HD
BRANCH  33  35
ATOM     35  C   UNL     1      -6.416  13.400  22.853  0.00  0.00    +0.000 C 
BRANCH  35  36
ATOM     36  C   UNL     1      -6.704  12.730  24.200  0.00  0.00    +0.000 C 
BRANCH  36  37
ATOM     37  O   UNL     1      -5.685  11.782  24.509  0.00  0.00    +0.000 OA
ATOM     38  H   UNL     1      -5.018  12.271  25.020  0.00  0.00    +0.000 HD
ENDBRANCH  36  37
ENDBRANCH  35  36
ENDBRANCH  33  35
ENDBRANCH  32  33
ENDBRANCH  31  32
ENDBRANCH  28  31
ENDBRANCH  11  27
TORSDOF 14
ENDMDL
MODEL 9
REMARK VINA RESULT:      -6.4      2.121     10.345
REMARK  Name = 
REMARK  14 active torsions:
REMARK  status: ('A' for Active; 'I' for Inactive)
REMARK    1  A    between atoms: C_2  and  C_3
REMARK    2  A    between atoms: C_3  and  C_4
REMARK    3  A    between atoms: C_4  and  N_5
REMARK    4  A    between atoms: N_5  and  C_6
REMARK    5  A    between atoms: C_6  and  C_7
REMARK    6  A    between atoms: C_7  and  O_8
REMARK    7  A    between atoms: N_9  and  C_10
REMARK    8  A    between atoms: C_20  and  N_21
REMARK    9  A    between atoms: C_22  and  C_24
REMARK   10  A    between atoms: C_24  and  C_25
REMARK   11  A    between atoms: C_25  and  N_26
REMARK   12  A    between atoms: N_26  and  C_27
REMARK   13  A    between atoms: C_27  and  C_28
REMARK   14  A    between atoms: C_28  and  O_29
REMARK                            x       y       z     vdW  Elec       q    Type
REMARK                         _______ _______ _______ _____ _____    ______ ____
ROOT
ATOM      1  C   UNL     1      -0.851  11.539  22.416  0.00  0.00    +0.000 A 
ATOM      2  C   UNL     1      -0.789  10.371  23.218  0.00  0.00    +0.000 A 
ATOM      3  C   UNL     1      -0.189   9.181  22.764  0.00  0.00    +0.000 A 
ATOM      4  C   UNL     1       0.352   9.164  21.497  0.00  0.00    +0.000 A 
ATOM      5  C   UNL     1       0.266  10.331  20.717  0.00  0.00    +0.000 A 
ATOM      6  C   UNL     1      -0.322  11.511  21.129  0.00  0.00    +0.000 A 
ATOM      7  C   UNL     1       0.925  10.063  19.431  0.00  0.00    +0.000 C 
ATOM      8  O   UNL     1       1.031  10.839  18.509  0.00  0.00    +0.000 OA
ATOM      9  C   UNL     1       1.420   8.675  19.505  0.00  0.00    +0.000 A 
ATOM     10  C   UNL     1       2.144   7.994  18.552  0.00  0.00    +0.000 A 
ATOM     11  C   UNL     1       2.553   6.696  18.848  0.00  0.00    +0.000 A 
ATOM     12  C   UNL     1       2.175   6.122  20.089  0.00  0.00    +0.000 A 
ATOM     13  C   UNL     1       1.428   6.843  21.045  0.00  0.00    +0.000 A 
ATOM     14  C   UNL     1       1.061   8.143  20.750  0.00  0.00    +0.000 A 
ENDROOT
BRANCH   1  17
ATOM     15  O   UNL     1      -3.610  12.023  23.270  0.00  0.00    +0.000 OA
ATOM     16  C   UNL     1      -2.784  12.921  23.161  0.00  0.00    +0.000 C 
ATOM     17  N   UNL     1      -1.448  12.748  22.836  0.00  0.00    +0.000 N 
ATOM     18  H   UNL     1      -0.833  13.543  22.974  0.00  0.00    +0.000 HD
BRANCH  16  19
ATOM     19  C   UNL     1      -3.157  14.379  23.377  0.00  0.00    +0.000 C 
BRANCH  19  20
ATOM     20  C   UNL     1      -3.850  14.933  22.130  0.00  0.00    +0.000 C 
BRANCH  20  21
ATOM     21  N   UNL     1      -3.771  13.983  21.011  0.00  0.00    +0.000 NA
ATOM     22  H   UNL     1      -3.519  13.066  21.381  0.00  0.00    +0.000 HD
BRANCH  21  23
ATOM     23  C   UNL     1      -5.095  13.846  20.377  0.00  0.00    +0.000 C 
BRANCH  23  24
ATOM     24  C   UNL     1      -5.551  12.384  20.382  0.00  0.00    +0.000 C 
BRANCH  24  25
ATOM     25  O   UNL     1      -6.115  12.036  21.645  0.00  0.00    +0.000 OA
ATOM     26  H   UNL     1      -5.741  12.665  22.286  0.00  0.00    +0.000 HD
ENDBRANCH  24  25
ENDBRANCH  23  24
ENDBRANCH  21  23
ENDBRANCH  20  21
ENDBRANCH  19  20
ENDBRANCH  16  19
ENDBRANCH   1  17
BRANCH  11  27
ATOM     27  N   UNL     1       3.347   5.933  17.957  0.00  0.00    +0.000 N 
ATOM     28  C   UNL     1       4.485   6.383  17.298  0.00  0.00    +0.000 C 
ATOM     29  O   UNL     1       4.966   7.510  17.359  0.00  0.00    +0.000 OA
ATOM     30  H   UNL     1       3.087   4.963  17.832  0.00  0.00    +0.000 HD
BRANCH  28  31
ATOM     31  C   UNL     1       5.120   5.361  16.386  0.00  0.00    +0.000 C 
BRANCH  31  32
ATOM     32  C   UNL     1       5.523   4.156  17.224  0.00  0.00    +0.000 C 
BRANCH  32  33
ATOM     33  N   UNL     1       4.501   3.106  17.156  0.00  0.00    +0.000 NA
ATOM     34  H   UNL     1       4.878   2.305  16.651  0.00  0.00    +0.000 HD
BRANCH  33  35
ATOM     35  C   UNL     1       4.145   2.676  18.520  0.00  0.00    +0.000 C 
BRANCH  35  36
ATOM     36  C   UNL     1       2.632   2.492  18.669  0.00  0.00    +0.000 C 
BRANCH  36  37
ATOM     37  O   UNL     1       2.096   1.848  17.515  0.00  0.00    +0.000 OA
ATOM     38  H   UNL     1       2.699   2.070  16.786  0.00  0.00    +0.000 HD
ENDBRANCH  36  37
ENDBRANCH  35  36
ENDBRANCH  33  35
ENDBRANCH  32  33
ENDBRANCH  31  32
ENDBRANCH  28  31
ENDBRANCH  11  27
TORSDOF 14
ENDMDL
