MODEL 1
REMARK VINA RESULT:      -8.7      0.000      0.000
REMARK  Name = 
REMARK  6 active torsions:
REMARK  status: ('A' for Active; 'I' for Inactive)
REMARK    1  A    between atoms: C_1  and  C_2
REMARK    2  A    between atoms: C_2  and  O_3
REMARK    3  A    between atoms: O_3  and  C_4
REMARK    4  A    between atoms: C_9  and  N_10
REMARK    5  A    between atoms: C_11  and  C_13
REMARK    6  A    between atoms: C_13  and  N_14
REMARK                            x       y       z     vdW  Elec       q    Type
REMARK                         _______ _______ _______ _____ _____    ______ ____
ROOT
ATOM      1  N   UNL     1       7.215   6.516  17.793  0.00  0.00    +0.000 N 
ATOM      2  N   UNL     1       6.426   7.252  16.884  0.00  0.00    +0.000 NA
ATOM      3  C   UNL     1       5.295   6.722  16.515  0.00  0.00    +0.000 A 
ATOM      4  C   UNL     1       4.866   5.517  17.134  0.00  0.00    +0.000 A 
ATOM      5  C   UNL     1       5.849   4.605  17.422  0.00  0.00    +0.000 A 
ATOM      6  N   UNL     1       5.137   3.476  17.710  0.00  0.00    +0.000 N 
ATOM      7  C   UNL     1       4.094   3.904  18.503  0.00  0.00    +0.000 A 
ATOM      8  C   UNL     1       3.367   3.251  19.496  0.00  0.00    +0.000 A 
ATOM      9  C   UNL     1       2.546   4.053  20.291  0.00  0.00    +0.000 A 
ATOM     10  C   UNL     1       2.406   5.422  20.042  0.00  0.00    +0.000 A 
ATOM     11  C   UNL     1       3.048   6.032  18.953  0.00  0.00    +0.000 A 
ATOM     12  C   UNL     1       3.916   5.252  18.166  0.00  0.00    +0.000 A 
ATOM     13  C   UNL     1       7.135   5.090  17.889  0.00  0.00    +0.000 A 
ATOM     14  O   UNL     1       7.970   4.381  18.440  0.00  0.00    +0.000 OA
ATOM     15  H   UNL     1       5.331   2.527  17.415  0.00  0.00    +0.000 HD
ENDROOT
BRANCH   1  16
ATOM     16  C   UNL     1       8.158   7.270  18.626  0.00  0.00    +0.000 C 
BRANCH  16  18
ATOM     17  N   UNL     1       9.309   9.439  19.028  0.00  0.00    +0.000 N 
ATOM     18  C   UNL     1       8.327   8.779  18.294  0.00  0.00    +0.000 C 
ATOM     19  O   UNL     1       7.528   9.345  17.535  0.00  0.00    +0.000 OA
ATOM     20  H   UNL     1       9.838   8.830  19.649  0.00  0.00    +0.000 HD
BRANCH  17  26
ATOM     21  C   UNL     1       9.327  11.611  20.233  0.00  0.00    +0.000 A 
ATOM     22  C   UNL     1       9.670  12.976  20.284  0.00  0.00    +0.000 A 
ATOM     23  C   UNL     1      10.245  13.602  19.189  0.00  0.00    +0.000 A 
ATOM     24  C   UNL     1      10.531  12.854  18.052  0.00  0.00    +0.000 A 
ATOM     25  C   UNL     1      10.199  11.503  17.999  0.00  0.00    +0.000 A 
ATOM     26  C   UNL     1       9.602  10.834  19.082  0.00  0.00    +0.000 A 
BRANCH  21  27
ATOM     27  O   UNL     1       8.807  11.174  21.424  0.00  0.00    +0.000 OA
BRANCH  27  29
ATOM     28  C   UNL     1       8.151  11.583  23.734  0.00  0.00    +0.000 C 
ATOM     29  C   UNL     1       8.577  12.170  22.407  0.00  0.00    +0.000 C 
ENDBRANCH  27  29
ENDBRANCH  21  27
ENDBRANCH  17  26
ENDBRANCH  16  18
ENDBRANCH   1  16
TORSDOF 5
ENDMDL
MODEL 2
REMARK VINA RESULT:      -8.6      5.618      6.849
REMARK  Name = 
REMARK  6 active torsions:
REMARK  status: ('A' for Active; 'I' for Inactive)
REMARK    1  A    between atoms: C_1  and  C_2
REMARK    2  A    between atoms: C_2  and  O_3
REMARK    3  A    between atoms: O_3  and  C_4
REMARK    4  A    between atoms: C_9  and  N_10
REMARK    5  A    between atoms: C_11  and  C_13
REMARK    6  A    between atoms: C_13  and  N_14
REMARK                            x       y       z     vdW  Elec       q    Type
REMARK                         _______ _______ _______ _____ _____    ______ ____
ROOT
ATOM      1  N   UNL     1       2.484   7.954  18.329  0.00  0.00    +0.000 N 
ATOM      2  N   UNL     1       3.572   7.489  17.560  0.00  0.00    +0.000 NA
ATOM      3  C   UNL     1       4.083   6.338  17.891  0.00  0.00    +0.000 A 
ATOM      4  C   UNL     1       3.447   5.568  18.902  0.00  0.00    +0.000 A 
ATOM      5  C   UNL     1       2.922   6.274  19.954  0.00  0.00    +0.000 A 
ATOM      6  N   UNL     1       2.665   5.297  20.874  0.00  0.00    +0.000 N 
ATOM      7  C   UNL     1       2.101   4.267  20.153  0.00  0.00    +0.000 A 
ATOM      8  C   UNL     1       1.194   3.275  20.524  0.00  0.00    +0.000 A 
ATOM      9  C   UNL     1       0.621   2.541  19.484  0.00  0.00    +0.000 A 
ATOM     10  C   UNL     1       1.004   2.743  18.155  0.00  0.00    +0.000 A 
ATOM     11  C   UNL     1       2.014   3.657  17.820  0.00  0.00    +0.000 A 
ATOM     12  C   UNL     1       2.574   4.441  18.846  0.00  0.00    +0.000 A 
ATOM     13  C   UNL     1       2.284   7.551  19.688  0.00  0.00    +0.000 A 
ATOM     14  O   UNL     1       1.541   8.119  20.481  0.00  0.00    +0.000 OA
ATOM     15  H   UNL     1       2.842   5.321  21.870  0.00  0.00    +0.000 HD
ENDROOT
BRANCH   1  16
ATOM     16  C   UNL     1       1.568   8.905  17.688  0.00  0.00    +0.000 C 
BRANCH  16  18
ATOM     17  N   UNL     1       0.532  10.757  18.986  0.00  0.00    +0.000 N 
ATOM     18  C   UNL     1       1.615  10.371  18.203  0.00  0.00    +0.000 C 
ATOM     19  O   UNL     1       2.494  11.146  17.799  0.00  0.00    +0.000 OA
ATOM     20  H   UNL     1      -0.128  10.006  19.176  0.00  0.00    +0.000 HD
BRANCH  17  26
ATOM     21  C   UNL     1       0.149  12.347  20.856  0.00  0.00    +0.000 A 
ATOM     22  C   UNL     1      -0.138  13.647  21.314  0.00  0.00    +0.000 A 
ATOM     23  C   UNL     1      -0.428  14.664  20.417  0.00  0.00    +0.000 A 
ATOM     24  C   UNL     1      -0.382  14.400  19.053  0.00  0.00    +0.000 A 
ATOM     25  C   UNL     1      -0.092  13.117  18.596  0.00  0.00    +0.000 A 
ATOM     26  C   UNL     1       0.194  12.055  19.471  0.00  0.00    +0.000 A 
BRANCH  21  27
ATOM     27  O   UNL     1       0.446  11.498  21.893  0.00  0.00    +0.000 OA
BRANCH  27  29
ATOM     28  C   UNL     1      -0.118   9.593  23.301  0.00  0.00    +0.000 C 
ATOM     29  C   UNL     1      -0.589  10.613  22.288  0.00  0.00    +0.000 C 
ENDBRANCH  27  29
ENDBRANCH  21  27
ENDBRANCH  17  26
ENDBRANCH  16  18
ENDBRANCH   1  16
TORSDOF 5
ENDMDL
MODEL 3
REMARK VINA RESULT:      -8.6      5.427      8.348
REMARK  Name = 
REMARK  6 active torsions:
REMARK  status: ('A' for Active; 'I' for Inactive)
REMARK    1  A    between atoms: C_1  and  C_2
REMARK    2  A    between atoms: C_2  and  O_3
REMARK    3  A    between atoms: O_3  and  C_4
REMARK    4  A    between atoms: C_9  and  N_10
REMARK    5  A    between atoms: C_11  and  C_13
REMARK    6  A    between atoms: C_13  and  N_14
REMARK                            x       y       z     vdW  Elec       q    Type
REMARK                         _______ _______ _______ _____ _____    ______ ____
ROOT
ATOM      1  N   UNL     1       2.163   7.084  19.788  0.00  0.00    +0.000 N 
ATOM      2  N   UNL     1       2.007   5.692  19.957  0.00  0.00    +0.000 NA
ATOM      3  C   UNL     1       2.721   4.917  19.192  0.00  0.00    +0.000 A 
ATOM      4  C   UNL     1       3.693   5.502  18.337  0.00  0.00    +0.000 A 
ATOM      5  C   UNL     1       3.348   6.698  17.763  0.00  0.00    +0.000 A 
ATOM      6  N   UNL     1       4.303   6.855  16.798  0.00  0.00    +0.000 N 
ATOM      7  C   UNL     1       5.487   6.496  17.405  0.00  0.00    +0.000 A 
ATOM      8  C   UNL     1       6.799   6.902  17.172  0.00  0.00    +0.000 A 
ATOM      9  C   UNL     1       7.739   6.544  18.140  0.00  0.00    +0.000 A 
ATOM     10  C   UNL     1       7.388   5.751  19.236  0.00  0.00    +0.000 A 
ATOM     11  C   UNL     1       6.087   5.244  19.380  0.00  0.00    +0.000 A 
ATOM     12  C   UNL     1       5.111   5.631  18.441  0.00  0.00    +0.000 A 
ATOM     13  C   UNL     1       2.592   7.656  18.548  0.00  0.00    +0.000 A 
ATOM     14  O   UNL     1       2.480   8.841  18.252  0.00  0.00    +0.000 OA
ATOM     15  H   UNL     1       4.176   7.173  15.846  0.00  0.00    +0.000 HD
ENDROOT
BRANCH   1  16
ATOM     16  C   UNL     1       1.835   7.940  20.933  0.00  0.00    +0.000 C 
BRANCH  16  18
ATOM     17  N   UNL     1       0.425   9.877  20.261  0.00  0.00    +0.000 N 
ATOM     18  C   UNL     1       0.449   8.642  20.903  0.00  0.00    +0.000 C 
ATOM     19  O   UNL     1      -0.503   8.173  21.543  0.00  0.00    +0.000 OA
ATOM     20  H   UNL     1       1.312  10.136  19.834  0.00  0.00    +0.000 HD
BRANCH  17  26
ATOM     21  C   UNL     1      -1.476  10.943  19.069  0.00  0.00    +0.000 A 
ATOM     22  C   UNL     1      -2.542  11.863  19.048  0.00  0.00    +0.000 A 
ATOM     23  C   UNL     1      -2.760  12.716  20.118  0.00  0.00    +0.000 A 
ATOM     24  C   UNL     1      -1.945  12.621  21.240  0.00  0.00    +0.000 A 
ATOM     25  C   UNL     1      -0.893  11.709  21.268  0.00  0.00    +0.000 A 
ATOM     26  C   UNL     1      -0.629  10.835  20.199  0.00  0.00    +0.000 A 
BRANCH  21  27
ATOM     27  O   UNL     1      -1.453  10.166  17.938  0.00  0.00    +0.000 OA
BRANCH  27  29
ATOM     28  C   UNL     1      -2.742   9.930  15.886  0.00  0.00    +0.000 C 
ATOM     29  C   UNL     1      -2.716   9.822  17.394  0.00  0.00    +0.000 C 
ENDBRANCH  27  29
ENDBRANCH  21  27
ENDBRANCH  17  26
ENDBRANCH  16  18
ENDBRANCH   1  16
TORSDOF 5
ENDMDL
MODEL 4
REMARK VINA RESULT:      -8.6      5.746      8.098
REMARK  Name = 
REMARK  6 active torsions:
REMARK  status: ('A' for Active; 'I' for Inactive)
REMARK    1  A    between atoms: C_1  and  C_2
REMARK    2  A    between atoms: C_2  and  O_3
REMARK    3  A    between atoms: O_3  and  C_4
REMARK    4  A    between atoms: C_9  and  N_10
REMARK    5  A    between atoms: C_11  and  C_13
REMARK    6  A    between atoms: C_13  and  N_14
REMARK                            x       y       z     vdW  Elec       q    Type
REMARK                         _______ _______ _______ _____ _____    ______ ____
ROOT
ATOM      1  N   UNL     1       2.340   8.017  18.423  0.00  0.00    +0.000 N 
ATOM      2  N   UNL     1       3.425   7.593  17.626  0.00  0.00    +0.000 NA
ATOM      3  C   UNL     1       3.974   6.452  17.931  0.00  0.00    +0.000 A 
ATOM      4  C   UNL     1       3.381   5.652  18.944  0.00  0.00    +0.000 A 
ATOM      5  C   UNL     1       2.857   6.329  20.015  0.00  0.00    +0.000 A 
ATOM      6  N   UNL     1       2.647   5.333  20.926  0.00  0.00    +0.000 N 
ATOM      7  C   UNL     1       2.096   4.297  20.203  0.00  0.00    +0.000 A 
ATOM      8  C   UNL     1       1.226   3.275  20.578  0.00  0.00    +0.000 A 
ATOM      9  C   UNL     1       0.651   2.539  19.539  0.00  0.00    +0.000 A 
ATOM     10  C   UNL     1       1.002   2.769  18.206  0.00  0.00    +0.000 A 
ATOM     11  C   UNL     1       1.980   3.715  17.863  0.00  0.00    +0.000 A 
ATOM     12  C   UNL     1       2.538   4.501  18.889  0.00  0.00    +0.000 A 
ATOM     13  C   UNL     1       2.179   7.590  19.780  0.00  0.00    +0.000 A 
ATOM     14  O   UNL     1       1.437   8.127  20.595  0.00  0.00    +0.000 OA
ATOM     15  H   UNL     1       2.843   5.348  21.919  0.00  0.00    +0.000 HD
ENDROOT
BRANCH   1  16
ATOM     16  C   UNL     1       1.386   8.950  17.814  0.00  0.00    +0.000 C 
BRANCH  16  18
ATOM     17  N   UNL     1      -0.184  10.079  19.381  0.00  0.00    +0.000 N 
ATOM     18  C   UNL     1       0.999  10.198  18.656  0.00  0.00    +0.000 C 
ATOM     19  O   UNL     1       1.643  11.251  18.545  0.00  0.00    +0.000 OA
ATOM     20  H   UNL     1      -0.615   9.159  19.316  0.00  0.00    +0.000 HD
BRANCH  17  26
ATOM     21  C   UNL     1      -1.821  11.943  19.487  0.00  0.00    +0.000 A 
ATOM     22  C   UNL     1      -2.547  12.890  20.236  0.00  0.00    +0.000 A 
ATOM     23  C   UNL     1      -2.334  13.025  21.600  0.00  0.00    +0.000 A 
ATOM     24  C   UNL     1      -1.431  12.179  22.234  0.00  0.00    +0.000 A 
ATOM     25  C   UNL     1      -0.716  11.238  21.498  0.00  0.00    +0.000 A 
ATOM     26  C   UNL     1      -0.892  11.077  20.113  0.00  0.00    +0.000 A 
BRANCH  21  27
ATOM     27  O   UNL     1      -2.203  11.939  18.170  0.00  0.00    +0.000 OA
BRANCH  27  29
ATOM     28  C   UNL     1      -3.314   9.866  17.537  0.00  0.00    +0.000 C 
ATOM     29  C   UNL     1      -3.452  11.331  17.885  0.00  0.00    +0.000 C 
ENDBRANCH  27  29
ENDBRANCH  21  27
ENDBRANCH  17  26
ENDBRANCH  16  18
ENDBRANCH   1  16
TORSDOF 5
ENDMDL
MODEL 5
REMARK VINA RESULT:      -8.5      1.150      1.556
REMARK  Name = 
REMARK  6 active torsions:
REMARK  status: ('A' for Active; 'I' for Inactive)
REMARK    1  A    between atoms: C_1  and  C_2
REMARK    2  A    between atoms: C_2  and  O_3
REMARK    3  A    between atoms: O_3  and  C_4
REMARK    4  A    between atoms: C_9  and  N_10
REMARK    5  A    between atoms: C_11  and  C_13
REMARK    6  A    between atoms: C_13  and  N_14
REMARK                            x       y       z     vdW  Elec       q    Type
REMARK                         _______ _______ _______ _____ _____    ______ ____
ROOT
ATOM      1  N   UNL     1       7.180   6.383  18.072  0.00  0.00    +0.000 N 
ATOM      2  N   UNL     1       6.880   6.529  16.701  0.00  0.00    +0.000 NA
ATOM      3  C   UNL     1       5.664   6.248  16.326  0.00  0.00    +0.000 A 
ATOM      4  C   UNL     1       4.693   5.941  17.317  0.00  0.00    +0.000 A 
ATOM      5  C   UNL     1       5.136   5.209  18.388  0.00  0.00    +0.000 A 
ATOM      6  N   UNL     1       3.973   4.820  18.989  0.00  0.00    +0.000 N 
ATOM      7  C   UNL     1       3.173   5.943  18.979  0.00  0.00    +0.000 A 
ATOM      8  C   UNL     1       2.154   6.352  19.837  0.00  0.00    +0.000 A 
ATOM      9  C   UNL     1       1.721   7.672  19.696  0.00  0.00    +0.000 A 
ATOM     10  C   UNL     1       2.230   8.502  18.692  0.00  0.00    +0.000 A 
ATOM     11  C   UNL     1       3.161   8.024  17.757  0.00  0.00    +0.000 A 
ATOM     12  C   UNL     1       3.647   6.712  17.908  0.00  0.00    +0.000 A 
ATOM     13  C   UNL     1       6.461   5.477  18.916  0.00  0.00    +0.000 A 
ATOM     14  O   UNL     1       6.843   5.102  20.019  0.00  0.00    +0.000 OA
ATOM     15  H   UNL     1       3.743   3.910  19.368  0.00  0.00    +0.000 HD
ENDROOT
BRANCH   1  16
ATOM     16  C   UNL     1       8.292   7.179  18.604  0.00  0.00    +0.000 C 
BRANCH  16  18
ATOM     17  N   UNL     1       9.230   9.457  18.948  0.00  0.00    +0.000 N 
ATOM     18  C   UNL     1       8.283   8.697  18.269  0.00  0.00    +0.000 C 
ATOM     19  O   UNL     1       7.387   9.174  17.558  0.00  0.00    +0.000 OA
ATOM     20  H   UNL     1       9.854   8.908  19.536  0.00  0.00    +0.000 HD
BRANCH  17  26
ATOM     21  C   UNL     1       9.195  11.610  20.188  0.00  0.00    +0.000 A 
ATOM     22  C   UNL     1       9.395  13.003  20.220  0.00  0.00    +0.000 A 
ATOM     23  C   UNL     1       9.734  13.695  19.068  0.00  0.00    +0.000 A 
ATOM     24  C   UNL     1       9.927  12.992  17.884  0.00  0.00    +0.000 A 
ATOM     25  C   UNL     1       9.736  11.612  17.849  0.00  0.00    +0.000 A 
ATOM     26  C   UNL     1       9.379  10.875  18.991  0.00  0.00    +0.000 A 
BRANCH  21  27
ATOM     27  O   UNL     1       8.905  11.110  21.432  0.00  0.00    +0.000 OA
BRANCH  27  29
ATOM     28  C   UNL     1       7.534  11.699  23.356  0.00  0.00    +0.000 C 
ATOM     29  C   UNL     1       8.690  12.069  22.454  0.00  0.00    +0.000 C 
ENDBRANCH  27  29
ENDBRANCH  21  27
ENDBRANCH  17  26
ENDBRANCH  16  18
ENDBRANCH   1  16
TORSDOF 5
ENDMDL
MODEL 6
REMARK VINA RESULT:      -8.4      5.504      8.168
REMARK  Name = 
REMARK  6 active torsions:
REMARK  status: ('A' for Active; 'I' for Inactive)
REMARK    1  A    between atoms: C_1  and  C_2
REMARK    2  A    between atoms: C_2  and  O_3
REMARK    3  A    between atoms: O_3  and  C_4
REMARK    4  A    between atoms: C_9  and  N_10
REMARK    5  A    between atoms: C_11  and  C_13
REMARK    6  A    between atoms: C_13  and  N_14
REMARK                            x       y       z     vdW  Elec       q    Type
REMARK                         _______ _______ _______ _____ _____    ______ ____
ROOT
ATOM      1  N   UNL     1       2.002   7.060  20.079  0.00  0.00    +0.000 N 
ATOM      2  N   UNL     1       1.838   5.662  20.180  0.00  0.00    +0.000 NA
ATOM      3  C   UNL     1       2.488   4.925  19.326  0.00  0.00    +0.000 A 
ATOM      4  C   UNL     1       3.409   5.548  18.441  0.00  0.00    +0.000 A 
ATOM      5  C   UNL     1       3.043   6.778  17.959  0.00  0.00    +0.000 A 
ATOM      6  N   UNL     1       3.932   6.980  16.942  0.00  0.00    +0.000 N 
ATOM      7  C   UNL     1       5.149   6.574  17.446  0.00  0.00    +0.000 A 
ATOM      8  C   UNL     1       6.449   6.979  17.147  0.00  0.00    +0.000 A 
ATOM      9  C   UNL     1       7.447   6.557  18.027  0.00  0.00    +0.000 A 
ATOM     10  C   UNL     1       7.158   5.706  19.098  0.00  0.00    +0.000 A 
ATOM     11  C   UNL     1       5.863   5.206  19.302  0.00  0.00    +0.000 A 
ATOM     12  C   UNL     1       4.832   5.656  18.455  0.00  0.00    +0.000 A 
ATOM     13  C   UNL     1       2.355   7.698  18.846  0.00  0.00    +0.000 A 
ATOM     14  O   UNL     1       2.240   8.899  18.626  0.00  0.00    +0.000 OA
ATOM     15  H   UNL     1       3.747   7.353  16.020  0.00  0.00    +0.000 HD
ENDROOT
BRANCH   1  16
ATOM     16  C   UNL     1       1.765   7.853  21.290  0.00  0.00    +0.000 C 
BRANCH  16  18
ATOM     17  N   UNL     1       0.508   9.999  21.365  0.00  0.00    +0.000 N 
ATOM     18  C   UNL     1       0.410   8.611  21.371  0.00  0.00    +0.000 C 
ATOM     19  O   UNL     1      -0.642   7.989  21.574  0.00  0.00    +0.000 OA
ATOM     20  H   UNL     1       1.459  10.344  21.245  0.00  0.00    +0.000 HD
BRANCH  17  26
ATOM     21  C   UNL     1      -0.936  11.854  20.564  0.00  0.00    +0.000 A 
ATOM     22  C   UNL     1      -1.979  12.774  20.788  0.00  0.00    +0.000 A 
ATOM     23  C   UNL     1      -2.586  12.865  22.031  0.00  0.00    +0.000 A 
ATOM     24  C   UNL     1      -2.189  12.002  23.046  0.00  0.00    +0.000 A 
ATOM     25  C   UNL     1      -1.162  11.087  22.827  0.00  0.00    +0.000 A 
ATOM     26  C   UNL     1      -0.512  10.971  21.586  0.00  0.00    +0.000 A 
BRANCH  21  27
ATOM     27  O   UNL     1      -0.497  11.891  19.265  0.00  0.00    +0.000 OA
BRANCH  27  29
ATOM     28  C   UNL     1      -1.708  10.129  18.098  0.00  0.00    +0.000 C 
ATOM     29  C   UNL     1      -1.469  11.613  18.271  0.00  0.00    +0.000 C 
ENDBRANCH  27  29
ENDBRANCH  21  27
ENDBRANCH  17  26
ENDBRANCH  16  18
ENDBRANCH   1  16
TORSDOF 5
ENDMDL
MODEL 7
REMARK VINA RESULT:      -8.3      5.669      6.483
REMARK  Name = 
REMARK  6 active torsions:
REMARK  status: ('A' for Active; 'I' for Inactive)
REMARK    1  A    between atoms: C_1  and  C_2
REMARK    2  A    between atoms: C_2  and  O_3
REMARK    3  A    between atoms: O_3  and  C_4
REMARK    4  A    between atoms: C_9  and  N_10
REMARK    5  A    between atoms: C_11  and  C_13
REMARK    6  A    between atoms: C_13  and  N_14
REMARK                            x       y       z     vdW  Elec       q    Type
REMARK                         _______ _______ _______ _____ _____    ______ ____
ROOT
ATOM      1  N   UNL     1       1.404   8.781  18.694  0.00  0.00    +0.000 N 
ATOM      2  N   UNL     1       2.470   8.613  17.784  0.00  0.00    +0.000 NA
ATOM      3  C   UNL     1       3.230   7.568  17.947  0.00  0.00    +0.000 A 
ATOM      4  C   UNL     1       2.874   6.606  18.930  0.00  0.00    +0.000 A 
ATOM      5  C   UNL     1       2.342   7.101  20.092  0.00  0.00    +0.000 A 
ATOM      6  N   UNL     1       2.386   6.021  20.928  0.00  0.00    +0.000 N 
ATOM      7  C   UNL     1       1.957   4.959  20.162  0.00  0.00    +0.000 A 
ATOM      8  C   UNL     1       1.310   3.775  20.513  0.00  0.00    +0.000 A 
ATOM      9  C   UNL     1       0.778   3.025  19.462  0.00  0.00    +0.000 A 
ATOM     10  C   UNL     1       0.963   3.408  18.130  0.00  0.00    +0.000 A 
ATOM     11  C   UNL     1       1.731   4.534  17.797  0.00  0.00    +0.000 A 
ATOM     12  C   UNL     1       2.238   5.331  18.841  0.00  0.00    +0.000 A 
ATOM     13  C   UNL     1       1.441   8.237  20.018  0.00  0.00    +0.000 A 
ATOM     14  O   UNL     1       0.695   8.574  20.930  0.00  0.00    +0.000 OA
ATOM     15  H   UNL     1       2.665   6.000  21.901  0.00  0.00    +0.000 HD
ENDROOT
BRANCH   1  16
ATOM     16  C   UNL     1       0.255   9.572  18.242  0.00  0.00    +0.000 C 
BRANCH  16  18
ATOM     17  N   UNL     1       1.628  11.594  18.709  0.00  0.00    +0.000 N 
ATOM     18  C   UNL     1       0.352  11.112  18.429  0.00  0.00    +0.000 C 
ATOM     19  O   UNL     1      -0.676  11.803  18.466  0.00  0.00    +0.000 OA
ATOM     20  H   UNL     1       2.351  10.877  18.693  0.00  0.00    +0.000 HD
BRANCH  17  26
ATOM     21  C   UNL     1       1.848  13.394  20.406  0.00  0.00    +0.000 A 
ATOM     22  C   UNL     1       2.293  14.679  20.772  0.00  0.00    +0.000 A 
ATOM     23  C   UNL     1       2.878  15.518  19.836  0.00  0.00    +0.000 A 
ATOM     24  C   UNL     1       3.069  15.058  18.537  0.00  0.00    +0.000 A 
ATOM     25  C   UNL     1       2.635  13.786  18.172  0.00  0.00    +0.000 A 
ATOM     26  C   UNL     1       2.026  12.910  19.087  0.00  0.00    +0.000 A 
BRANCH  21  27
ATOM     27  O   UNL     1       1.336  12.710  21.479  0.00  0.00    +0.000 OA
BRANCH  27  29
ATOM     28  C   UNL     1      -0.759  11.624  22.081  0.00  0.00    +0.000 C 
ATOM     29  C   UNL     1      -0.041  12.912  21.748  0.00  0.00    +0.000 C 
ENDBRANCH  27  29
ENDBRANCH  21  27
ENDBRANCH  17  26
ENDBRANCH  16  18
ENDBRANCH   1  16
TORSDOF 5
ENDMDL
MODEL 8
REMARK VINA RESULT:      -8.3      5.533      7.215
REMARK  Name = 
REMARK  6 active torsions:
REMARK  status: ('A' for Active; 'I' for Inactive)
REMARK    1  A    between atoms: C_1  and  C_2
REMARK    2  A    between atoms: C_2  and  O_3
REMARK    3  A    between atoms: O_3  and  C_4
REMARK    4  A    between atoms: C_9  and  N_10
REMARK    5  A    between atoms: C_11  and  C_13
REMARK    6  A    between atoms: C_13  and  N_14
REMARK                            x       y       z     vdW  Elec       q    Type
REMARK                         _______ _______ _______ _____ _____    ______ ____
ROOT
ATOM      1  N   UNL     1       2.517   7.811  18.392  0.00  0.00    +0.000 N 
ATOM      2  N   UNL     1       3.628   7.342  17.659  0.00  0.00    +0.000 NA
ATOM      3  C   UNL     1       4.132   6.195  18.015  0.00  0.00    +0.000 A 
ATOM      4  C   UNL     1       3.470   5.434  19.015  0.00  0.00    +0.000 A 
ATOM      5  C   UNL     1       2.913   6.148  20.045  0.00  0.00    +0.000 A 
ATOM      6  N   UNL     1       2.634   5.179  20.967  0.00  0.00    +0.000 N 
ATOM      7  C   UNL     1       2.092   4.140  20.240  0.00  0.00    +0.000 A 
ATOM      8  C   UNL     1       1.178   3.150  20.595  0.00  0.00    +0.000 A 
ATOM      9  C   UNL     1       0.635   2.404  19.546  0.00  0.00    +0.000 A 
ATOM     10  C   UNL     1       1.055   2.595  18.226  0.00  0.00    +0.000 A 
ATOM     11  C   UNL     1       2.073   3.508  17.911  0.00  0.00    +0.000 A 
ATOM     12  C   UNL     1       2.601   4.303  18.945  0.00  0.00    +0.000 A 
ATOM     13  C   UNL     1       2.280   7.420  19.749  0.00  0.00    +0.000 A 
ATOM     14  O   UNL     1       1.514   7.994  20.515  0.00  0.00    +0.000 OA
ATOM     15  H   UNL     1       2.782   5.212  21.967  0.00  0.00    +0.000 HD
ENDROOT
BRANCH   1  16
ATOM     16  C   UNL     1       1.618   8.753  17.718  0.00  0.00    +0.000 C 
BRANCH  16  18
ATOM     17  N   UNL     1       0.811  10.656  19.103  0.00  0.00    +0.000 N 
ATOM     18  C   UNL     1       1.728  10.245  18.140  0.00  0.00    +0.000 C 
ATOM     19  O   UNL     1       2.489  11.011  17.534  0.00  0.00    +0.000 OA
ATOM     20  H   UNL     1       0.221   9.905  19.457  0.00  0.00    +0.000 HD
BRANCH  17  26
ATOM     21  C   UNL     1      -0.422  12.808  18.968  0.00  0.00    +0.000 A 
ATOM     22  C   UNL     1      -0.708  14.086  19.487  0.00  0.00    +0.000 A 
ATOM     23  C   UNL     1      -0.019  14.572  20.587  0.00  0.00    +0.000 A 
ATOM     24  C   UNL     1       0.926  13.764  21.209  0.00  0.00    +0.000 A 
ATOM     25  C   UNL     1       1.208  12.497  20.703  0.00  0.00    +0.000 A 
ATOM     26  C   UNL     1       0.542  11.972  19.582  0.00  0.00    +0.000 A 
BRANCH  21  27
ATOM     27  O   UNL     1      -1.234  12.497  17.908  0.00  0.00    +0.000 OA
BRANCH  27  29
ATOM     28  C   UNL     1      -2.366  10.405  17.385  0.00  0.00    +0.000 C 
ATOM     29  C   UNL     1      -2.355  11.679  18.200  0.00  0.00    +0.000 C 
ENDBRANCH  27  29
ENDBRANCH  21  27
ENDBRANCH  17  26
ENDBRANCH  16  18
ENDBRANCH   1  16
TORSDOF 5
ENDMDL
MODEL 9
REMARK VINA RESULT:      -8.3      5.713      7.411
REMARK  Name = 
REMARK  6 active torsions:
REMARK  status: ('A' for Active; 'I' for Inactive)
REMARK    1  A    between atoms: C_1  and  C_2
REMARK    2  A    between atoms: C_2  and  O_3
REMARK    3  A    between atoms: O_3  and  C_4
REMARK    4  A    between atoms: C_9  and  N_10
REMARK    5  A    between atoms: C_11  and  C_13
REMARK    6  A    between atoms: C_13  and  N_14
REMARK                            x       y       z     vdW  Elec       q    Type
REMARK                         _______ _______ _______ _____ _____    ______ ____
ROOT
ATOM      1  N   UNL     1       2.449   7.962  18.305  0.00  0.00    +0.000 N 
ATOM      2  N   UNL     1       3.507   7.500  17.493  0.00  0.00    +0.000 NA
ATOM      3  C   UNL     1       4.042   6.355  17.809  0.00  0.00    +0.000 A 
ATOM      4  C   UNL     1       3.458   5.588  18.852  0.00  0.00    +0.000 A 
ATOM      5  C   UNL     1       2.972   6.297  19.921  0.00  0.00    +0.000 A 
ATOM      6  N   UNL     1       2.765   5.324  20.858  0.00  0.00    +0.000 N 
ATOM      7  C   UNL     1       2.178   4.284  20.169  0.00  0.00    +0.000 A 
ATOM      8  C   UNL     1       1.297   3.288  20.586  0.00  0.00    +0.000 A 
ATOM      9  C   UNL     1       0.685   2.542  19.577  0.00  0.00    +0.000 A 
ATOM     10  C   UNL     1       1.008   2.737  18.231  0.00  0.00    +0.000 A 
ATOM     11  C   UNL     1       1.995   3.657  17.846  0.00  0.00    +0.000 A 
ATOM     12  C   UNL     1       2.592   4.453  18.842  0.00  0.00    +0.000 A 
ATOM     13  C   UNL     1       2.313   7.566  19.674  0.00  0.00    +0.000 A 
ATOM     14  O   UNL     1       1.600   8.134  20.495  0.00  0.00    +0.000 OA
ATOM     15  H   UNL     1       2.985   5.356  21.845  0.00  0.00    +0.000 HD
ENDROOT
BRANCH   1  16
ATOM     16  C   UNL     1       1.499   8.900  17.699  0.00  0.00    +0.000 C 
BRANCH  16  18
ATOM     17  N   UNL     1      -0.100  10.066  19.208  0.00  0.00    +0.000 N 
ATOM     18  C   UNL     1       1.120  10.150  18.543  0.00  0.00    +0.000 C 
ATOM     19  O   UNL     1       1.810  11.177  18.480  0.00  0.00    +0.000 OA
ATOM     20  H   UNL     1      -0.563   9.165  19.107  0.00  0.00    +0.000 HD
BRANCH  17  26
ATOM     21  C   UNL     1      -0.523  11.370  21.279  0.00  0.00    +0.000 A 
ATOM     22  C   UNL     1      -1.194  12.410  21.952  0.00  0.00    +0.000 A 
ATOM     23  C   UNL     1      -2.178  13.147  21.311  0.00  0.00    +0.000 A 
ATOM     24  C   UNL     1      -2.462  12.884  19.976  0.00  0.00    +0.000 A 
ATOM     25  C   UNL     1      -1.797  11.860  19.305  0.00  0.00    +0.000 A 
ATOM     26  C   UNL     1      -0.803  11.081  19.922  0.00  0.00    +0.000 A 
BRANCH  21  27
ATOM     27  O   UNL     1       0.437  10.791  22.070  0.00  0.00    +0.000 OA
BRANCH  27  29
ATOM     28  C   UNL     1      -0.665   8.677  22.569  0.00  0.00    +0.000 C 
ATOM     29  C   UNL     1      -0.036   9.944  23.104  0.00  0.00    +0.000 C 
ENDBRANCH  27  29
ENDBRANCH  21  27
ENDBRANCH  17  26
ENDBRANCH  16  18
ENDBRANCH   1  16
TORSDOF 5
ENDMDL
