MODEL 1
REMARK VINA RESULT:      -7.8      0.000      0.000
REMARK  Name = 
REMARK  5 active torsions:
REMARK  status: ('A' for Active; 'I' for Inactive)
REMARK    1  A    between atoms: C_1  and  O_2
REMARK    2  A    between atoms: O_2  and  C_3
REMARK    3  A    between atoms: C_6  and  C_7
REMARK    4  A    between atoms: C_7  and  O_8
REMARK    5  A    between atoms: C_12  and  C_14
REMARK                            x       y       z     vdW  Elec       q    Type
REMARK                         _______ _______ _______ _____ _____    ______ ____
ROOT
ATOM      1  C   UNL     1       0.999  10.880  18.676  0.00  0.00    +0.000 C 
ATOM      2  C   UNL     1       2.054  10.164  17.840  0.00  0.00    +0.000 C 
ATOM      3  C   UNL     1       1.829   8.678  17.846  0.00  0.00    +0.000 C 
ATOM      4  N   UNL     1       1.766   8.088  19.179  0.00  0.00    +0.000 N 
ATOM      5  C   UNL     1       2.368   6.848  19.503  0.00  0.00    +0.000 C 
ATOM      6  O   UNL     1       2.360   6.359  20.622  0.00  0.00    +0.000 OA
ATOM      7  C   UNL     1       0.757   8.741  20.072  0.00  0.00    +0.000 C 
ATOM      8  C   UNL     1       0.621   8.177  21.503  0.00  0.00    +0.000 C 
ATOM      9  C   UNL     1      -0.414   8.928  22.337  0.00  0.00    +0.000 C 
ATOM     10  C   UNL     1      -0.088  10.407  22.396  0.00  0.00    +0.000 C 
ATOM     11  C   UNL     1      -0.047  10.992  20.993  0.00  0.00    +0.000 C 
ATOM     12  C   UNL     1       0.991  10.284  20.110  0.00  0.00    +0.000 C 
ENDROOT
BRANCH   1  16
ATOM     13  C   UNL     1       1.871  15.142  18.612  0.00  0.00    +0.000 A 
ATOM     14  C   UNL     1       2.894  14.212  18.453  0.00  0.00    +0.000 A 
ATOM     15  C   UNL     1       2.614  12.848  18.432  0.00  0.00    +0.000 A 
ATOM     16  C   UNL     1       1.307  12.378  18.624  0.00  0.00    +0.000 A 
ATOM     17  C   UNL     1       0.285  13.330  18.802  0.00  0.00    +0.000 A 
ATOM     18  C   UNL     1       0.563  14.700  18.795  0.00  0.00    +0.000 A 
BRANCH  13  20
ATOM     19  C   UNL     1       3.029  16.839  17.462  0.00  0.00    +0.000 C 
ATOM     20  O   UNL     1       2.273  16.448  18.600  0.00  0.00    +0.000 OA
ENDBRANCH  13  20
ENDBRANCH   1  16
BRANCH   5  21
ATOM     21  C   UNL     1       3.128   6.066  18.468  0.00  0.00    +0.000 A 
ATOM     22  C   UNL     1       2.610   4.822  18.074  0.00  0.00    +0.000 A 
ATOM     23  C   UNL     1       3.311   4.023  17.168  0.00  0.00    +0.000 A 
ATOM     24  C   UNL     1       4.545   4.441  16.672  0.00  0.00    +0.000 A 
ATOM     25  C   UNL     1       5.047   5.685  17.021  0.00  0.00    +0.000 A 
ATOM     26  C   UNL     1       4.302   6.518  17.849  0.00  0.00    +0.000 A 
ENDBRANCH   5  21
BRANCH   1  27
ATOM     27  O   UNL     1      -0.277  10.614  18.069  0.00  0.00    +0.000 OA
ATOM     28  H   UNL     1      -0.532  11.406  17.565  0.00  0.00    +0.000 HD
ENDBRANCH   1  27
TORSDOF 4
ENDMDL
MODEL 2
REMARK VINA RESULT:      -7.7      0.579      1.097
REMARK  Name = 
REMARK  5 active torsions:
REMARK  status: ('A' for Active; 'I' for Inactive)
REMARK    1  A    between atoms: C_1  and  O_2
REMARK    2  A    between atoms: O_2  and  C_3
REMARK    3  A    between atoms: C_6  and  C_7
REMARK    4  A    between atoms: C_7  and  O_8
REMARK    5  A    between atoms: C_12  and  C_14
REMARK                            x       y       z     vdW  Elec       q    Type
REMARK                         _______ _______ _______ _____ _____    ______ ____
ROOT
ATOM      1  C   UNL     1       0.954  11.135  18.768  0.00  0.00    +0.000 C 
ATOM      2  C   UNL     1       2.013  10.455  17.908  0.00  0.00    +0.000 C 
ATOM      3  C   UNL     1       1.794   8.969  17.858  0.00  0.00    +0.000 C 
ATOM      4  N   UNL     1       1.732   8.330  19.168  0.00  0.00    +0.000 N 
ATOM      5  C   UNL     1       2.339   7.080  19.446  0.00  0.00    +0.000 C 
ATOM      6  O   UNL     1       2.332   6.550  20.546  0.00  0.00    +0.000 OA
ATOM      7  C   UNL     1       0.720   8.945  20.083  0.00  0.00    +0.000 C 
ATOM      8  C   UNL     1       0.584   8.328  21.492  0.00  0.00    +0.000 C 
ATOM      9  C   UNL     1      -0.455   9.042  22.353  0.00  0.00    +0.000 C 
ATOM     10  C   UNL     1      -0.135  10.520  22.467  0.00  0.00    +0.000 C 
ATOM     11  C   UNL     1      -0.095  11.157  21.087  0.00  0.00    +0.000 C 
ATOM     12  C   UNL     1       0.948  10.486  20.179  0.00  0.00    +0.000 C 
ENDROOT
BRANCH   1  16
ATOM     13  C   UNL     1       1.822  15.398  18.698  0.00  0.00    +0.000 A 
ATOM     14  C   UNL     1       0.507  14.948  18.775  0.00  0.00    +0.000 A 
ATOM     15  C   UNL     1       0.227  13.586  18.839  0.00  0.00    +0.000 A 
ATOM     16  C   UNL     1       1.256  12.635  18.773  0.00  0.00    +0.000 A 
ATOM     17  C   UNL     1       2.580  13.105  18.676  0.00  0.00    +0.000 A 
ATOM     18  C   UNL     1       2.861  14.473  18.640  0.00  0.00    +0.000 A 
BRANCH  13  20
ATOM     19  C   UNL     1       0.751  17.495  18.697  0.00  0.00    +0.000 C 
ATOM     20  O   UNL     1       1.964  16.757  18.657  0.00  0.00    +0.000 OA
ENDBRANCH  13  20
ENDBRANCH   1  16
BRANCH   5  21
ATOM     21  C   UNL     1       3.103   6.341  18.384  0.00  0.00    +0.000 A 
ATOM     22  C   UNL     1       2.723   5.019  18.102  0.00  0.00    +0.000 A 
ATOM     23  C   UNL     1       3.442   4.262  17.174  0.00  0.00    +0.000 A 
ATOM     24  C   UNL     1       4.562   4.804  16.544  0.00  0.00    +0.000 A 
ATOM     25  C   UNL     1       4.922   6.121  16.783  0.00  0.00    +0.000 A 
ATOM     26  C   UNL     1       4.148   6.901  17.636  0.00  0.00    +0.000 A 
ENDBRANCH   5  21
BRANCH   1  27
ATOM     27  O   UNL     1      -0.320  10.887  18.151  0.00  0.00    +0.000 OA
ATOM     28  H   UNL     1      -0.152  10.603  17.235  0.00  0.00    +0.000 HD
ENDBRANCH   1  27
TORSDOF 4
ENDMDL
MODEL 3
REMARK VINA RESULT:      -7.2      3.415      8.442
REMARK  Name = 
REMARK  5 active torsions:
REMARK  status: ('A' for Active; 'I' for Inactive)
REMARK    1  A    between atoms: C_1  and  O_2
REMARK    2  A    between atoms: O_2  and  C_3
REMARK    3  A    between atoms: C_6  and  C_7
REMARK    4  A    between atoms: C_7  and  O_8
REMARK    5  A    between atoms: C_12  and  C_14
REMARK                            x       y       z     vdW  Elec       q    Type
REMARK                         _______ _______ _______ _____ _____    ______ ____
ROOT
ATOM      1  C   UNL     1       5.076   5.418  17.575  0.00  0.00    +0.000 C 
ATOM      2  C   UNL     1       4.388   6.772  17.444  0.00  0.00    +0.000 C 
ATOM      3  C   UNL     1       3.891   7.256  18.778  0.00  0.00    +0.000 C 
ATOM      4  N   UNL     1       3.013   6.315  19.465  0.00  0.00    +0.000 N 
ATOM      5  C   UNL     1       1.852   6.718  20.169  0.00  0.00    +0.000 C 
ATOM      6  O   UNL     1       1.083   5.942  20.715  0.00  0.00    +0.000 OA
ATOM      7  C   UNL     1       3.610   4.952  19.628  0.00  0.00    +0.000 C 
ATOM      8  C   UNL     1       2.749   3.892  20.349  0.00  0.00    +0.000 C 
ATOM      9  C   UNL     1       3.438   2.533  20.440  0.00  0.00    +0.000 C 
ATOM     10  C   UNL     1       3.824   2.032  19.062  0.00  0.00    +0.000 C 
ATOM     11  C   UNL     1       4.751   3.026  18.382  0.00  0.00    +0.000 C 
ATOM     12  C   UNL     1       4.103   4.413  18.248  0.00  0.00    +0.000 C 
ENDROOT
BRANCH   1  16
ATOM     13  C   UNL     1       6.426   4.154  13.636  0.00  0.00    +0.000 A 
ATOM     14  C   UNL     1       5.102   3.963  14.021  0.00  0.00    +0.000 A 
ATOM     15  C   UNL     1       4.655   4.402  15.265  0.00  0.00    +0.000 A 
ATOM     16  C   UNL     1       5.538   4.998  16.178  0.00  0.00    +0.000 A 
ATOM     17  C   UNL     1       6.878   5.169  15.781  0.00  0.00    +0.000 A 
ATOM     18  C   UNL     1       7.319   4.752  14.521  0.00  0.00    +0.000 A 
BRANCH  13  20
ATOM     19  C   UNL     1       5.808   2.765  11.838  0.00  0.00    +0.000 C 
ATOM     20  O   UNL     1       6.734   3.693  12.387  0.00  0.00    +0.000 OA
ENDBRANCH  13  20
ENDBRANCH   1  16
BRANCH   5  21
ATOM     21  C   UNL     1       1.453   8.166  20.234  0.00  0.00    +0.000 A 
ATOM     22  C   UNL     1       1.230   8.729  21.501  0.00  0.00    +0.000 A 
ATOM     23  C   UNL     1       0.790  10.050  21.617  0.00  0.00    +0.000 A 
ATOM     24  C   UNL     1       0.540  10.809  20.474  0.00  0.00    +0.000 A 
ATOM     25  C   UNL     1       0.797  10.278  19.219  0.00  0.00    +0.000 A 
ATOM     26  C   UNL     1       1.325   8.995  19.112  0.00  0.00    +0.000 A 
ENDBRANCH   5  21
BRANCH   1  27
ATOM     27  O   UNL     1       6.210   5.598  18.440  0.00  0.00    +0.000 OA
ATOM     28  H   UNL     1       6.089   6.442  18.910  0.00  0.00    +0.000 HD
ENDBRANCH   1  27
TORSDOF 4
ENDMDL
MODEL 4
REMARK VINA RESULT:      -7.1      2.892      8.114
REMARK  Name = 
REMARK  5 active torsions:
REMARK  status: ('A' for Active; 'I' for Inactive)
REMARK    1  A    between atoms: C_1  and  O_2
REMARK    2  A    between atoms: O_2  and  C_3
REMARK    3  A    between atoms: C_6  and  C_7
REMARK    4  A    between atoms: C_7  and  O_8
REMARK    5  A    between atoms: C_12  and  C_14
REMARK                            x       y       z     vdW  Elec       q    Type
REMARK                         _______ _______ _______ _____ _____    ______ ____
ROOT
ATOM      1  C   UNL     1       0.333  10.622  18.991  0.00  0.00    +0.000 C 
ATOM      2  C   UNL     1      -0.738  10.382  20.048  0.00  0.00    +0.000 C 
ATOM      3  C   UNL     1      -1.653  11.569  20.169  0.00  0.00    +0.000 C 
ATOM      4  N   UNL     1      -0.965  12.828  20.434  0.00  0.00    +0.000 N 
ATOM      5  C   UNL     1      -1.456  13.799  21.341  0.00  0.00    +0.000 C 
ATOM      6  O   UNL     1      -0.874  14.840  21.605  0.00  0.00    +0.000 OA
ATOM      7  C   UNL     1       0.114  13.138  19.443  0.00  0.00    +0.000 C 
ATOM      8  C   UNL     1       0.893  14.456  19.646  0.00  0.00    +0.000 C 
ATOM      9  C   UNL     1       1.985  14.663  18.600  0.00  0.00    +0.000 C 
ATOM     10  C   UNL     1       2.948  13.493  18.588  0.00  0.00    +0.000 C 
ATOM     11  C   UNL     1       2.202  12.201  18.293  0.00  0.00    +0.000 C 
ATOM     12  C   UNL     1       1.098  11.932  19.326  0.00  0.00    +0.000 C 
ENDROOT
BRANCH   1  16
ATOM     13  C   UNL     1       2.788   7.033  18.843  0.00  0.00    +0.000 A 
ATOM     14  C   UNL     1       2.630   7.825  17.709  0.00  0.00    +0.000 A 
ATOM     15  C   UNL     1       1.878   8.996  17.762  0.00  0.00    +0.000 A 
ATOM     16  C   UNL     1       1.220   9.377  18.942  0.00  0.00    +0.000 A 
ATOM     17  C   UNL     1       1.375   8.556  20.075  0.00  0.00    +0.000 A 
ATOM     18  C   UNL     1       2.153   7.395  20.028  0.00  0.00    +0.000 A 
BRANCH  13  20
ATOM     19  C   UNL     1       4.494   5.995  17.596  0.00  0.00    +0.000 C 
ATOM     20  O   UNL     1       3.560   5.919  18.664  0.00  0.00    +0.000 OA
ENDBRANCH  13  20
ENDBRANCH   1  16
BRANCH   5  21
ATOM     21  C   UNL     1      -2.733  13.569  22.100  0.00  0.00    +0.000 A 
ATOM     22  C   UNL     1      -2.650  12.920  23.342  0.00  0.00    +0.000 A 
ATOM     23  C   UNL     1      -3.811  12.619  24.058  0.00  0.00    +0.000 A 
ATOM     24  C   UNL     1      -5.062  12.933  23.530  0.00  0.00    +0.000 A 
ATOM     25  C   UNL     1      -5.156  13.611  22.325  0.00  0.00    +0.000 A 
ATOM     26  C   UNL     1      -3.994  13.993  21.660  0.00  0.00    +0.000 A 
ENDBRANCH   5  21
BRANCH   1  27
ATOM     27  O   UNL     1      -0.342  10.801  17.734  0.00  0.00    +0.000 OA
ATOM     28  H   UNL     1       0.250  11.311  17.154  0.00  0.00    +0.000 HD
ENDBRANCH   1  27
TORSDOF 4
ENDMDL
MODEL 5
REMARK VINA RESULT:      -7.0      2.921      8.163
REMARK  Name = 
REMARK  5 active torsions:
REMARK  status: ('A' for Active; 'I' for Inactive)
REMARK    1  A    between atoms: C_1  and  O_2
REMARK    2  A    between atoms: O_2  and  C_3
REMARK    3  A    between atoms: C_6  and  C_7
REMARK    4  A    between atoms: C_7  and  O_8
REMARK    5  A    between atoms: C_12  and  C_14
REMARK                            x       y       z     vdW  Elec       q    Type
REMARK                         _______ _______ _______ _____ _____    ______ ____
ROOT
ATOM      1  C   UNL     1       0.331  10.622  19.005  0.00  0.00    +0.000 C 
ATOM      2  C   UNL     1      -0.727  10.355  20.068  0.00  0.00    +0.000 C 
ATOM      3  C   UNL     1      -1.630  11.545  20.240  0.00  0.00    +0.000 C 
ATOM      4  N   UNL     1      -0.929  12.789  20.537  0.00  0.00    +0.000 N 
ATOM      5  C   UNL     1      -1.400  13.733  21.483  0.00  0.00    +0.000 C 
ATOM      6  O   UNL     1      -0.806  14.759  21.774  0.00  0.00    +0.000 OA
ATOM      7  C   UNL     1       0.139  13.123  19.543  0.00  0.00    +0.000 C 
ATOM      8  C   UNL     1       0.931  14.427  19.778  0.00  0.00    +0.000 C 
ATOM      9  C   UNL     1       2.011  14.661  18.725  0.00  0.00    +0.000 C 
ATOM     10  C   UNL     1       2.964  13.485  18.661  0.00  0.00    +0.000 C 
ATOM     11  C   UNL     1       2.204  12.209  18.333  0.00  0.00    +0.000 C 
ATOM     12  C   UNL     1       1.111  11.914  19.372  0.00  0.00    +0.000 C 
ENDROOT
BRANCH   1  16
ATOM     13  C   UNL     1       2.892   7.115  18.722  0.00  0.00    +0.000 A 
ATOM     14  C   UNL     1       2.222   7.404  19.908  0.00  0.00    +0.000 A 
ATOM     15  C   UNL     1       1.370   8.502  19.990  0.00  0.00    +0.000 A 
ATOM     16  C   UNL     1       1.208   9.372  18.901  0.00  0.00    +0.000 A 
ATOM     17  C   UNL     1       1.906   9.077  17.715  0.00  0.00    +0.000 A 
ATOM     18  C   UNL     1       2.739   7.958  17.624  0.00  0.00    +0.000 A 
BRANCH  13  20
ATOM     19  C   UNL     1       4.117   5.518  17.502  0.00  0.00    +0.000 C 
ATOM     20  O   UNL     1       3.685   6.003  18.765  0.00  0.00    +0.000 OA
ENDBRANCH  13  20
ENDBRANCH   1  16
BRANCH   5  21
ATOM     21  C   UNL     1      -2.668  13.487  22.251  0.00  0.00    +0.000 A 
ATOM     22  C   UNL     1      -3.843  14.103  21.793  0.00  0.00    +0.000 A 
ATOM     23  C   UNL     1      -5.036  13.965  22.508  0.00  0.00    +0.000 A 
ATOM     24  C   UNL     1      -5.060  13.241  23.699  0.00  0.00    +0.000 A 
ATOM     25  C   UNL     1      -3.915  12.594  24.140  0.00  0.00    +0.000 A 
ATOM     26  C   UNL     1      -2.754  12.655  23.376  0.00  0.00    +0.000 A 
ENDBRANCH   5  21
BRANCH   1  27
ATOM     27  O   UNL     1      -0.359  10.848  17.764  0.00  0.00    +0.000 OA
ATOM     28  H   UNL     1      -0.166  10.094  17.179  0.00  0.00    +0.000 HD
ENDBRANCH   1  27
TORSDOF 4
ENDMDL
MODEL 6
REMARK VINA RESULT:      -6.9      3.261      8.223
REMARK  Name = 
REMARK  5 active torsions:
REMARK  status: ('A' for Active; 'I' for Inactive)
REMARK    1  A    between atoms: C_1  and  O_2
REMARK    2  A    between atoms: O_2  and  C_3
REMARK    3  A    between atoms: C_6  and  C_7
REMARK    4  A    between atoms: C_7  and  O_8
REMARK    5  A    between atoms: C_12  and  C_14
REMARK                            x       y       z     vdW  Elec       q    Type
REMARK                         _______ _______ _______ _____ _____    ______ ____
ROOT
ATOM      1  C   UNL     1       0.194  11.154  19.374  0.00  0.00    +0.000 C 
ATOM      2  C   UNL     1      -0.985  10.770  20.259  0.00  0.00    +0.000 C 
ATOM      3  C   UNL     1      -1.857  11.961  20.544  0.00  0.00    +0.000 C 
ATOM      4  N   UNL     1      -1.147  13.095  21.125  0.00  0.00    +0.000 N 
ATOM      5  C   UNL     1      -1.685  13.890  22.168  0.00  0.00    +0.000 C 
ATOM      6  O   UNL     1      -1.089  14.817  22.694  0.00  0.00    +0.000 OA
ATOM      7  C   UNL     1       0.037  13.533  20.320  0.00  0.00    +0.000 C 
ATOM      8  C   UNL     1       0.846  14.732  20.861  0.00  0.00    +0.000 C 
ATOM      9  C   UNL     1       2.044  15.081  19.981  0.00  0.00    +0.000 C 
ATOM     10  C   UNL     1       2.954  13.881  19.811  0.00  0.00    +0.000 C 
ATOM     11  C   UNL     1       2.188  12.724  19.188  0.00  0.00    +0.000 C 
ATOM     12  C   UNL     1       0.976  12.318  20.040  0.00  0.00    +0.000 C 
ENDROOT
BRANCH   1  16
ATOM     13  C   UNL     1       2.499   7.522  18.714  0.00  0.00    +0.000 A 
ATOM     14  C   UNL     1       2.295   8.426  17.674  0.00  0.00    +0.000 A 
ATOM     15  C   UNL     1       1.593   9.609  17.891  0.00  0.00    +0.000 A 
ATOM     16  C   UNL     1       1.029   9.893  19.144  0.00  0.00    +0.000 A 
ATOM     17  C   UNL     1       1.229   8.961  20.181  0.00  0.00    +0.000 A 
ATOM     18  C   UNL     1       1.958   7.787  19.969  0.00  0.00    +0.000 A 
BRANCH  13  20
ATOM     19  C   UNL     1       4.288   6.630  17.471  0.00  0.00    +0.000 C 
ATOM     20  O   UNL     1       3.215   6.409  18.376  0.00  0.00    +0.000 OA
ENDBRANCH  13  20
ENDBRANCH   1  16
BRANCH   5  21
ATOM     21  C   UNL     1      -3.038  13.588  22.747  0.00  0.00    +0.000 A 
ATOM     22  C   UNL     1      -4.151  14.233  22.184  0.00  0.00    +0.000 A 
ATOM     23  C   UNL     1      -5.424  14.043  22.727  0.00  0.00    +0.000 A 
ATOM     24  C   UNL     1      -5.594  13.236  23.852  0.00  0.00    +0.000 A 
ATOM     25  C   UNL     1      -4.509  12.561  24.391  0.00  0.00    +0.000 A 
ATOM     26  C   UNL     1      -3.260  12.678  23.789  0.00  0.00    +0.000 A 
ENDBRANCH   5  21
BRANCH   1  27
ATOM     27  O   UNL     1      -0.345  11.626  18.128  0.00  0.00    +0.000 OA
ATOM     28  H   UNL     1      -1.195  11.174  17.986  0.00  0.00    +0.000 HD
ENDBRANCH   1  27
TORSDOF 4
ENDMDL
MODEL 7
REMARK VINA RESULT:      -6.9      3.319      8.366
REMARK  Name = 
REMARK  5 active torsions:
REMARK  status: ('A' for Active; 'I' for Inactive)
REMARK    1  A    between atoms: C_1  and  O_2
REMARK    2  A    between atoms: O_2  and  C_3
REMARK    3  A    between atoms: C_6  and  C_7
REMARK    4  A    between atoms: C_7  and  O_8
REMARK    5  A    between atoms: C_12  and  C_14
REMARK                            x       y       z     vdW  Elec       q    Type
REMARK                         _______ _______ _______ _____ _____    ______ ____
ROOT
ATOM      1  C   UNL     1       5.059   5.401  17.665  0.00  0.00    +0.000 C 
ATOM      2  C   UNL     1       4.377   6.754  17.497  0.00  0.00    +0.000 C 
ATOM      3  C   UNL     1       3.863   7.266  18.814  0.00  0.00    +0.000 C 
ATOM      4  N   UNL     1       2.972   6.341  19.508  0.00  0.00    +0.000 N 
ATOM      5  C   UNL     1       1.802   6.762  20.187  0.00  0.00    +0.000 C 
ATOM      6  O   UNL     1       1.024   5.999  20.738  0.00  0.00    +0.000 OA
ATOM      7  C   UNL     1       3.563   4.981  19.707  0.00  0.00    +0.000 C 
ATOM      8  C   UNL     1       2.689   3.938  20.437  0.00  0.00    +0.000 C 
ATOM      9  C   UNL     1       3.373   2.580  20.565  0.00  0.00    +0.000 C 
ATOM     10  C   UNL     1       3.777   2.049  19.204  0.00  0.00    +0.000 C 
ATOM     11  C   UNL     1       4.717   3.027  18.517  0.00  0.00    +0.000 C 
ATOM     12  C   UNL     1       4.074   4.412  18.346  0.00  0.00    +0.000 C 
ENDROOT
BRANCH   1  16
ATOM     13  C   UNL     1       6.394   4.192  13.704  0.00  0.00    +0.000 A 
ATOM     14  C   UNL     1       7.285   4.779  14.599  0.00  0.00    +0.000 A 
ATOM     15  C   UNL     1       6.872   5.131  15.882  0.00  0.00    +0.000 A 
ATOM     16  C   UNL     1       5.540   4.952  16.284  0.00  0.00    +0.000 A 
ATOM     17  C   UNL     1       4.647   4.373  15.362  0.00  0.00    +0.000 A 
ATOM     18  C   UNL     1       5.069   3.995  14.084  0.00  0.00    +0.000 A 
BRANCH  13  20
ATOM     19  C   UNL     1       6.264   2.835  11.785  0.00  0.00    +0.000 C 
ATOM     20  O   UNL     1       6.925   3.880  12.485  0.00  0.00    +0.000 OA
ENDBRANCH  13  20
ENDBRANCH   1  16
BRANCH   5  21
ATOM     21  C   UNL     1       1.407   8.211  20.217  0.00  0.00    +0.000 A 
ATOM     22  C   UNL     1       1.336   8.898  18.995  0.00  0.00    +0.000 A 
ATOM     23  C   UNL     1       1.041  10.264  18.970  0.00  0.00    +0.000 A 
ATOM     24  C   UNL     1       0.845  10.961  20.162  0.00  0.00    +0.000 A 
ATOM     25  C   UNL     1       0.870  10.285  21.372  0.00  0.00    +0.000 A 
ATOM     26  C   UNL     1       1.070   8.908  21.386  0.00  0.00    +0.000 A 
ENDBRANCH   5  21
BRANCH   1  27
ATOM     27  O   UNL     1       6.181   5.596  18.543  0.00  0.00    +0.000 OA
ATOM     28  H   UNL     1       5.900   5.343  19.439  0.00  0.00    +0.000 HD
ENDBRANCH   1  27
TORSDOF 4
ENDMDL
MODEL 8
REMARK VINA RESULT:      -6.7      3.837      8.302
REMARK  Name = 
REMARK  5 active torsions:
REMARK  status: ('A' for Active; 'I' for Inactive)
REMARK    1  A    between atoms: C_1  and  O_2
REMARK    2  A    between atoms: O_2  and  C_3
REMARK    3  A    between atoms: C_6  and  C_7
REMARK    4  A    between atoms: C_7  and  O_8
REMARK    5  A    between atoms: C_12  and  C_14
REMARK                            x       y       z     vdW  Elec       q    Type
REMARK                         _______ _______ _______ _____ _____    ______ ____
ROOT
ATOM      1  C   UNL     1      -0.205  11.348  19.189  0.00  0.00    +0.000 C 
ATOM      2  C   UNL     1      -1.658  10.938  19.390  0.00  0.00    +0.000 C 
ATOM      3  C   UNL     1      -2.569  12.133  19.335  0.00  0.00    +0.000 C 
ATOM      4  N   UNL     1      -2.217  13.195  20.272  0.00  0.00    +0.000 N 
ATOM      5  C   UNL     1      -3.182  13.925  21.008  0.00  0.00    +0.000 C 
ATOM      6  O   UNL     1      -2.904  14.789  21.825  0.00  0.00    +0.000 OA
ATOM      7  C   UNL     1      -0.797  13.653  20.147  0.00  0.00    +0.000 C 
ATOM      8  C   UNL     1      -0.339  14.779  21.099  0.00  0.00    +0.000 C 
ATOM      9  C   UNL     1       1.129  15.153  20.908  0.00  0.00    +0.000 C 
ATOM     10  C   UNL     1       2.021  13.940  21.080  0.00  0.00    +0.000 C 
ATOM     11  C   UNL     1       1.638  12.860  20.079  0.00  0.00    +0.000 C 
ATOM     12  C   UNL     1       0.171  12.432  20.235  0.00  0.00    +0.000 C 
ENDROOT
BRANCH   1  16
ATOM     13  C   UNL     1       2.153   7.697  19.408  0.00  0.00    +0.000 A 
ATOM     14  C   UNL     1       2.070   8.411  18.216  0.00  0.00    +0.000 A 
ATOM     15  C   UNL     1       1.350   9.601  18.151  0.00  0.00    +0.000 A 
ATOM     16  C   UNL     1       0.649  10.081  19.268  0.00  0.00    +0.000 A 
ATOM     17  C   UNL     1       0.728   9.338  20.462  0.00  0.00    +0.000 A 
ATOM     18  C   UNL     1       1.474   8.158  20.533  0.00  0.00    +0.000 A 
BRANCH  13  20
ATOM     19  C   UNL     1       3.314   6.173  18.040  0.00  0.00    +0.000 C 
ATOM     20  O   UNL     1       2.901   6.556  19.345  0.00  0.00    +0.000 OA
ENDBRANCH  13  20
ENDBRANCH   1  16
BRANCH   5  21
ATOM     21  C   UNL     1      -4.648  13.626  20.866  0.00  0.00    +0.000 A 
ATOM     22  C   UNL     1      -5.220  12.706  21.759  0.00  0.00    +0.000 A 
ATOM     23  C   UNL     1      -6.562  12.339  21.629  0.00  0.00    +0.000 A 
ATOM     24  C   UNL     1      -7.335  12.860  20.592  0.00  0.00    +0.000 A 
ATOM     25  C   UNL     1      -6.793  13.802  19.729  0.00  0.00    +0.000 A 
ATOM     26  C   UNL     1      -5.485  14.235  19.920  0.00  0.00    +0.000 A 
ENDBRANCH   5  21
BRANCH   1  27
ATOM     27  O   UNL     1      -0.105  11.932  17.878  0.00  0.00    +0.000 OA
ATOM     28  H   UNL     1       0.046  12.886  17.993  0.00  0.00    +0.000 HD
ENDBRANCH   1  27
TORSDOF 4
ENDMDL
MODEL 9
REMARK VINA RESULT:      -6.7      3.595      8.374
REMARK  Name = 
REMARK  5 active torsions:
REMARK  status: ('A' for Active; 'I' for Inactive)
REMARK    1  A    between atoms: C_1  and  O_2
REMARK    2  A    between atoms: O_2  and  C_3
REMARK    3  A    between atoms: C_6  and  C_7
REMARK    4  A    between atoms: C_7  and  O_8
REMARK    5  A    between atoms: C_12  and  C_14
REMARK                            x       y       z     vdW  Elec       q    Type
REMARK                         _______ _______ _______ _____ _____    ______ ____
ROOT
ATOM      1  C   UNL     1       0.062  11.464  19.847  0.00  0.00    +0.000 C 
ATOM      2  C   UNL     1      -1.229  11.075  20.556  0.00  0.00    +0.000 C 
ATOM      3  C   UNL     1      -2.018  12.293  20.948  0.00  0.00    +0.000 C 
ATOM      4  N   UNL     1      -1.273  13.251  21.759  0.00  0.00    +0.000 N 
ATOM      5  C   UNL     1      -1.842  13.932  22.863  0.00  0.00    +0.000 C 
ATOM      6  O   UNL     1      -1.223  14.706  23.577  0.00  0.00    +0.000 OA
ATOM      7  C   UNL     1       0.019  13.681  21.137  0.00  0.00    +0.000 C 
ATOM      8  C   UNL     1       0.871  14.697  21.926  0.00  0.00    +0.000 C 
ATOM      9  C   UNL     1       2.177  15.049  21.219  0.00  0.00    +0.000 C 
ATOM     10  C   UNL     1       2.992  13.801  20.941  0.00  0.00    +0.000 C 
ATOM     11  C   UNL     1       2.194  12.834  20.081  0.00  0.00    +0.000 C 
ATOM     12  C   UNL     1       0.872  12.431  20.752  0.00  0.00    +0.000 C 
ENDROOT
BRANCH   1  16
ATOM     13  C   UNL     1       2.241   7.832  18.848  0.00  0.00    +0.000 A 
ATOM     14  C   UNL     1       1.791   8.048  20.148  0.00  0.00    +0.000 A 
ATOM     15  C   UNL     1       1.058   9.190  20.463  0.00  0.00    +0.000 A 
ATOM     16  C   UNL     1       0.803  10.172  19.494  0.00  0.00    +0.000 A 
ATOM     17  C   UNL     1       1.280   9.948  18.189  0.00  0.00    +0.000 A 
ATOM     18  C   UNL     1       1.992   8.788  17.867  0.00  0.00    +0.000 A 
BRANCH  13  20
ATOM     19  C   UNL     1       2.741   5.683  19.671  0.00  0.00    +0.000 C 
ATOM     20  O   UNL     1       2.935   6.669  18.665  0.00  0.00    +0.000 OA
ENDBRANCH  13  20
ENDBRANCH   1  16
BRANCH   5  21
ATOM     21  C   UNL     1      -3.268  13.688  23.269  0.00  0.00    +0.000 A 
ATOM     22  C   UNL     1      -3.519  12.675  24.208  0.00  0.00    +0.000 A 
ATOM     23  C   UNL     1      -4.830  12.358  24.570  0.00  0.00    +0.000 A 
ATOM     24  C   UNL     1      -5.902  13.025  23.977  0.00  0.00    +0.000 A 
ATOM     25  C   UNL     1      -5.666  14.056  23.080  0.00  0.00    +0.000 A 
ATOM     26  C   UNL     1      -4.357  14.432  22.794  0.00  0.00    +0.000 A 
ENDBRANCH   5  21
BRANCH   1  27
ATOM     27  O   UNL     1      -0.305  12.168  18.648  0.00  0.00    +0.000 OA
ATOM     28  H   UNL     1      -0.615  13.052  18.911  0.00  0.00    +0.000 HD
ENDBRANCH   1  27
TORSDOF 4
ENDMDL
