MODEL 1
REMARK VINA RESULT:      -9.6      0.000      0.000
REMARK  Name = 
REMARK  12 active torsions:
REMARK  status: ('A' for Active; 'I' for Inactive)
REMARK    1  A    between atoms: C_1  and  O_2
REMARK    2  A    between atoms: O_2  and  C_3
REMARK    3  A    between atoms: C_3  and  C_4
REMARK    4  A    between atoms: C_4  and  N_5
REMARK    5  A    between atoms: C_6  and  C_8
REMARK    6  A    between atoms: C_11  and  C_12
REMARK    7  A    between atoms: C_14  and  C_15
REMARK    8  A    between atoms: N_17  and  C_18
REMARK    9  A    between atoms: C_18  and  C_19
REMARK   10  A    between atoms: C_18  and  C_20
REMARK   11  A    between atoms: C_31  and  O_32
REMARK   12  A    between atoms: O_32  and  C_33
REMARK                            x       y       z     vdW  Elec       q    Type
REMARK                         _______ _______ _______ _____ _____    ______ ____
ROOT
ATOM      1  C   UNL     1       1.081   9.350  19.844  0.00  0.00    +0.000 A 
ATOM      2  C   UNL     1       1.490   8.000  19.758  0.00  0.00    +0.000 A 
ATOM      3  C   UNL     1       2.283   7.536  18.707  0.00  0.00    +0.000 A 
ATOM      4  C   UNL     1       2.613   8.397  17.667  0.00  0.00    +0.000 A 
ATOM      5  C   UNL     1       2.168   9.718  17.693  0.00  0.00    +0.000 A 
ATOM      6  C   UNL     1       1.402  10.207  18.767  0.00  0.00    +0.000 A 
ENDROOT
BRANCH   3   7
ATOM      7  C   UNL     1       2.898   6.180  18.734  0.00  0.00    +0.000 C 
ATOM      8  N   UNL     1       4.136   6.031  18.371  0.00  0.00    +0.000 NA
ATOM      9  N   UNL     1       4.720   4.792  18.572  0.00  0.00    +0.000 N 
ATOM     10  C   UNL     1       4.264   3.875  19.529  0.00  0.00    +0.000 C 
ATOM     11  O   UNL     1       4.880   2.856  19.836  0.00  0.00    +0.000 OA
ATOM     12  C   UNL     1       2.973   4.274  20.232  0.00  0.00    +0.000 C 
ATOM     13  C   UNL     1       2.230   3.066  20.818  0.00  0.00    +0.000 C 
ATOM     14  C   UNL     1       1.457   2.287  19.788  0.00  0.00    +0.000 C 
ATOM     15  C   UNL     1       1.189   2.756  18.561  0.00  0.00    +0.000 C 
ATOM     16  C   UNL     1       1.589   4.127  18.098  0.00  0.00    +0.000 C 
ATOM     17  C   UNL     1       2.076   5.023  19.251  0.00  0.00    +0.000 C 
BRANCH   9  18
ATOM     18  C   UNL     1       5.932   4.504  17.797  0.00  0.00    +0.000 C 
ATOM     19  C   UNL     1       5.626   4.487  16.297  0.00  0.00    +0.000 C 
ATOM     20  C   UNL     1       7.058   5.483  18.117  0.00  0.00    +0.000 C 
ENDBRANCH   9  18
ENDBRANCH   3   7
BRANCH   1  24
ATOM     21  C   UNL     1      -1.009  11.147  22.670  0.00  0.00    +0.000 A 
ATOM     22  C   UNL     1      -0.451  10.031  23.263  0.00  0.00    +0.000 A 
ATOM     23  C   UNL     1       0.357   9.267  22.357  0.00  0.00    +0.000 A 
ATOM     24  C   UNL     1       0.394   9.803  21.082  0.00  0.00    +0.000 A 
ATOM     25  S   UNL     1      -0.600  11.214  21.015  0.00  0.00    +0.000 S 
BRANCH  21  27
ATOM     26  N   UNL     1      -3.149  11.796  23.550  0.00  0.00    +0.000 N 
ATOM     27  C   UNL     1      -1.846  12.172  23.290  0.00  0.00    +0.000 C 
ATOM     28  O   UNL     1      -1.436  13.298  23.563  0.00  0.00    +0.000 OA
ATOM     29  H   UNL     1      -3.362  10.806  23.506  0.00  0.00    +0.000 HD
BRANCH  26  30
ATOM     30  C   UNL     1      -4.075  12.637  24.286  0.00  0.00    +0.000 C 
BRANCH  30  31
ATOM     31  C   UNL     1      -5.240  13.092  23.405  0.00  0.00    +0.000 C 
BRANCH  31  33
ATOM     32  C   UNL     1      -6.142  12.774  21.243  0.00  0.00    +0.000 C 
ATOM     33  O   UNL     1      -5.340  12.215  22.276  0.00  0.00    +0.000 OA
ENDBRANCH  31  33
ENDBRANCH  30  31
ENDBRANCH  26  30
ENDBRANCH  21  27
ENDBRANCH   1  24
BRANCH   6  34
ATOM     34  O   UNL     1       1.006  11.521  18.842  0.00  0.00    +0.000 OA
ATOM     35  C   UNL     1       2.001  12.501  18.553  0.00  0.00    +0.000 C 
ENDBRANCH   6  34
TORSDOF 8
ENDMDL
MODEL 2
REMARK VINA RESULT:      -9.3      1.337      2.028
REMARK  Name = 
REMARK  12 active torsions:
REMARK  status: ('A' for Active; 'I' for Inactive)
REMARK    1  A    between atoms: C_1  and  O_2
REMARK    2  A    between atoms: O_2  and  C_3
REMARK    3  A    between atoms: C_3  and  C_4
REMARK    4  A    between atoms: C_4  and  N_5
REMARK    5  A    between atoms: C_6  and  C_8
REMARK    6  A    between atoms: C_11  and  C_12
REMARK    7  A    between atoms: C_14  and  C_15
REMARK    8  A    between atoms: N_17  and  C_18
REMARK    9  A    between atoms: C_18  and  C_19
REMARK   10  A    between atoms: C_18  and  C_20
REMARK   11  A    between atoms: C_31  and  O_32
REMARK   12  A    between atoms: O_32  and  C_33
REMARK                            x       y       z     vdW  Elec       q    Type
REMARK                         _______ _______ _______ _____ _____    ______ ____
ROOT
ATOM      1  C   UNL     1       1.061   9.363  19.862  0.00  0.00    +0.000 A 
ATOM      2  C   UNL     1       1.460   8.012  19.761  0.00  0.00    +0.000 A 
ATOM      3  C   UNL     1       2.269   7.559  18.716  0.00  0.00    +0.000 A 
ATOM      4  C   UNL     1       2.624   8.433  17.697  0.00  0.00    +0.000 A 
ATOM      5  C   UNL     1       2.189   9.758  17.737  0.00  0.00    +0.000 A 
ATOM      6  C   UNL     1       1.409  10.236  18.806  0.00  0.00    +0.000 A 
ENDROOT
BRANCH   3   7
ATOM      7  C   UNL     1       2.871   6.197  18.732  0.00  0.00    +0.000 C 
ATOM      8  N   UNL     1       4.075   6.025  18.276  0.00  0.00    +0.000 NA
ATOM      9  N   UNL     1       4.662   4.785  18.465  0.00  0.00    +0.000 N 
ATOM     10  C   UNL     1       4.275   3.899  19.479  0.00  0.00    +0.000 C 
ATOM     11  O   UNL     1       4.904   2.881  19.764  0.00  0.00    +0.000 OA
ATOM     12  C   UNL     1       3.047   4.331  20.270  0.00  0.00    +0.000 C 
ATOM     13  C   UNL     1       2.342   3.146  20.945  0.00  0.00    +0.000 C 
ATOM     14  C   UNL     1       1.483   2.349  20.001  0.00  0.00    +0.000 C 
ATOM     15  C   UNL     1       1.123   2.789  18.786  0.00  0.00    +0.000 C 
ATOM     16  C   UNL     1       1.498   4.142  18.257  0.00  0.00    +0.000 C 
ATOM     17  C   UNL     1       2.083   5.063  19.343  0.00  0.00    +0.000 C 
BRANCH   9  18
ATOM     18  C   UNL     1       5.807   4.464  17.604  0.00  0.00    +0.000 C 
ATOM     19  C   UNL     1       5.510   4.826  16.148  0.00  0.00    +0.000 C 
ATOM     20  C   UNL     1       7.089   5.137  18.088  0.00  0.00    +0.000 C 
ENDBRANCH   9  18
ENDBRANCH   3   7
BRANCH   1  24
ATOM     21  C   UNL     1      -1.148  11.067  22.656  0.00  0.00    +0.000 A 
ATOM     22  C   UNL     1      -0.461  10.047  23.285  0.00  0.00    +0.000 A 
ATOM     23  C   UNL     1       0.405   9.330  22.395  0.00  0.00    +0.000 A 
ATOM     24  C   UNL     1       0.356   9.802  21.095  0.00  0.00    +0.000 A 
ATOM     25  S   UNL     1      -0.785  11.095  20.989  0.00  0.00    +0.000 S 
BRANCH  21  27
ATOM     26  N   UNL     1      -1.640  13.336  23.274  0.00  0.00    +0.000 N 
ATOM     27  C   UNL     1      -2.077  12.026  23.248  0.00  0.00    +0.000 C 
ATOM     28  O   UNL     1      -3.174  11.706  23.703  0.00  0.00    +0.000 OA
ATOM     29  H   UNL     1      -0.839  13.568  22.698  0.00  0.00    +0.000 HD
BRANCH  26  30
ATOM     30  C   UNL     1      -2.487  14.436  23.697  0.00  0.00    +0.000 C 
BRANCH  30  31
ATOM     31  C   UNL     1      -1.658  15.625  24.188  0.00  0.00    +0.000 C 
BRANCH  31  33
ATOM     32  C   UNL     1      -0.841  15.921  26.387  0.00  0.00    +0.000 C 
ATOM     33  O   UNL     1      -0.734  15.168  25.184  0.00  0.00    +0.000 OA
ENDBRANCH  31  33
ENDBRANCH  30  31
ENDBRANCH  26  30
ENDBRANCH  21  27
ENDBRANCH   1  24
BRANCH   6  34
ATOM     34  O   UNL     1       1.022  11.551  18.895  0.00  0.00    +0.000 OA
ATOM     35  C   UNL     1       1.979  12.523  18.477  0.00  0.00    +0.000 C 
ENDBRANCH   6  34
TORSDOF 8
ENDMDL
MODEL 3
REMARK VINA RESULT:      -9.1      0.980      2.810
REMARK  Name = 
REMARK  12 active torsions:
REMARK  status: ('A' for Active; 'I' for Inactive)
REMARK    1  A    between atoms: C_1  and  O_2
REMARK    2  A    between atoms: O_2  and  C_3
REMARK    3  A    between atoms: C_3  and  C_4
REMARK    4  A    between atoms: C_4  and  N_5
REMARK    5  A    between atoms: C_6  and  C_8
REMARK    6  A    between atoms: C_11  and  C_12
REMARK    7  A    between atoms: C_14  and  C_15
REMARK    8  A    between atoms: N_17  and  C_18
REMARK    9  A    between atoms: C_18  and  C_19
REMARK   10  A    between atoms: C_18  and  C_20
REMARK   11  A    between atoms: C_31  and  O_32
REMARK   12  A    between atoms: O_32  and  C_33
REMARK                            x       y       z     vdW  Elec       q    Type
REMARK                         _______ _______ _______ _____ _____    ______ ____
ROOT
ATOM      1  C   UNL     1       1.089   9.361  19.843  0.00  0.00    +0.000 A 
ATOM      2  C   UNL     1       1.458   8.002  19.734  0.00  0.00    +0.000 A 
ATOM      3  C   UNL     1       2.258   7.538  18.687  0.00  0.00    +0.000 A 
ATOM      4  C   UNL     1       2.634   8.411  17.674  0.00  0.00    +0.000 A 
ATOM      5  C   UNL     1       2.229   9.745  17.722  0.00  0.00    +0.000 A 
ATOM      6  C   UNL     1       1.457  10.233  18.793  0.00  0.00    +0.000 A 
ENDROOT
BRANCH   3   7
ATOM      7  C   UNL     1       2.830   6.163  18.694  0.00  0.00    +0.000 C 
ATOM      8  N   UNL     1       2.133   5.182  19.182  0.00  0.00    +0.000 NA
ATOM      9  N   UNL     1       2.625   3.899  19.015  0.00  0.00    +0.000 N 
ATOM     10  C   UNL     1       3.520   3.547  17.995  0.00  0.00    +0.000 C 
ATOM     11  O   UNL     1       3.820   2.383  17.731  0.00  0.00    +0.000 OA
ATOM     12  C   UNL     1       4.040   4.716  17.170  0.00  0.00    +0.000 C 
ATOM     13  C   UNL     1       5.373   4.396  16.481  0.00  0.00    +0.000 C 
ATOM     14  C   UNL     1       6.557   4.491  17.406  0.00  0.00    +0.000 C 
ATOM     15  C   UNL     1       6.504   5.082  18.609  0.00  0.00    +0.000 C 
ATOM     16  C   UNL     1       5.273   5.755  19.141  0.00  0.00    +0.000 C 
ATOM     17  C   UNL     1       4.187   5.940  18.067  0.00  0.00    +0.000 C 
BRANCH   9  18
ATOM     18  C   UNL     1       2.083   2.867  19.907  0.00  0.00    +0.000 C 
ATOM     19  C   UNL     1       2.102   3.343  21.361  0.00  0.00    +0.000 C 
ATOM     20  C   UNL     1       0.681   2.433  19.488  0.00  0.00    +0.000 C 
ENDBRANCH   9  18
ENDBRANCH   3   7
BRANCH   1  24
ATOM     21  C   UNL     1      -1.021  11.143  22.665  0.00  0.00    +0.000 A 
ATOM     22  C   UNL     1      -0.471  10.021  23.254  0.00  0.00    +0.000 A 
ATOM     23  C   UNL     1       0.343   9.262  22.350  0.00  0.00    +0.000 A 
ATOM     24  C   UNL     1       0.392   9.807  21.079  0.00  0.00    +0.000 A 
ATOM     25  S   UNL     1      -0.598  11.222  21.014  0.00  0.00    +0.000 S 
BRANCH  21  27
ATOM     26  N   UNL     1      -3.155  11.776  23.571  0.00  0.00    +0.000 N 
ATOM     27  C   UNL     1      -1.861  12.166  23.285  0.00  0.00    +0.000 C 
ATOM     28  O   UNL     1      -1.461  13.301  23.535  0.00  0.00    +0.000 OA
ATOM     29  H   UNL     1      -3.355  10.784  23.545  0.00  0.00    +0.000 HD
BRANCH  26  30
ATOM     30  C   UNL     1      -4.079  12.615  24.311  0.00  0.00    +0.000 C 
BRANCH  30  31
ATOM     31  C   UNL     1      -5.215  13.121  23.419  0.00  0.00    +0.000 C 
BRANCH  31  33
ATOM     32  C   UNL     1      -6.477  12.572  21.497  0.00  0.00    +0.000 C 
ATOM     33  O   UNL     1      -5.339  12.250  22.287  0.00  0.00    +0.000 OA
ENDBRANCH  31  33
ENDBRANCH  30  31
ENDBRANCH  26  30
ENDBRANCH  21  27
ENDBRANCH   1  24
BRANCH   6  34
ATOM     34  O   UNL     1       1.100  11.556  18.891  0.00  0.00    +0.000 OA
ATOM     35  C   UNL     1       2.054  12.507  18.423  0.00  0.00    +0.000 C 
ENDBRANCH   6  34
TORSDOF 8
ENDMDL
MODEL 4
REMARK VINA RESULT:      -9.0      1.290      1.603
REMARK  Name = 
REMARK  12 active torsions:
REMARK  status: ('A' for Active; 'I' for Inactive)
REMARK    1  A    between atoms: C_1  and  O_2
REMARK    2  A    between atoms: O_2  and  C_3
REMARK    3  A    between atoms: C_3  and  C_4
REMARK    4  A    between atoms: C_4  and  N_5
REMARK    5  A    between atoms: C_6  and  C_8
REMARK    6  A    between atoms: C_11  and  C_12
REMARK    7  A    between atoms: C_14  and  C_15
REMARK    8  A    between atoms: N_17  and  C_18
REMARK    9  A    between atoms: C_18  and  C_19
REMARK   10  A    between atoms: C_18  and  C_20
REMARK   11  A    between atoms: C_31  and  O_32
REMARK   12  A    between atoms: O_32  and  C_33
REMARK                            x       y       z     vdW  Elec       q    Type
REMARK                         _______ _______ _______ _____ _____    ______ ____
ROOT
ATOM      1  C   UNL     1       1.077   9.332  19.851  0.00  0.00    +0.000 A 
ATOM      2  C   UNL     1       1.482   7.982  19.751  0.00  0.00    +0.000 A 
ATOM      3  C   UNL     1       2.285   7.531  18.701  0.00  0.00    +0.000 A 
ATOM      4  C   UNL     1       2.628   8.404  17.676  0.00  0.00    +0.000 A 
ATOM      5  C   UNL     1       2.187   9.727  17.716  0.00  0.00    +0.000 A 
ATOM      6  C   UNL     1       1.412  10.203  18.789  0.00  0.00    +0.000 A 
ENDROOT
BRANCH   3   7
ATOM      7  C   UNL     1       2.895   6.173  18.716  0.00  0.00    +0.000 C 
ATOM      8  N   UNL     1       4.121   6.017  18.315  0.00  0.00    +0.000 NA
ATOM      9  N   UNL     1       4.706   4.777  18.504  0.00  0.00    +0.000 N 
ATOM     10  C   UNL     1       4.276   3.866  19.479  0.00  0.00    +0.000 C 
ATOM     11  O   UNL     1       4.897   2.845  19.772  0.00  0.00    +0.000 OA
ATOM     12  C   UNL     1       3.009   4.273  20.220  0.00  0.00    +0.000 C 
ATOM     13  C   UNL     1       2.280   3.071  20.834  0.00  0.00    +0.000 C 
ATOM     14  C   UNL     1       1.473   2.290  19.832  0.00  0.00    +0.000 C 
ATOM     15  C   UNL     1       1.169   2.754  18.611  0.00  0.00    +0.000 C 
ATOM     16  C   UNL     1       1.560   4.122  18.131  0.00  0.00    +0.000 C 
ATOM     17  C   UNL     1       2.085   5.021  19.264  0.00  0.00    +0.000 C 
BRANCH   9  18
ATOM     18  C   UNL     1       5.893   4.480  17.693  0.00  0.00    +0.000 C 
ATOM     19  C   UNL     1       5.597   4.681  16.206  0.00  0.00    +0.000 C 
ATOM     20  C   UNL     1       7.100   5.305  18.131  0.00  0.00    +0.000 C 
ENDBRANCH   9  18
ENDBRANCH   3   7
BRANCH   1  24
ATOM     21  C   UNL     1      -1.107  11.044  22.660  0.00  0.00    +0.000 A 
ATOM     22  C   UNL     1      -0.433  10.010  23.281  0.00  0.00    +0.000 A 
ATOM     23  C   UNL     1       0.422   9.287  22.384  0.00  0.00    +0.000 A 
ATOM     24  C   UNL     1       0.379   9.771  21.088  0.00  0.00    +0.000 A 
ATOM     25  S   UNL     1      -0.744  11.080  20.993  0.00  0.00    +0.000 S 
BRANCH  21  27
ATOM     26  N   UNL     1      -1.534  13.300  23.370  0.00  0.00    +0.000 N 
ATOM     27  C   UNL     1      -2.021  12.011  23.261  0.00  0.00    +0.000 C 
ATOM     28  O   UNL     1      -3.148  11.716  23.655  0.00  0.00    +0.000 OA
ATOM     29  H   UNL     1      -0.702  13.525  22.839  0.00  0.00    +0.000 HD
BRANCH  26  30
ATOM     30  C   UNL     1      -2.355  14.412  23.812  0.00  0.00    +0.000 C 
BRANCH  30  31
ATOM     31  C   UNL     1      -1.847  15.741  23.250  0.00  0.00    +0.000 C 
BRANCH  31  33
ATOM     32  C   UNL     1      -2.297  15.945  20.938  0.00  0.00    +0.000 C 
ATOM     33  O   UNL     1      -1.357  15.527  21.921  0.00  0.00    +0.000 OA
ENDBRANCH  31  33
ENDBRANCH  30  31
ENDBRANCH  26  30
ENDBRANCH  21  27
ENDBRANCH   1  24
BRANCH   6  34
ATOM     34  O   UNL     1       1.019  11.518  18.878  0.00  0.00    +0.000 OA
ATOM     35  C   UNL     1       2.006  12.497  18.564  0.00  0.00    +0.000 C 
ENDBRANCH   6  34
TORSDOF 8
ENDMDL
MODEL 5
REMARK VINA RESULT:      -8.6      1.637      3.217
REMARK  Name = 
REMARK  12 active torsions:
REMARK  status: ('A' for Active; 'I' for Inactive)
REMARK    1  A    between atoms: C_1  and  O_2
REMARK    2  A    between atoms: O_2  and  C_3
REMARK    3  A    between atoms: C_3  and  C_4
REMARK    4  A    between atoms: C_4  and  N_5
REMARK    5  A    between atoms: C_6  and  C_8
REMARK    6  A    between atoms: C_11  and  C_12
REMARK    7  A    between atoms: C_14  and  C_15
REMARK    8  A    between atoms: N_17  and  C_18
REMARK    9  A    between atoms: C_18  and  C_19
REMARK   10  A    between atoms: C_18  and  C_20
REMARK   11  A    between atoms: C_31  and  O_32
REMARK   12  A    between atoms: O_32  and  C_33
REMARK                            x       y       z     vdW  Elec       q    Type
REMARK                         _______ _______ _______ _____ _____    ______ ____
ROOT
ATOM      1  C   UNL     1       1.070   9.332  19.841  0.00  0.00    +0.000 A 
ATOM      2  C   UNL     1       1.439   7.974  19.715  0.00  0.00    +0.000 A 
ATOM      3  C   UNL     1       2.230   7.522  18.657  0.00  0.00    +0.000 A 
ATOM      4  C   UNL     1       2.598   8.406  17.650  0.00  0.00    +0.000 A 
ATOM      5  C   UNL     1       2.192   9.739  17.716  0.00  0.00    +0.000 A 
ATOM      6  C   UNL     1       1.429  10.215  18.797  0.00  0.00    +0.000 A 
ENDROOT
BRANCH   3   7
ATOM      7  C   UNL     1       2.803   6.148  18.645  0.00  0.00    +0.000 C 
ATOM      8  N   UNL     1       2.070   5.145  19.025  0.00  0.00    +0.000 NA
ATOM      9  N   UNL     1       2.578   3.871  18.839  0.00  0.00    +0.000 N 
ATOM     10  C   UNL     1       3.555   3.567  17.881  0.00  0.00    +0.000 C 
ATOM     11  O   UNL     1       3.879   2.417  17.587  0.00  0.00    +0.000 OA
ATOM     12  C   UNL     1       4.139   4.774  17.159  0.00  0.00    +0.000 C 
ATOM     13  C   UNL     1       5.526   4.486  16.569  0.00  0.00    +0.000 C 
ATOM     14  C   UNL     1       6.629   4.534  17.593  0.00  0.00    +0.000 C 
ATOM     15  C   UNL     1       6.475   5.066  18.814  0.00  0.00    +0.000 C 
ATOM     16  C   UNL     1       5.201   5.714  19.274  0.00  0.00    +0.000 C 
ATOM     17  C   UNL     1       4.208   5.953  18.123  0.00  0.00    +0.000 C 
BRANCH   9  18
ATOM     18  C   UNL     1       1.966   2.798  19.631  0.00  0.00    +0.000 C 
ATOM     19  C   UNL     1       1.711   3.262  21.067  0.00  0.00    +0.000 C 
ATOM     20  C   UNL     1       0.685   2.274  18.987  0.00  0.00    +0.000 C 
ENDBRANCH   9  18
ENDBRANCH   3   7
BRANCH   1  24
ATOM     21  C   UNL     1      -1.087  11.033  22.678  0.00  0.00    +0.000 A 
ATOM     22  C   UNL     1      -0.414   9.992  23.286  0.00  0.00    +0.000 A 
ATOM     23  C   UNL     1       0.432   9.272  22.379  0.00  0.00    +0.000 A 
ATOM     24  C   UNL     1       0.382   9.765  21.087  0.00  0.00    +0.000 A 
ATOM     25  S   UNL     1      -0.736  11.080  21.008  0.00  0.00    +0.000 S 
BRANCH  21  27
ATOM     26  N   UNL     1      -1.476  13.269  23.467  0.00  0.00    +0.000 N 
ATOM     27  C   UNL     1      -1.993  12.000  23.292  0.00  0.00    +0.000 C 
ATOM     28  O   UNL     1      -3.139  11.720  23.641  0.00  0.00    +0.000 OA
ATOM     29  H   UNL     1      -0.623  13.493  22.970  0.00  0.00    +0.000 HD
BRANCH  26  30
ATOM     30  C   UNL     1      -2.280  14.385  23.932  0.00  0.00    +0.000 C 
BRANCH  30  31
ATOM     31  C   UNL     1      -2.691  15.299  22.775  0.00  0.00    +0.000 C 
BRANCH  31  33
ATOM     32  C   UNL     1      -3.368  16.757  24.509  0.00  0.00    +0.000 C 
ATOM     33  O   UNL     1      -3.696  16.210  23.237  0.00  0.00    +0.000 OA
ENDBRANCH  31  33
ENDBRANCH  30  31
ENDBRANCH  26  30
ENDBRANCH  21  27
ENDBRANCH   1  24
BRANCH   6  34
ATOM     34  O   UNL     1       1.071  11.537  18.912  0.00  0.00    +0.000 OA
ATOM     35  C   UNL     1       2.089  12.496  18.630  0.00  0.00    +0.000 C 
ENDBRANCH   6  34
TORSDOF 8
ENDMDL
MODEL 6
REMARK VINA RESULT:      -8.4      0.991      1.259
REMARK  Name = 
REMARK  12 active torsions:
REMARK  status: ('A' for Active; 'I' for Inactive)
REMARK    1  A    between atoms: C_1  and  O_2
REMARK    2  A    between atoms: O_2  and  C_3
REMARK    3  A    between atoms: C_3  and  C_4
REMARK    4  A    between atoms: C_4  and  N_5
REMARK    5  A    between atoms: C_6  and  C_8
REMARK    6  A    between atoms: C_11  and  C_12
REMARK    7  A    between atoms: C_14  and  C_15
REMARK    8  A    between atoms: N_17  and  C_18
REMARK    9  A    between atoms: C_18  and  C_19
REMARK   10  A    between atoms: C_18  and  C_20
REMARK   11  A    between atoms: C_31  and  O_32
REMARK   12  A    between atoms: O_32  and  C_33
REMARK                            x       y       z     vdW  Elec       q    Type
REMARK                         _______ _______ _______ _____ _____    ______ ____
ROOT
ATOM      1  C   UNL     1       1.128   9.383  19.706  0.00  0.00    +0.000 A 
ATOM      2  C   UNL     1       1.478   8.014  19.705  0.00  0.00    +0.000 A 
ATOM      3  C   UNL     1       2.310   7.468  18.725  0.00  0.00    +0.000 A 
ATOM      4  C   UNL     1       2.740   8.263  17.671  0.00  0.00    +0.000 A 
ATOM      5  C   UNL     1       2.356   9.603  17.611  0.00  0.00    +0.000 A 
ATOM      6  C   UNL     1       1.551  10.174  18.614  0.00  0.00    +0.000 A 
ENDROOT
BRANCH   3   7
ATOM      7  C   UNL     1       2.858   6.089  18.850  0.00  0.00    +0.000 C 
ATOM      8  N   UNL     1       4.048   5.830  18.398  0.00  0.00    +0.000 NA
ATOM      9  N   UNL     1       4.588   4.588  18.684  0.00  0.00    +0.000 N 
ATOM     10  C   UNL     1       4.180   3.806  19.774  0.00  0.00    +0.000 C 
ATOM     11  O   UNL     1       4.773   2.792  20.138  0.00  0.00    +0.000 OA
ATOM     12  C   UNL     1       2.981   4.353  20.538  0.00  0.00    +0.000 C 
ATOM     13  C   UNL     1       2.239   3.259  21.319  0.00  0.00    +0.000 C 
ATOM     14  C   UNL     1       1.337   2.420  20.454  0.00  0.00    +0.000 C 
ATOM     15  C   UNL     1       0.978   2.771  19.210  0.00  0.00    +0.000 C 
ATOM     16  C   UNL     1       1.399   4.059  18.564  0.00  0.00    +0.000 C 
ATOM     17  C   UNL     1       2.034   5.043  19.563  0.00  0.00    +0.000 C 
BRANCH   9  18
ATOM     18  C   UNL     1       5.708   4.149  17.843  0.00  0.00    +0.000 C 
ATOM     19  C   UNL     1       5.288   4.084  16.373  0.00  0.00    +0.000 C 
ATOM     20  C   UNL     1       6.937   5.035  18.025  0.00  0.00    +0.000 C 
ENDBRANCH   9  18
ENDBRANCH   3   7
BRANCH   1  24
ATOM     21  C   UNL     1      -1.069  11.380  22.309  0.00  0.00    +0.000 A 
ATOM     22  C   UNL     1      -0.550  10.302  22.999  0.00  0.00    +0.000 A 
ATOM     23  C   UNL     1       0.291   9.474  22.184  0.00  0.00    +0.000 A 
ATOM     24  C   UNL     1       0.390   9.923  20.878  0.00  0.00    +0.000 A 
ATOM     25  S   UNL     1      -0.586  11.333  20.673  0.00  0.00    +0.000 S 
BRANCH  21  27
ATOM     26  N   UNL     1      -3.238  12.098  23.055  0.00  0.00    +0.000 N 
ATOM     27  C   UNL     1      -1.923  12.450  22.820  0.00  0.00    +0.000 C 
ATOM     28  O   UNL     1      -1.516  13.592  23.027  0.00  0.00    +0.000 OA
ATOM     29  H   UNL     1      -3.455  11.109  23.075  0.00  0.00    +0.000 HD
BRANCH  26  30
ATOM     30  C   UNL     1      -4.186  12.993  23.692  0.00  0.00    +0.000 C 
BRANCH  30  31
ATOM     31  C   UNL     1      -3.949  13.079  25.202  0.00  0.00    +0.000 C 
BRANCH  31  33
ATOM     32  C   UNL     1      -3.809  15.398  24.766  0.00  0.00    +0.000 C 
ATOM     33  O   UNL     1      -3.267  14.304  25.497  0.00  0.00    +0.000 OA
ENDBRANCH  31  33
ENDBRANCH  30  31
ENDBRANCH  26  30
ENDBRANCH  21  27
ENDBRANCH   1  24
BRANCH   6  34
ATOM     34  O   UNL     1       1.212  11.506  18.607  0.00  0.00    +0.000 OA
ATOM     35  C   UNL     1       2.264  12.427  18.324  0.00  0.00    +0.000 C 
ENDBRANCH   6  34
TORSDOF 8
ENDMDL
MODEL 7
REMARK VINA RESULT:      -8.3      3.991      5.096
REMARK  Name = 
REMARK  12 active torsions:
REMARK  status: ('A' for Active; 'I' for Inactive)
REMARK    1  A    between atoms: C_1  and  O_2
REMARK    2  A    between atoms: O_2  and  C_3
REMARK    3  A    between atoms: C_3  and  C_4
REMARK    4  A    between atoms: C_4  and  N_5
REMARK    5  A    between atoms: C_6  and  C_8
REMARK    6  A    between atoms: C_11  and  C_12
REMARK    7  A    between atoms: C_14  and  C_15
REMARK    8  A    between atoms: N_17  and  C_18
REMARK    9  A    between atoms: C_18  and  C_19
REMARK   10  A    between atoms: C_18  and  C_20
REMARK   11  A    between atoms: C_31  and  O_32
REMARK   12  A    between atoms: O_32  and  C_33
REMARK                            x       y       z     vdW  Elec       q    Type
REMARK                         _______ _______ _______ _____ _____    ______ ____
ROOT
ATOM      1  C   UNL     1       0.314   9.605  19.587  0.00  0.00    +0.000 A 
ATOM      2  C   UNL     1       1.242   8.710  19.010  0.00  0.00    +0.000 A 
ATOM      3  C   UNL     1       1.959   7.793  19.782  0.00  0.00    +0.000 A 
ATOM      4  C   UNL     1       1.826   7.810  21.165  0.00  0.00    +0.000 A 
ATOM      5  C   UNL     1       0.965   8.728  21.767  0.00  0.00    +0.000 A 
ATOM      6  C   UNL     1       0.208   9.629  20.996  0.00  0.00    +0.000 A 
ENDROOT
BRANCH   3   7
ATOM      7  C   UNL     1       2.761   6.707  19.155  0.00  0.00    +0.000 C 
ATOM      8  N   UNL     1       3.839   7.006  18.495  0.00  0.00    +0.000 NA
ATOM      9  N   UNL     1       4.647   5.963  18.076  0.00  0.00    +0.000 N 
ATOM     10  C   UNL     1       4.654   4.703  18.690  0.00  0.00    +0.000 C 
ATOM     11  O   UNL     1       5.489   3.834  18.442  0.00  0.00    +0.000 OA
ATOM     12  C   UNL     1       3.589   4.509  19.762  0.00  0.00    +0.000 C 
ATOM     13  C   UNL     1       3.262   3.029  19.997  0.00  0.00    +0.000 C 
ATOM     14  C   UNL     1       2.349   2.448  18.951  0.00  0.00    +0.000 C 
ATOM     15  C   UNL     1       1.651   3.199  18.086  0.00  0.00    +0.000 C 
ATOM     16  C   UNL     1       1.668   4.700  18.100  0.00  0.00    +0.000 C 
ATOM     17  C   UNL     1       2.330   5.274  19.366  0.00  0.00    +0.000 C 
BRANCH   9  18
ATOM     18  C   UNL     1       5.598   6.261  16.998  0.00  0.00    +0.000 C 
ATOM     19  C   UNL     1       4.868   6.781  15.758  0.00  0.00    +0.000 C 
ATOM     20  C   UNL     1       6.680   7.239  17.450  0.00  0.00    +0.000 C 
ENDBRANCH   9  18
ENDBRANCH   3   7
BRANCH   1  24
ATOM     21  C   UNL     1      -2.312  11.080  17.034  0.00  0.00    +0.000 A 
ATOM     22  C   UNL     1      -1.551  12.153  17.458  0.00  0.00    +0.000 A 
ATOM     23  C   UNL     1      -0.532  11.775  18.394  0.00  0.00    +0.000 A 
ATOM     24  C   UNL     1      -0.538  10.421  18.682  0.00  0.00    +0.000 A 
ATOM     25  S   UNL     1      -1.824   9.649  17.825  0.00  0.00    +0.000 S 
BRANCH  21  27
ATOM     26  N   UNL     1      -3.124  10.445  14.863  0.00  0.00    +0.000 N 
ATOM     27  C   UNL     1      -3.401  11.078  16.060  0.00  0.00    +0.000 C 
ATOM     28  O   UNL     1      -4.492  11.603  16.271  0.00  0.00    +0.000 OA
ATOM     29  H   UNL     1      -2.303   9.853  14.833  0.00  0.00    +0.000 HD
BRANCH  26  30
ATOM     30  C   UNL     1      -4.132  10.228  13.842  0.00  0.00    +0.000 C 
BRANCH  30  31
ATOM     31  C   UNL     1      -3.519   9.647  12.566  0.00  0.00    +0.000 C 
BRANCH  31  33
ATOM     32  C   UNL     1      -5.757   9.440  11.832  0.00  0.00    +0.000 C 
ATOM     33  O   UNL     1      -4.437   9.836  11.482  0.00  0.00    +0.000 OA
ENDBRANCH  31  33
ENDBRANCH  30  31
ENDBRANCH  26  30
ENDBRANCH  21  27
ENDBRANCH   1  24
BRANCH   6  34
ATOM     34  O   UNL     1      -0.692  10.499  21.566  0.00  0.00    +0.000 OA
ATOM     35  C   UNL     1      -0.160  11.725  22.065  0.00  0.00    +0.000 C 
ENDBRANCH   6  34
TORSDOF 8
ENDMDL
MODEL 8
REMARK VINA RESULT:      -8.0      2.731      3.905
REMARK  Name = 
REMARK  12 active torsions:
REMARK  status: ('A' for Active; 'I' for Inactive)
REMARK    1  A    between atoms: C_1  and  O_2
REMARK    2  A    between atoms: O_2  and  C_3
REMARK    3  A    between atoms: C_3  and  C_4
REMARK    4  A    between atoms: C_4  and  N_5
REMARK    5  A    between atoms: C_6  and  C_8
REMARK    6  A    between atoms: C_11  and  C_12
REMARK    7  A    between atoms: C_14  and  C_15
REMARK    8  A    between atoms: N_17  and  C_18
REMARK    9  A    between atoms: C_18  and  C_19
REMARK   10  A    between atoms: C_18  and  C_20
REMARK   11  A    between atoms: C_31  and  O_32
REMARK   12  A    between atoms: O_32  and  C_33
REMARK                            x       y       z     vdW  Elec       q    Type
REMARK                         _______ _______ _______ _____ _____    ______ ____
ROOT
ATOM      1  C   UNL     1       0.340   9.613  19.727  0.00  0.00    +0.000 A 
ATOM      2  C   UNL     1       1.281   8.805  19.051  0.00  0.00    +0.000 A 
ATOM      3  C   UNL     1       2.007   7.812  19.711  0.00  0.00    +0.000 A 
ATOM      4  C   UNL     1       1.872   7.664  21.086  0.00  0.00    +0.000 A 
ATOM      5  C   UNL     1       0.998   8.492  21.789  0.00  0.00    +0.000 A 
ATOM      6  C   UNL     1       0.231   9.469  21.129  0.00  0.00    +0.000 A 
ENDROOT
BRANCH   3   7
ATOM      7  C   UNL     1       2.825   6.817  18.963  0.00  0.00    +0.000 C 
ATOM      8  N   UNL     1       3.842   7.222  18.263  0.00  0.00    +0.000 NA
ATOM      9  N   UNL     1       4.676   6.257  17.725  0.00  0.00    +0.000 N 
ATOM     10  C   UNL     1       4.788   4.961  18.247  0.00  0.00    +0.000 C 
ATOM     11  O   UNL     1       5.651   4.160  17.890  0.00  0.00    +0.000 OA
ATOM     12  C   UNL     1       3.804   4.635  19.364  0.00  0.00    +0.000 C 
ATOM     13  C   UNL     1       3.571   3.126  19.513  0.00  0.00    +0.000 C 
ATOM     14  C   UNL     1       2.626   2.566  18.484  0.00  0.00    +0.000 C 
ATOM     15  C   UNL     1       1.836   3.332  17.717  0.00  0.00    +0.000 C 
ATOM     16  C   UNL     1       1.775   4.827  17.836  0.00  0.00    +0.000 C 
ATOM     17  C   UNL     1       2.485   5.351  19.097  0.00  0.00    +0.000 C 
BRANCH   9  18
ATOM     18  C   UNL     1       5.541   6.680  16.617  0.00  0.00    +0.000 C 
ATOM     19  C   UNL     1       6.998   6.776  17.073  0.00  0.00    +0.000 C 
ATOM     20  C   UNL     1       5.402   5.764  15.405  0.00  0.00    +0.000 C 
ENDBRANCH   9  18
ENDBRANCH   3   7
BRANCH   1  24
ATOM     21  C   UNL     1      -2.453  11.408  17.590  0.00  0.00    +0.000 A 
ATOM     22  C   UNL     1      -1.437  12.332  17.738  0.00  0.00    +0.000 A 
ATOM     23  C   UNL     1      -0.329  11.822  18.492  0.00  0.00    +0.000 A 
ATOM     24  C   UNL     1      -0.521  10.520  18.922  0.00  0.00    +0.000 A 
ATOM     25  S   UNL     1      -2.078   9.966  18.421  0.00  0.00    +0.000 S 
BRANCH  21  27
ATOM     26  N   UNL     1      -4.739  12.148  17.553  0.00  0.00    +0.000 N 
ATOM     27  C   UNL     1      -3.706  11.558  16.853  0.00  0.00    +0.000 C 
ATOM     28  O   UNL     1      -3.849  11.185  15.690  0.00  0.00    +0.000 OA
ATOM     29  H   UNL     1      -4.501  12.624  18.415  0.00  0.00    +0.000 HD
BRANCH  26  30
ATOM     30  C   UNL     1      -6.004  12.501  16.935  0.00  0.00    +0.000 C 
BRANCH  30  31
ATOM     31  C   UNL     1      -6.671  13.675  17.653  0.00  0.00    +0.000 C 
BRANCH  31  33
ATOM     32  C   UNL     1      -7.569  12.996  19.732  0.00  0.00    +0.000 C 
ATOM     33  O   UNL     1      -7.830  13.197  18.348  0.00  0.00    +0.000 OA
ENDBRANCH  31  33
ENDBRANCH  30  31
ENDBRANCH  26  30
ENDBRANCH  21  27
ENDBRANCH   1  24
BRANCH   6  34
ATOM     34  O   UNL     1      -0.681  10.253  21.794  0.00  0.00    +0.000 OA
ATOM     35  C   UNL     1      -0.632  10.214  23.219  0.00  0.00    +0.000 C 
ENDBRANCH   6  34
TORSDOF 8
ENDMDL
MODEL 9
REMARK VINA RESULT:      -7.9      2.795      3.913
REMARK  Name = 
REMARK  12 active torsions:
REMARK  status: ('A' for Active; 'I' for Inactive)
REMARK    1  A    between atoms: C_1  and  O_2
REMARK    2  A    between atoms: O_2  and  C_3
REMARK    3  A    between atoms: C_3  and  C_4
REMARK    4  A    between atoms: C_4  and  N_5
REMARK    5  A    between atoms: C_6  and  C_8
REMARK    6  A    between atoms: C_11  and  C_12
REMARK    7  A    between atoms: C_14  and  C_15
REMARK    8  A    between atoms: N_17  and  C_18
REMARK    9  A    between atoms: C_18  and  C_19
REMARK   10  A    between atoms: C_18  and  C_20
REMARK   11  A    between atoms: C_31  and  O_32
REMARK   12  A    between atoms: O_32  and  C_33
REMARK                            x       y       z     vdW  Elec       q    Type
REMARK                         _______ _______ _______ _____ _____    ______ ____
ROOT
ATOM      1  C   UNL     1       0.474   9.857  20.142  0.00  0.00    +0.000 A 
ATOM      2  C   UNL     1       1.172   8.739  19.634  0.00  0.00    +0.000 A 
ATOM      3  C   UNL     1       1.824   7.834  20.474  0.00  0.00    +0.000 A 
ATOM      4  C   UNL     1       1.866   8.077  21.842  0.00  0.00    +0.000 A 
ATOM      5  C   UNL     1       1.240   9.208  22.364  0.00  0.00    +0.000 A 
ATOM      6  C   UNL     1       0.546  10.106  21.532  0.00  0.00    +0.000 A 
ENDROOT
BRANCH   3   7
ATOM      7  C   UNL     1       2.363   6.544  19.961  0.00  0.00    +0.000 C 
ATOM      8  N   UNL     1       3.322   6.554  19.085  0.00  0.00    +0.000 NA
ATOM      9  N   UNL     1       3.911   5.344  18.762  0.00  0.00    +0.000 N 
ATOM     10  C   UNL     1       3.892   4.230  19.613  0.00  0.00    +0.000 C 
ATOM     11  O   UNL     1       4.560   3.216  19.416  0.00  0.00    +0.000 OA
ATOM     12  C   UNL     1       3.037   4.396  20.863  0.00  0.00    +0.000 C 
ATOM     13  C   UNL     1       2.594   3.049  21.450  0.00  0.00    +0.000 C 
ATOM     14  C   UNL     1       1.438   2.430  20.711  0.00  0.00    +0.000 C 
ATOM     15  C   UNL     1       0.678   3.106  19.837  0.00  0.00    +0.000 C 
ATOM     16  C   UNL     1       0.868   4.565  19.538  0.00  0.00    +0.000 C 
ATOM     17  C   UNL     1       1.821   5.254  20.531  0.00  0.00    +0.000 C 
BRANCH   9  18
ATOM     18  C   UNL     1       4.666   5.296  17.505  0.00  0.00    +0.000 C 
ATOM     19  C   UNL     1       4.119   4.202  16.585  0.00  0.00    +0.000 C 
ATOM     20  C   UNL     1       4.684   6.649  16.800  0.00  0.00    +0.000 C 
ENDBRANCH   9  18
ENDBRANCH   3   7
BRANCH   1  24
ATOM     21  C   UNL     1      -2.230  11.427  17.731  0.00  0.00    +0.000 A 
ATOM     22  C   UNL     1      -1.174  12.317  17.747  0.00  0.00    +0.000 A 
ATOM     23  C   UNL     1      -0.092  11.880  18.581  0.00  0.00    +0.000 A 
ATOM     24  C   UNL     1      -0.343  10.668  19.201  0.00  0.00    +0.000 A 
ATOM     25  S   UNL     1      -1.922  10.112  18.775  0.00  0.00    +0.000 S 
BRANCH  21  27
ATOM     26  N   UNL     1      -4.562  12.004  17.663  0.00  0.00    +0.000 N 
ATOM     27  C   UNL     1      -3.472  11.517  16.967  0.00  0.00    +0.000 C 
ATOM     28  O   UNL     1      -3.561  11.183  15.787  0.00  0.00    +0.000 OA
ATOM     29  H   UNL     1      -4.378  12.460  18.548  0.00  0.00    +0.000 HD
BRANCH  26  30
ATOM     30  C   UNL     1      -5.834  12.291  17.025  0.00  0.00    +0.000 C 
BRANCH  30  31
ATOM     31  C   UNL     1      -6.742  13.121  17.935  0.00  0.00    +0.000 C 
BRANCH  31  33
ATOM     32  C   UNL     1      -6.946  15.066  16.607  0.00  0.00    +0.000 C 
ATOM     33  O   UNL     1      -7.611  13.918  17.121  0.00  0.00    +0.000 OA
ENDBRANCH  31  33
ENDBRANCH  30  31
ENDBRANCH  26  30
ENDBRANCH  21  27
ENDBRANCH   1  24
BRANCH   6  34
ATOM     34  O   UNL     1      -0.130  11.192  22.033  0.00  0.00    +0.000 OA
ATOM     35  C   UNL     1      -1.124  10.921  23.019  0.00  0.00    +0.000 C 
ENDBRANCH   6  34
TORSDOF 8
ENDMDL
