MODEL 1
REMARK VINA RESULT:      -8.3      0.000      0.000
REMARK  Name = 
REMARK  7 active torsions:
REMARK  status: ('A' for Active; 'I' for Inactive)
REMARK    1  A    between atoms: C_1  and  O_2
REMARK    2  A    between atoms: O_2  and  C_3
REMARK    3  A    between atoms: C_5  and  C_6
REMARK    4  A    between atoms: N_7  and  N_8
REMARK    5  A    between atoms: C_9  and  C_11
REMARK    6  A    between atoms: C_12  and  C_13
REMARK    7  A    between atoms: C_25  and  O_26
REMARK                            x       y       z     vdW  Elec       q    Type
REMARK                         _______ _______ _______ _____ _____    ______ ____
ROOT
ATOM      1  N   UNL     1       2.517   6.339  19.033  0.00  0.00    +0.000 N 
ATOM      2  C   UNL     1       2.502   5.148  19.751  0.00  0.00    +0.000 C 
ATOM      3  O   UNL     1       2.251   5.091  20.952  0.00  0.00    +0.000 OA
ATOM      4  H   UNL     1       2.684   6.351  18.037  0.00  0.00    +0.000 HD
ENDROOT
BRANCH   2   5
ATOM      5  C   UNL     1       2.858   3.968  19.007  0.00  0.00    +0.000 A 
ATOM      6  C   UNL     1       2.104   2.891  18.564  0.00  0.00    +0.000 A 
ATOM      7  C   UNL     1       0.699   2.497  18.802  0.00  0.00    +0.000 C 
ATOM      8  N   UNL     1       2.837   2.166  17.667  0.00  0.00    +0.000 NA
ATOM      9  N   UNL     1       4.004   2.763  17.506  0.00  0.00    +0.000 NA
ATOM     10  N   UNL     1       4.102   3.780  18.407  0.00  0.00    +0.000 N 
ATOM     11  C   UNL     1       5.334   4.429  18.662  0.00  0.00    +0.000 A 
ATOM     12  N   UNL     1       5.540   5.045  19.826  0.00  0.00    +0.000 NA
ATOM     13  O   UNL     1       6.859   5.493  19.741  0.00  0.00    +0.000 OA
ATOM     14  N   UNL     1       7.441   5.124  18.532  0.00  0.00    +0.000 NA
ATOM     15  C   UNL     1       6.493   4.463  17.867  0.00  0.00    +0.000 A 
ATOM     16  N   UNL     1       6.652   3.966  16.626  0.00  0.00    +0.000 N 
ATOM     17  H   UNL     1       7.465   4.248  16.088  0.00  0.00    +0.000 HD
ATOM     18  H   UNL     1       5.861   3.657  16.066  0.00  0.00    +0.000 HD
ENDBRANCH   2   5
BRANCH   1  20
ATOM     19  C   UNL     1       1.661   8.437  18.955  0.00  0.00    +0.000 C 
ATOM     20  N   UNL     1       2.198   7.504  19.673  0.00  0.00    +0.000 NA
BRANCH  19  23
ATOM     21  C   UNL     1       0.382  11.004  21.444  0.00  0.00    +0.000 A 
ATOM     22  C   UNL     1       0.805   9.789  20.882  0.00  0.00    +0.000 A 
ATOM     23  C   UNL     1       1.238   9.722  19.554  0.00  0.00    +0.000 A 
ATOM     24  C   UNL     1       1.259  10.874  18.769  0.00  0.00    +0.000 A 
ATOM     25  C   UNL     1       0.843  12.089  19.316  0.00  0.00    +0.000 A 
ATOM     26  C   UNL     1       0.405  12.155  20.645  0.00  0.00    +0.000 A 
BRANCH  21  28
ATOM     27  C   UNL     1      -0.217   9.579  23.273  0.00  0.00    +0.000 C 
ATOM     28  O   UNL     1      -0.007  10.881  22.748  0.00  0.00    +0.000 OA
ENDBRANCH  21  28
BRANCH  26  29
ATOM     29  O   UNL     1       0.001  13.367  21.132  0.00  0.00    +0.000 OA
ATOM     30  H   UNL     1       0.777  13.892  21.385  0.00  0.00    +0.000 HD
ENDBRANCH  26  29
ENDBRANCH  19  23
ENDBRANCH   1  20
TORSDOF 5
ENDMDL
MODEL 2
REMARK VINA RESULT:      -8.1      2.090      3.617
REMARK  Name = 
REMARK  7 active torsions:
REMARK  status: ('A' for Active; 'I' for Inactive)
REMARK    1  A    between atoms: C_1  and  O_2
REMARK    2  A    between atoms: O_2  and  C_3
REMARK    3  A    between atoms: C_5  and  C_6
REMARK    4  A    between atoms: N_7  and  N_8
REMARK    5  A    between atoms: C_9  and  C_11
REMARK    6  A    between atoms: C_12  and  C_13
REMARK    7  A    between atoms: C_25  and  O_26
REMARK                            x       y       z     vdW  Elec       q    Type
REMARK                         _______ _______ _______ _____ _____    ______ ____
ROOT
ATOM      1  N   UNL     1       3.333   6.796  18.650  0.00  0.00    +0.000 N 
ATOM      2  C   UNL     1       4.255   6.738  17.610  0.00  0.00    +0.000 C 
ATOM      3  O   UNL     1       4.113   7.346  16.552  0.00  0.00    +0.000 OA
ATOM      4  H   UNL     1       3.497   6.320  19.526  0.00  0.00    +0.000 HD
ENDROOT
BRANCH   2   5
ATOM      5  C   UNL     1       5.379   5.864  17.823  0.00  0.00    +0.000 A 
ATOM      6  C   UNL     1       6.743   6.111  17.890  0.00  0.00    +0.000 A 
ATOM      7  C   UNL     1       7.546   7.328  17.641  0.00  0.00    +0.000 C 
ATOM      8  N   UNL     1       7.378   5.006  18.383  0.00  0.00    +0.000 NA
ATOM      9  N   UNL     1       6.466   4.092  18.657  0.00  0.00    +0.000 NA
ATOM     10  N   UNL     1       5.258   4.528  18.200  0.00  0.00    +0.000 N 
ATOM     11  C   UNL     1       4.143   3.661  18.105  0.00  0.00    +0.000 A 
ATOM     12  N   UNL     1       3.159   3.925  17.245  0.00  0.00    +0.000 NA
ATOM     13  O   UNL     1       2.294   2.838  17.381  0.00  0.00    +0.000 OA
ATOM     14  N   UNL     1       2.777   1.920  18.309  0.00  0.00    +0.000 NA
ATOM     15  C   UNL     1       3.924   2.433  18.754  0.00  0.00    +0.000 A 
ATOM     16  N   UNL     1       4.690   1.855  19.698  0.00  0.00    +0.000 N 
ATOM     17  H   UNL     1       4.306   1.082  20.232  0.00  0.00    +0.000 HD
ATOM     18  H   UNL     1       5.439   2.361  20.165  0.00  0.00    +0.000 HD
ENDBRANCH   2   5
BRANCH   1  20
ATOM     19  C   UNL     1       1.997   8.427  19.484  0.00  0.00    +0.000 C 
ATOM     20  N   UNL     1       2.234   7.597  18.519  0.00  0.00    +0.000 NA
BRANCH  19  23
ATOM     21  C   UNL     1      -0.758  10.818  20.539  0.00  0.00    +0.000 A 
ATOM     22  C   UNL     1       0.337   9.941  20.591  0.00  0.00    +0.000 A 
ATOM     23  C   UNL     1       0.859   9.370  19.426  0.00  0.00    +0.000 A 
ATOM     24  C   UNL     1       0.295   9.674  18.188  0.00  0.00    +0.000 A 
ATOM     25  C   UNL     1      -0.794  10.547  18.121  0.00  0.00    +0.000 A 
ATOM     26  C   UNL     1      -1.320  11.114  19.290  0.00  0.00    +0.000 A 
BRANCH  21  28
ATOM     27  C   UNL     1      -0.784  10.510  22.913  0.00  0.00    +0.000 C 
ATOM     28  O   UNL     1      -1.133  11.275  21.770  0.00  0.00    +0.000 OA
ENDBRANCH  21  28
BRANCH  26  29
ATOM     29  O   UNL     1      -2.390  11.957  19.172  0.00  0.00    +0.000 OA
ATOM     30  H   UNL     1      -2.083  12.877  19.182  0.00  0.00    +0.000 HD
ENDBRANCH  26  29
ENDBRANCH  19  23
ENDBRANCH   1  20
TORSDOF 5
ENDMDL
MODEL 3
REMARK VINA RESULT:      -8.1      2.697      4.278
REMARK  Name = 
REMARK  7 active torsions:
REMARK  status: ('A' for Active; 'I' for Inactive)
REMARK    1  A    between atoms: C_1  and  O_2
REMARK    2  A    between atoms: O_2  and  C_3
REMARK    3  A    between atoms: C_5  and  C_6
REMARK    4  A    between atoms: N_7  and  N_8
REMARK    5  A    between atoms: C_9  and  C_11
REMARK    6  A    between atoms: C_12  and  C_13
REMARK    7  A    between atoms: C_25  and  O_26
REMARK                            x       y       z     vdW  Elec       q    Type
REMARK                         _______ _______ _______ _____ _____    ______ ____
ROOT
ATOM      1  N   UNL     1       3.280   7.007  18.309  0.00  0.00    +0.000 N 
ATOM      2  C   UNL     1       4.239   6.891  17.308  0.00  0.00    +0.000 C 
ATOM      3  O   UNL     1       4.121   7.414  16.203  0.00  0.00    +0.000 OA
ATOM      4  H   UNL     1       3.422   6.603  19.224  0.00  0.00    +0.000 HD
ENDROOT
BRANCH   2   5
ATOM      5  C   UNL     1       5.372   6.063  17.625  0.00  0.00    +0.000 A 
ATOM      6  C   UNL     1       6.724   6.352  17.750  0.00  0.00    +0.000 A 
ATOM      7  C   UNL     1       7.507   7.578  17.479  0.00  0.00    +0.000 C 
ATOM      8  N   UNL     1       7.360   5.293  18.333  0.00  0.00    +0.000 NA
ATOM      9  N   UNL     1       6.459   4.368  18.607  0.00  0.00    +0.000 NA
ATOM     10  N   UNL     1       5.266   4.745  18.066  0.00  0.00    +0.000 N 
ATOM     11  C   UNL     1       4.181   3.843  17.958  0.00  0.00    +0.000 A 
ATOM     12  N   UNL     1       3.238   4.033  17.036  0.00  0.00    +0.000 NA
ATOM     13  O   UNL     1       2.396   2.930  17.183  0.00  0.00    +0.000 OA
ATOM     14  N   UNL     1       2.852   2.076  18.182  0.00  0.00    +0.000 NA
ATOM     15  C   UNL     1       3.961   2.644  18.659  0.00  0.00    +0.000 A 
ATOM     16  N   UNL     1       4.689   2.137  19.671  0.00  0.00    +0.000 N 
ATOM     17  H   UNL     1       4.298   1.382  20.223  0.00  0.00    +0.000 HD
ATOM     18  H   UNL     1       5.399   2.688  20.149  0.00  0.00    +0.000 HD
ENDBRANCH   2   5
BRANCH   1  20
ATOM     19  C   UNL     1       2.078   8.881  18.739  0.00  0.00    +0.000 C 
ATOM     20  N   UNL     1       2.170   7.770  18.081  0.00  0.00    +0.000 NA
BRANCH  19  23
ATOM     21  C   UNL     1      -1.299  10.259  17.680  0.00  0.00    +0.000 A 
ATOM     22  C   UNL     1      -0.227   9.377  17.892  0.00  0.00    +0.000 A 
ATOM     23  C   UNL     1       0.939   9.803  18.537  0.00  0.00    +0.000 A 
ATOM     24  C   UNL     1       1.046  11.119  18.985  0.00  0.00    +0.000 A 
ATOM     25  C   UNL     1      -0.013  12.006  18.782  0.00  0.00    +0.000 A 
ATOM     26  C   UNL     1      -1.179  11.580  18.132  0.00  0.00    +0.000 A 
BRANCH  21  28
ATOM     27  C   UNL     1      -2.628  10.060  15.698  0.00  0.00    +0.000 C 
ATOM     28  O   UNL     1      -2.351   9.673  17.035  0.00  0.00    +0.000 OA
ENDBRANCH  21  28
BRANCH  26  29
ATOM     29  O   UNL     1      -2.185  12.488  17.951  0.00  0.00    +0.000 OA
ATOM     30  H   UNL     1      -2.162  13.146  18.665  0.00  0.00    +0.000 HD
ENDBRANCH  26  29
ENDBRANCH  19  23
ENDBRANCH   1  20
TORSDOF 5
ENDMDL
MODEL 4
REMARK VINA RESULT:      -8.0      1.895      2.059
REMARK  Name = 
REMARK  7 active torsions:
REMARK  status: ('A' for Active; 'I' for Inactive)
REMARK    1  A    between atoms: C_1  and  O_2
REMARK    2  A    between atoms: O_2  and  C_3
REMARK    3  A    between atoms: C_5  and  C_6
REMARK    4  A    between atoms: N_7  and  N_8
REMARK    5  A    between atoms: C_9  and  C_11
REMARK    6  A    between atoms: C_12  and  C_13
REMARK    7  A    between atoms: C_25  and  O_26
REMARK                            x       y       z     vdW  Elec       q    Type
REMARK                         _______ _______ _______ _____ _____    ______ ____
ROOT
ATOM      1  N   UNL     1       2.881   6.962  19.485  0.00  0.00    +0.000 N 
ATOM      2  C   UNL     1       2.918   5.809  18.708  0.00  0.00    +0.000 C 
ATOM      3  O   UNL     1       2.160   5.613  17.762  0.00  0.00    +0.000 OA
ATOM      4  H   UNL     1       3.544   7.117  20.231  0.00  0.00    +0.000 HD
ENDROOT
BRANCH   2   5
ATOM      5  C   UNL     1       3.874   4.814  19.118  0.00  0.00    +0.000 A 
ATOM      6  C   UNL     1       3.763   3.712  19.954  0.00  0.00    +0.000 A 
ATOM      7  C   UNL     1       2.668   3.233  20.826  0.00  0.00    +0.000 C 
ATOM      8  N   UNL     1       4.867   2.922  19.809  0.00  0.00    +0.000 NA
ATOM      9  N   UNL     1       5.649   3.465  18.894  0.00  0.00    +0.000 NA
ATOM     10  N   UNL     1       5.142   4.685  18.555  0.00  0.00    +0.000 N 
ATOM     11  C   UNL     1       5.896   5.619  17.804  0.00  0.00    +0.000 A 
ATOM     12  N   UNL     1       5.626   6.922  17.888  0.00  0.00    +0.000 NA
ATOM     13  O   UNL     1       6.597   7.518  17.084  0.00  0.00    +0.000 OA
ATOM     14  N   UNL     1       7.455   6.568  16.538  0.00  0.00    +0.000 NA
ATOM     15  C   UNL     1       7.018   5.392  16.988  0.00  0.00    +0.000 A 
ATOM     16  N   UNL     1       7.567   4.209  16.656  0.00  0.00    +0.000 N 
ATOM     17  H   UNL     1       8.235   4.178  15.893  0.00  0.00    +0.000 HD
ATOM     18  H   UNL     1       7.094   3.328  16.840  0.00  0.00    +0.000 HD
ENDBRANCH   2   5
BRANCH   1  20
ATOM     19  C   UNL     1       1.449   8.589  20.150  0.00  0.00    +0.000 C 
ATOM     20  N   UNL     1       1.993   7.950  19.165  0.00  0.00    +0.000 NA
BRANCH  19  23
ATOM     21  C   UNL     1      -0.893  11.516  20.762  0.00  0.00    +0.000 A 
ATOM     22  C   UNL     1       0.019  10.471  20.981  0.00  0.00    +0.000 A 
ATOM     23  C   UNL     1       0.506   9.706  19.916  0.00  0.00    +0.000 A 
ATOM     24  C   UNL     1       0.091   9.979  18.614  0.00  0.00    +0.000 A 
ATOM     25  C   UNL     1      -0.815  11.017  18.382  0.00  0.00    +0.000 A 
ATOM     26  C   UNL     1      -1.306  11.780  19.450  0.00  0.00    +0.000 A 
BRANCH  21  28
ATOM     27  C   UNL     1      -1.556  11.365  23.058  0.00  0.00    +0.000 C 
ATOM     28  O   UNL     1      -1.261  12.151  21.914  0.00  0.00    +0.000 OA
ENDBRANCH  21  28
BRANCH  26  29
ATOM     29  O   UNL     1      -2.196  12.780  19.171  0.00  0.00    +0.000 OA
ATOM     30  H   UNL     1      -1.809  13.390  18.522  0.00  0.00    +0.000 HD
ENDBRANCH  26  29
ENDBRANCH  19  23
ENDBRANCH   1  20
TORSDOF 5
ENDMDL
MODEL 5
REMARK VINA RESULT:      -8.0      5.326      7.154
REMARK  Name = 
REMARK  7 active torsions:
REMARK  status: ('A' for Active; 'I' for Inactive)
REMARK    1  A    between atoms: C_1  and  O_2
REMARK    2  A    between atoms: O_2  and  C_3
REMARK    3  A    between atoms: C_5  and  C_6
REMARK    4  A    between atoms: N_7  and  N_8
REMARK    5  A    between atoms: C_9  and  C_11
REMARK    6  A    between atoms: C_12  and  C_13
REMARK    7  A    between atoms: C_25  and  O_26
REMARK                            x       y       z     vdW  Elec       q    Type
REMARK                         _______ _______ _______ _____ _____    ______ ____
ROOT
ATOM      1  N   UNL     1       7.407   7.389  17.172  0.00  0.00    +0.000 N 
ATOM      2  C   UNL     1       7.355   6.043  17.519  0.00  0.00    +0.000 C 
ATOM      3  O   UNL     1       7.942   5.578  18.493  0.00  0.00    +0.000 OA
ATOM      4  H   UNL     1       6.879   7.752  16.391  0.00  0.00    +0.000 HD
ENDROOT
BRANCH   2   5
ATOM      5  C   UNL     1       6.608   5.198  16.625  0.00  0.00    +0.000 A 
ATOM      6  C   UNL     1       6.791   4.875  15.287  0.00  0.00    +0.000 A 
ATOM      7  C   UNL     1       7.736   5.375  14.265  0.00  0.00    +0.000 C 
ATOM      8  N   UNL     1       5.983   3.823  14.963  0.00  0.00    +0.000 NA
ATOM      9  N   UNL     1       5.327   3.454  16.047  0.00  0.00    +0.000 NA
ATOM     10  N   UNL     1       5.579   4.355  17.039  0.00  0.00    +0.000 N 
ATOM     11  C   UNL     1       4.814   4.382  18.229  0.00  0.00    +0.000 A 
ATOM     12  N   UNL     1       4.724   5.504  18.944  0.00  0.00    +0.000 NA
ATOM     13  O   UNL     1       3.851   5.172  19.980  0.00  0.00    +0.000 OA
ATOM     14  N   UNL     1       3.407   3.858  19.868  0.00  0.00    +0.000 NA
ATOM     15  C   UNL     1       4.006   3.372  18.780  0.00  0.00    +0.000 A 
ATOM     16  N   UNL     1       3.861   2.107  18.344  0.00  0.00    +0.000 N 
ATOM     17  H   UNL     1       3.418   1.428  18.955  0.00  0.00    +0.000 HD
ATOM     18  H   UNL     1       4.482   1.706  17.645  0.00  0.00    +0.000 HD
ENDBRANCH   2   5
BRANCH   1  20
ATOM     19  C   UNL     1       8.172   9.485  17.576  0.00  0.00    +0.000 C 
ATOM     20  N   UNL     1       8.104   8.254  17.968  0.00  0.00    +0.000 NA
BRANCH  19  23
ATOM     21  C   UNL     1       9.870  12.726  18.592  0.00  0.00    +0.000 A 
ATOM     22  C   UNL     1       9.191  11.758  17.834  0.00  0.00    +0.000 A 
ATOM     23  C   UNL     1       8.866  10.513  18.382  0.00  0.00    +0.000 A 
ATOM     24  C   UNL     1       9.210  10.220  19.701  0.00  0.00    +0.000 A 
ATOM     25  C   UNL     1       9.884  11.174  20.466  0.00  0.00    +0.000 A 
ATOM     26  C   UNL     1      10.214  12.420  19.915  0.00  0.00    +0.000 A 
BRANCH  21  28
ATOM     27  C   UNL     1      11.209  13.918  17.005  0.00  0.00    +0.000 C 
ATOM     28  O   UNL     1      10.106  13.878  17.896  0.00  0.00    +0.000 OA
ENDBRANCH  21  28
BRANCH  26  29
ATOM     29  O   UNL     1      10.880  13.317  20.704  0.00  0.00    +0.000 OA
ATOM     30  H   UNL     1      10.508  13.301  21.600  0.00  0.00    +0.000 HD
ENDBRANCH  26  29
ENDBRANCH  19  23
ENDBRANCH   1  20
TORSDOF 5
ENDMDL
MODEL 6
REMARK VINA RESULT:      -8.0      5.357      6.646
REMARK  Name = 
REMARK  7 active torsions:
REMARK  status: ('A' for Active; 'I' for Inactive)
REMARK    1  A    between atoms: C_1  and  O_2
REMARK    2  A    between atoms: O_2  and  C_3
REMARK    3  A    between atoms: C_5  and  C_6
REMARK    4  A    between atoms: N_7  and  N_8
REMARK    5  A    between atoms: C_9  and  C_11
REMARK    6  A    between atoms: C_12  and  C_13
REMARK    7  A    between atoms: C_25  and  O_26
REMARK                            x       y       z     vdW  Elec       q    Type
REMARK                         _______ _______ _______ _____ _____    ______ ____
ROOT
ATOM      1  N   UNL     1       7.413   7.032  17.434  0.00  0.00    +0.000 N 
ATOM      2  C   UNL     1       6.090   6.718  17.140  0.00  0.00    +0.000 C 
ATOM      3  O   UNL     1       5.212   7.567  17.009  0.00  0.00    +0.000 OA
ATOM      4  H   UNL     1       8.123   6.317  17.493  0.00  0.00    +0.000 HD
ENDROOT
BRANCH   2   5
ATOM      5  C   UNL     1       5.789   5.314  17.052  0.00  0.00    +0.000 A 
ATOM      6  C   UNL     1       5.152   4.446  17.928  0.00  0.00    +0.000 A 
ATOM      7  C   UNL     1       4.668   4.615  19.316  0.00  0.00    +0.000 C 
ATOM      8  N   UNL     1       4.864   3.280  17.279  0.00  0.00    +0.000 NA
ATOM      9  N   UNL     1       5.263   3.393  16.025  0.00  0.00    +0.000 NA
ATOM     10  N   UNL     1       5.953   4.561  15.890  0.00  0.00    +0.000 N 
ATOM     11  C   UNL     1       6.732   4.834  14.741  0.00  0.00    +0.000 A 
ATOM     12  N   UNL     1       7.749   5.694  14.807  0.00  0.00    +0.000 NA
ATOM     13  O   UNL     1       8.310   5.650  13.531  0.00  0.00    +0.000 OA
ATOM     14  N   UNL     1       7.636   4.748  12.712  0.00  0.00    +0.000 NA
ATOM     15  C   UNL     1       6.660   4.243  13.467  0.00  0.00    +0.000 A 
ATOM     16  N   UNL     1       5.755   3.349  13.026  0.00  0.00    +0.000 N 
ATOM     17  H   UNL     1       5.691   3.171  12.029  0.00  0.00    +0.000 HD
ATOM     18  H   UNL     1       4.907   3.142  13.549  0.00  0.00    +0.000 HD
ENDBRANCH   2   5
BRANCH   1  20
ATOM     19  C   UNL     1       8.476   8.675  18.580  0.00  0.00    +0.000 C 
ATOM     20  N   UNL     1       7.775   8.345  17.543  0.00  0.00    +0.000 NA
BRANCH  19  23
ATOM     21  C   UNL     1       9.752  11.846  20.234  0.00  0.00    +0.000 A 
ATOM     22  C   UNL     1       9.316  10.524  20.045  0.00  0.00    +0.000 A 
ATOM     23  C   UNL     1       8.958  10.060  18.775  0.00  0.00    +0.000 A 
ATOM     24  C   UNL     1       9.036  10.911  17.674  0.00  0.00    +0.000 A 
ATOM     25  C   UNL     1       9.469  12.227  17.848  0.00  0.00    +0.000 A 
ATOM     26  C   UNL     1       9.824  12.693  19.121  0.00  0.00    +0.000 A 
BRANCH  21  28
ATOM     27  C   UNL     1       9.038  12.647  22.375  0.00  0.00    +0.000 C 
ATOM     28  O   UNL     1      10.057  12.124  21.537  0.00  0.00    +0.000 OA
ENDBRANCH  21  28
BRANCH  26  29
ATOM     29  O   UNL     1      10.235  13.992  19.241  0.00  0.00    +0.000 OA
ATOM     30  H   UNL     1       9.735  14.550  18.623  0.00  0.00    +0.000 HD
ENDBRANCH  26  29
ENDBRANCH  19  23
ENDBRANCH   1  20
TORSDOF 5
ENDMDL
MODEL 7
REMARK VINA RESULT:      -8.0      0.725      1.771
REMARK  Name = 
REMARK  7 active torsions:
REMARK  status: ('A' for Active; 'I' for Inactive)
REMARK    1  A    between atoms: C_1  and  O_2
REMARK    2  A    between atoms: O_2  and  C_3
REMARK    3  A    between atoms: C_5  and  C_6
REMARK    4  A    between atoms: N_7  and  N_8
REMARK    5  A    between atoms: C_9  and  C_11
REMARK    6  A    between atoms: C_12  and  C_13
REMARK    7  A    between atoms: C_25  and  O_26
REMARK                            x       y       z     vdW  Elec       q    Type
REMARK                         _______ _______ _______ _____ _____    ______ ____
ROOT
ATOM      1  N   UNL     1       2.595   6.219  19.264  0.00  0.00    +0.000 N 
ATOM      2  C   UNL     1       2.590   4.980  19.896  0.00  0.00    +0.000 C 
ATOM      3  O   UNL     1       2.352   4.837  21.093  0.00  0.00    +0.000 OA
ATOM      4  H   UNL     1       2.752   6.303  18.270  0.00  0.00    +0.000 HD
ENDROOT
BRANCH   2   5
ATOM      5  C   UNL     1       2.941   3.857  19.066  0.00  0.00    +0.000 A 
ATOM      6  C   UNL     1       2.188   2.802  18.570  0.00  0.00    +0.000 A 
ATOM      7  C   UNL     1       0.793   2.376  18.815  0.00  0.00    +0.000 C 
ATOM      8  N   UNL     1       2.906   2.148  17.610  0.00  0.00    +0.000 NA
ATOM      9  N   UNL     1       4.062   2.768  17.461  0.00  0.00    +0.000 NA
ATOM     10  N   UNL     1       4.171   3.725  18.426  0.00  0.00    +0.000 N 
ATOM     11  C   UNL     1       5.402   4.371  18.694  0.00  0.00    +0.000 A 
ATOM     12  N   UNL     1       5.630   4.911  19.891  0.00  0.00    +0.000 NA
ATOM     13  O   UNL     1       6.941   5.379  19.804  0.00  0.00    +0.000 OA
ATOM     14  N   UNL     1       7.497   5.099  18.559  0.00  0.00    +0.000 NA
ATOM     15  C   UNL     1       6.540   4.472  17.875  0.00  0.00    +0.000 A 
ATOM     16  N   UNL     1       6.674   4.061  16.600  0.00  0.00    +0.000 N 
ATOM     17  H   UNL     1       7.471   4.388  16.063  0.00  0.00    +0.000 HD
ATOM     18  H   UNL     1       5.873   3.780  16.040  0.00  0.00    +0.000 HD
ENDBRANCH   2   5
BRANCH   1  20
ATOM     19  C   UNL     1       1.375   8.116  19.495  0.00  0.00    +0.000 C 
ATOM     20  N   UNL     1       2.281   7.335  19.988  0.00  0.00    +0.000 NA
BRANCH  19  23
ATOM     21  C   UNL     1       0.584  11.742  20.302  0.00  0.00    +0.000 A 
ATOM     22  C   UNL     1       0.986  10.588  19.610  0.00  0.00    +0.000 A 
ATOM     23  C   UNL     1       0.928   9.328  20.215  0.00  0.00    +0.000 A 
ATOM     24  C   UNL     1       0.459   9.204  21.522  0.00  0.00    +0.000 A 
ATOM     25  C   UNL     1       0.054  10.344  22.221  0.00  0.00    +0.000 A 
ATOM     26  C   UNL     1       0.117  11.606  21.616  0.00  0.00    +0.000 A 
BRANCH  21  28
ATOM     27  C   UNL     1      -0.346  13.239  18.681  0.00  0.00    +0.000 C 
ATOM     28  O   UNL     1       0.711  12.880  19.558  0.00  0.00    +0.000 OA
ENDBRANCH  21  28
BRANCH  26  29
ATOM     29  O   UNL     1      -0.285  12.691  22.344  0.00  0.00    +0.000 OA
ATOM     30  H   UNL     1      -1.001  13.150  21.877  0.00  0.00    +0.000 HD
ENDBRANCH  26  29
ENDBRANCH  19  23
ENDBRANCH   1  20
TORSDOF 5
ENDMDL
MODEL 8
REMARK VINA RESULT:      -8.0      5.270      6.744
REMARK  Name = 
REMARK  7 active torsions:
REMARK  status: ('A' for Active; 'I' for Inactive)
REMARK    1  A    between atoms: C_1  and  O_2
REMARK    2  A    between atoms: O_2  and  C_3
REMARK    3  A    between atoms: C_5  and  C_6
REMARK    4  A    between atoms: N_7  and  N_8
REMARK    5  A    between atoms: C_9  and  C_11
REMARK    6  A    between atoms: C_12  and  C_13
REMARK    7  A    between atoms: C_25  and  O_26
REMARK                            x       y       z     vdW  Elec       q    Type
REMARK                         _______ _______ _______ _____ _____    ______ ____
ROOT
ATOM      1  N   UNL     1       7.391   7.032  17.260  0.00  0.00    +0.000 N 
ATOM      2  C   UNL     1       6.061   6.696  17.032  0.00  0.00    +0.000 C 
ATOM      3  O   UNL     1       5.161   7.528  16.959  0.00  0.00    +0.000 OA
ATOM      4  H   UNL     1       8.118   6.331  17.272  0.00  0.00    +0.000 HD
ENDROOT
BRANCH   2   5
ATOM      5  C   UNL     1       5.784   5.287  16.938  0.00  0.00    +0.000 A 
ATOM      6  C   UNL     1       5.153   4.408  17.808  0.00  0.00    +0.000 A 
ATOM      7  C   UNL     1       4.654   4.566  19.192  0.00  0.00    +0.000 C 
ATOM      8  N   UNL     1       4.889   3.238  17.155  0.00  0.00    +0.000 NA
ATOM      9  N   UNL     1       5.297   3.359  15.905  0.00  0.00    +0.000 NA
ATOM     10  N   UNL     1       5.970   4.538  15.778  0.00  0.00    +0.000 N 
ATOM     11  C   UNL     1       6.754   4.826  14.635  0.00  0.00    +0.000 A 
ATOM     12  N   UNL     1       7.756   5.702  14.711  0.00  0.00    +0.000 NA
ATOM     13  O   UNL     1       8.329   5.669  13.440  0.00  0.00    +0.000 OA
ATOM     14  N   UNL     1       7.676   4.758  12.614  0.00  0.00    +0.000 NA
ATOM     15  C   UNL     1       6.702   4.236  13.360  0.00  0.00    +0.000 A 
ATOM     16  N   UNL     1       5.815   3.329  12.910  0.00  0.00    +0.000 N 
ATOM     17  H   UNL     1       5.762   3.151  11.912  0.00  0.00    +0.000 HD
ATOM     18  H   UNL     1       4.966   3.107  13.425  0.00  0.00    +0.000 HD
ENDBRANCH   2   5
BRANCH   1  20
ATOM     19  C   UNL     1       8.423   8.692  18.410  0.00  0.00    +0.000 C 
ATOM     20  N   UNL     1       7.733   8.351  17.369  0.00  0.00    +0.000 NA
BRANCH  19  23
ATOM     21  C   UNL     1       8.823  12.446  17.998  0.00  0.00    +0.000 A 
ATOM     22  C   UNL     1       8.371  11.128  17.827  0.00  0.00    +0.000 A 
ATOM     23  C   UNL     1       8.882  10.085  18.606  0.00  0.00    +0.000 A 
ATOM     24  C   UNL     1       9.852  10.347  19.573  0.00  0.00    +0.000 A 
ATOM     25  C   UNL     1      10.310  11.654  19.754  0.00  0.00    +0.000 A 
ATOM     26  C   UNL     1       9.800  12.698  18.970  0.00  0.00    +0.000 A 
BRANCH  21  28
ATOM     27  C   UNL     1       7.073  14.035  17.614  0.00  0.00    +0.000 C 
ATOM     28  O   UNL     1       8.216  13.331  17.153  0.00  0.00    +0.000 OA
ENDBRANCH  21  28
BRANCH  26  29
ATOM     29  O   UNL     1      10.286  13.959  19.181  0.00  0.00    +0.000 OA
ATOM     30  H   UNL     1       9.890  14.572  18.541  0.00  0.00    +0.000 HD
ENDBRANCH  26  29
ENDBRANCH  19  23
ENDBRANCH   1  20
TORSDOF 5
ENDMDL
MODEL 9
REMARK VINA RESULT:      -7.9      5.652      7.290
REMARK  Name = 
REMARK  7 active torsions:
REMARK  status: ('A' for Active; 'I' for Inactive)
REMARK    1  A    between atoms: C_1  and  O_2
REMARK    2  A    between atoms: O_2  and  C_3
REMARK    3  A    between atoms: C_5  and  C_6
REMARK    4  A    between atoms: N_7  and  N_8
REMARK    5  A    between atoms: C_9  and  C_11
REMARK    6  A    between atoms: C_12  and  C_13
REMARK    7  A    between atoms: C_25  and  O_26
REMARK                            x       y       z     vdW  Elec       q    Type
REMARK                         _______ _______ _______ _____ _____    ______ ____
ROOT
ATOM      1  N   UNL     1       7.614   7.180  17.699  0.00  0.00    +0.000 N 
ATOM      2  C   UNL     1       6.397   6.898  17.087  0.00  0.00    +0.000 C 
ATOM      3  O   UNL     1       5.644   7.768  16.659  0.00  0.00    +0.000 OA
ATOM      4  H   UNL     1       8.234   6.443  18.004  0.00  0.00    +0.000 HD
ENDROOT
BRANCH   2   5
ATOM      5  C   UNL     1       6.037   5.506  17.033  0.00  0.00    +0.000 A 
ATOM      6  C   UNL     1       5.402   4.677  17.948  0.00  0.00    +0.000 A 
ATOM      7  C   UNL     1       4.983   4.884  19.352  0.00  0.00    +0.000 C 
ATOM      8  N   UNL     1       5.040   3.515  17.329  0.00  0.00    +0.000 NA
ATOM      9  N   UNL     1       5.392   3.594  16.059  0.00  0.00    +0.000 NA
ATOM     10  N   UNL     1       6.122   4.730  15.878  0.00  0.00    +0.000 N 
ATOM     11  C   UNL     1       6.863   4.956  14.693  0.00  0.00    +0.000 A 
ATOM     12  N   UNL     1       7.916   5.774  14.705  0.00  0.00    +0.000 NA
ATOM     13  O   UNL     1       8.421   5.690  13.407  0.00  0.00    +0.000 OA
ATOM     14  N   UNL     1       7.678   4.805  12.631  0.00  0.00    +0.000 NA
ATOM     15  C   UNL     1       6.714   4.350  13.433  0.00  0.00    +0.000 A 
ATOM     16  N   UNL     1       5.757   3.489  13.043  0.00  0.00    +0.000 N 
ATOM     17  H   UNL     1       5.644   3.299  12.053  0.00  0.00    +0.000 HD
ATOM     18  H   UNL     1       4.924   3.324  13.603  0.00  0.00    +0.000 HD
ENDBRANCH   2   5
BRANCH   1  20
ATOM     19  C   UNL     1       8.664   8.813  18.870  0.00  0.00    +0.000 C 
ATOM     20  N   UNL     1       8.022   8.481  17.797  0.00  0.00    +0.000 NA
BRANCH  19  23
ATOM     21  C   UNL     1      10.022  12.285  18.144  0.00  0.00    +0.000 A 
ATOM     22  C   UNL     1       9.503  10.993  17.964  0.00  0.00    +0.000 A 
ATOM     23  C   UNL     1       9.188  10.183  19.061  0.00  0.00    +0.000 A 
ATOM     24  C   UNL     1       9.383  10.659  20.356  0.00  0.00    +0.000 A 
ATOM     25  C   UNL     1       9.897  11.944  20.550  0.00  0.00    +0.000 A 
ATOM     26  C   UNL     1      10.217  12.752  19.451  0.00  0.00    +0.000 A 
BRANCH  21  28
ATOM     27  C   UNL     1      11.620  13.198  16.612  0.00  0.00    +0.000 C 
ATOM     28  O   UNL     1      10.272  12.927  16.965  0.00  0.00    +0.000 OA
ENDBRANCH  21  28
BRANCH  26  29
ATOM     29  O   UNL     1      10.723  13.999  19.693  0.00  0.00    +0.000 OA
ATOM     30  H   UNL     1      11.462  14.173  19.087  0.00  0.00    +0.000 HD
ENDBRANCH  26  29
ENDBRANCH  19  23
ENDBRANCH   1  20
TORSDOF 5
ENDMDL
