MODEL 1
REMARK VINA RESULT:      -9.4      0.000      0.000
REMARK  Name = 
REMARK  9 active torsions:
REMARK  status: ('A' for Active; 'I' for Inactive)
REMARK    1  A    between atoms: C_1  and  C_2
REMARK    2  A    between atoms: C_4  and  O_5
REMARK    3  A    between atoms: O_5  and  C_6
REMARK    4  A    between atoms: C_6  and  C_7
REMARK    5  A    between atoms: C_10  and  C_11
REMARK    6  A    between atoms: C_16  and  C_17
REMARK    7  A    between atoms: C_24  and  C_25
REMARK    8  A    between atoms: C_25  and  C_27
REMARK    9  A    between atoms: C_33  and  C_34
REMARK                            x       y       z     vdW  Elec       q    Type
REMARK                         _______ _______ _______ _____ _____    ______ ____
ROOT
ATOM      1  C   UNL     1       1.964  10.158  17.837  0.00  0.00    +0.000 C 
ENDROOT
BRANCH   1   2
ATOM      2  C   UNL     1       2.103   8.760  18.391  0.00  0.00    +0.000 A 
ATOM      3  C   UNL     1       2.601   7.711  17.617  0.00  0.00    +0.000 A 
ATOM      4  C   UNL     1       2.709   6.418  18.154  0.00  0.00    +0.000 A 
ATOM      5  C   UNL     1       2.349   6.128  19.486  0.00  0.00    +0.000 A 
ATOM      6  C   UNL     1       1.904   7.216  20.256  0.00  0.00    +0.000 A 
ATOM      7  C   UNL     1       1.731   8.493  19.710  0.00  0.00    +0.000 A 
BRANCH   5   8
ATOM      8  C   UNL     1       2.450   4.741  20.045  0.00  0.00    +0.000 A 
ATOM      9  C   UNL     1       1.363   4.234  20.802  0.00  0.00    +0.000 A 
ATOM     10  C   UNL     1       1.360   2.943  21.343  0.00  0.00    +0.000 A 
ATOM     11  C   UNL     1       2.433   2.097  21.124  0.00  0.00    +0.000 A 
ATOM     12  C   UNL     1       3.518   2.550  20.378  0.00  0.00    +0.000 A 
ATOM     13  C   UNL     1       3.555   3.863  19.856  0.00  0.00    +0.000 A 
BRANCH  13  14
ATOM     14  C   UNL     1       4.767   4.215  19.127  0.00  0.00    +0.000 A 
ATOM     15  N   UNL     1       5.797   4.912  19.724  0.00  0.00    +0.000 NA
ATOM     16  N   UNL     1       6.768   5.007  18.826  0.00  0.00    +0.000 NA
ATOM     17  N   UNL     1       6.285   4.384  17.747  0.00  0.00    +0.000 N 
ATOM     18  N   UNL     1       5.033   3.917  17.843  0.00  0.00    +0.000 NA
ATOM     19  H   UNL     1       6.848   4.257  16.910  0.00  0.00    +0.000 HD
ENDBRANCH  13  14
ENDBRANCH   5   8
ENDBRANCH   1   2
BRANCH   1  20
ATOM     20  O   UNL     1       1.319  10.977  18.808  0.00  0.00    +0.000 OA
BRANCH  20  24
ATOM     21  C   UNL     1       4.157  14.924  17.959  0.00  0.00    +0.000 C 
ATOM     22  C   UNL     1       2.858  14.274  18.327  0.00  0.00    +0.000 A 
ATOM     23  C   UNL     1       2.743  12.898  18.427  0.00  0.00    +0.000 A 
ATOM     24  C   UNL     1       1.499  12.334  18.725  0.00  0.00    +0.000 A 
ATOM     25  C   UNL     1       0.391  13.170  18.974  0.00  0.00    +0.000 A 
ATOM     26  C   UNL     1       0.592  14.557  18.838  0.00  0.00    +0.000 A 
ATOM     27  C   UNL     1      -0.469  15.611  18.962  0.00  0.00    +0.000 C 
ATOM     28  N   UNL     1       1.808  15.092  18.526  0.00  0.00    +0.000 NA
BRANCH  25  29
ATOM     29  C   UNL     1      -0.973  12.613  19.232  0.00  0.00    +0.000 C 
ATOM     30  O   UNL     1      -1.655  12.263  18.267  0.00  0.00    +0.000 OA
BRANCH  29  31
ATOM     31  C   UNL     1      -1.547  12.378  20.590  0.00  0.00    +0.000 A 
ATOM     32  C   UNL     1      -0.750  11.685  21.510  0.00  0.00    +0.000 A 
ATOM     33  C   UNL     1      -1.181  11.488  22.823  0.00  0.00    +0.000 A 
ATOM     34  C   UNL     1      -2.427  11.984  23.225  0.00  0.00    +0.000 A 
ATOM     35  C   UNL     1      -3.238  12.643  22.307  0.00  0.00    +0.000 A 
ATOM     36  C   UNL     1      -2.812  12.825  20.984  0.00  0.00    +0.000 A 
ENDBRANCH  29  31
ENDBRANCH  25  29
ENDBRANCH  20  24
ENDBRANCH   1  20
TORSDOF 7
ENDMDL
MODEL 2
REMARK VINA RESULT:      -9.4      0.983      1.355
REMARK  Name = 
REMARK  9 active torsions:
REMARK  status: ('A' for Active; 'I' for Inactive)
REMARK    1  A    between atoms: C_1  and  C_2
REMARK    2  A    between atoms: C_4  and  O_5
REMARK    3  A    between atoms: O_5  and  C_6
REMARK    4  A    between atoms: C_6  and  C_7
REMARK    5  A    between atoms: C_10  and  C_11
REMARK    6  A    between atoms: C_16  and  C_17
REMARK    7  A    between atoms: C_24  and  C_25
REMARK    8  A    between atoms: C_25  and  C_27
REMARK    9  A    between atoms: C_33  and  C_34
REMARK                            x       y       z     vdW  Elec       q    Type
REMARK                         _______ _______ _______ _____ _____    ______ ____
ROOT
ATOM      1  C   UNL     1       2.053  10.193  17.826  0.00  0.00    +0.000 C 
ENDROOT
BRANCH   1   2
ATOM      2  C   UNL     1       2.176   8.792  18.377  0.00  0.00    +0.000 A 
ATOM      3  C   UNL     1       2.737   7.757  17.628  0.00  0.00    +0.000 A 
ATOM      4  C   UNL     1       2.828   6.460  18.161  0.00  0.00    +0.000 A 
ATOM      5  C   UNL     1       2.389   6.154  19.466  0.00  0.00    +0.000 A 
ATOM      6  C   UNL     1       1.880   7.229  20.213  0.00  0.00    +0.000 A 
ATOM      7  C   UNL     1       1.724   8.508  19.667  0.00  0.00    +0.000 A 
BRANCH   5   8
ATOM      8  C   UNL     1       2.473   4.764  20.019  0.00  0.00    +0.000 A 
ATOM      9  C   UNL     1       1.375   4.263  20.763  0.00  0.00    +0.000 A 
ATOM     10  C   UNL     1       1.356   2.969  21.298  0.00  0.00    +0.000 A 
ATOM     11  C   UNL     1       2.425   2.115  21.085  0.00  0.00    +0.000 A 
ATOM     12  C   UNL     1       3.520   2.563  20.352  0.00  0.00    +0.000 A 
ATOM     13  C   UNL     1       3.572   3.878  19.836  0.00  0.00    +0.000 A 
BRANCH  13  14
ATOM     14  C   UNL     1       4.794   4.223  19.120  0.00  0.00    +0.000 A 
ATOM     15  N   UNL     1       5.830   4.897  19.734  0.00  0.00    +0.000 NA
ATOM     16  N   UNL     1       6.808   4.992  18.844  0.00  0.00    +0.000 NA
ATOM     17  N   UNL     1       6.323   4.390  17.752  0.00  0.00    +0.000 N 
ATOM     18  N   UNL     1       5.065   3.940  17.833  0.00  0.00    +0.000 NA
ATOM     19  H   UNL     1       6.890   4.268  16.917  0.00  0.00    +0.000 HD
ENDBRANCH  13  14
ENDBRANCH   5   8
ENDBRANCH   1   2
BRANCH   1  20
ATOM     20  O   UNL     1       1.193  10.948  18.673  0.00  0.00    +0.000 OA
BRANCH  20  24
ATOM     21  C   UNL     1       3.394  15.239  17.626  0.00  0.00    +0.000 C 
ATOM     22  C   UNL     1       2.657  14.311  18.544  0.00  0.00    +0.000 A 
ATOM     23  C   UNL     1       2.316  13.028  18.149  0.00  0.00    +0.000 A 
ATOM     24  C   UNL     1       1.584  12.216  19.021  0.00  0.00    +0.000 A 
ATOM     25  C   UNL     1       1.251  12.687  20.307  0.00  0.00    +0.000 A 
ATOM     26  C   UNL     1       1.625  14.008  20.622  0.00  0.00    +0.000 A 
ATOM     27  C   UNL     1       1.286  14.734  21.890  0.00  0.00    +0.000 C 
ATOM     28  N   UNL     1       2.321  14.797  19.752  0.00  0.00    +0.000 NA
BRANCH  25  29
ATOM     29  C   UNL     1       0.416  11.880  21.249  0.00  0.00    +0.000 C 
ATOM     30  O   UNL     1       0.962  10.984  21.895  0.00  0.00    +0.000 OA
BRANCH  29  31
ATOM     31  C   UNL     1      -1.031  12.129  21.522  0.00  0.00    +0.000 A 
ATOM     32  C   UNL     1      -1.461  12.004  22.849  0.00  0.00    +0.000 A 
ATOM     33  C   UNL     1      -2.781  12.292  23.202  0.00  0.00    +0.000 A 
ATOM     34  C   UNL     1      -3.688  12.705  22.219  0.00  0.00    +0.000 A 
ATOM     35  C   UNL     1      -3.275  12.798  20.893  0.00  0.00    +0.000 A 
ATOM     36  C   UNL     1      -1.954  12.492  20.537  0.00  0.00    +0.000 A 
ENDBRANCH  29  31
ENDBRANCH  25  29
ENDBRANCH  20  24
ENDBRANCH   1  20
TORSDOF 7
ENDMDL
MODEL 3
REMARK VINA RESULT:      -9.3      3.040      9.814
REMARK  Name = 
REMARK  9 active torsions:
REMARK  status: ('A' for Active; 'I' for Inactive)
REMARK    1  A    between atoms: C_1  and  C_2
REMARK    2  A    between atoms: C_4  and  O_5
REMARK    3  A    between atoms: O_5  and  C_6
REMARK    4  A    between atoms: C_6  and  C_7
REMARK    5  A    between atoms: C_10  and  C_11
REMARK    6  A    between atoms: C_16  and  C_17
REMARK    7  A    between atoms: C_24  and  C_25
REMARK    8  A    between atoms: C_25  and  C_27
REMARK    9  A    between atoms: C_33  and  C_34
REMARK                            x       y       z     vdW  Elec       q    Type
REMARK                         _______ _______ _______ _____ _____    ______ ____
ROOT
ATOM      1  C   UNL     1       2.636   7.103  18.683  0.00  0.00    +0.000 C 
ENDROOT
BRANCH   1   2
ATOM      2  C   UNL     1       1.771   8.171  19.307  0.00  0.00    +0.000 A 
ATOM      3  C   UNL     1       1.251   8.033  20.595  0.00  0.00    +0.000 A 
ATOM      4  C   UNL     1       0.439   9.037  21.148  0.00  0.00    +0.000 A 
ATOM      5  C   UNL     1       0.136  10.224  20.448  0.00  0.00    +0.000 A 
ATOM      6  C   UNL     1       0.720  10.357  19.177  0.00  0.00    +0.000 A 
ATOM      7  C   UNL     1       1.475   9.334  18.593  0.00  0.00    +0.000 A 
BRANCH   5   8
ATOM      8  C   UNL     1      -0.746  11.282  21.038  0.00  0.00    +0.000 A 
ATOM      9  C   UNL     1      -0.627  11.569  22.422  0.00  0.00    +0.000 A 
ATOM     10  C   UNL     1      -1.394  12.555  23.055  0.00  0.00    +0.000 A 
ATOM     11  C   UNL     1      -2.289  13.314  22.321  0.00  0.00    +0.000 A 
ATOM     12  C   UNL     1      -2.431  13.072  20.958  0.00  0.00    +0.000 A 
ATOM     13  C   UNL     1      -1.693  12.056  20.310  0.00  0.00    +0.000 A 
BRANCH  13  14
ATOM     14  C   UNL     1      -1.969  11.888  18.888  0.00  0.00    +0.000 A 
ATOM     15  N   UNL     1      -3.020  11.117  18.438  0.00  0.00    +0.000 NA
ATOM     16  N   UNL     1      -3.040  11.228  17.117  0.00  0.00    +0.000 NA
ATOM     17  N   UNL     1      -2.014  12.038  16.835  0.00  0.00    +0.000 N 
ATOM     18  N   UNL     1      -1.275  12.440  17.877  0.00  0.00    +0.000 NA
ATOM     19  H   UNL     1      -1.822  12.342  15.885  0.00  0.00    +0.000 HD
ENDBRANCH  13  14
ENDBRANCH   5   8
ENDBRANCH   1   2
BRANCH   1  20
ATOM     20  O   UNL     1       3.315   6.397  19.717  0.00  0.00    +0.000 OA
BRANCH  20  24
ATOM     21  C   UNL     1       1.170   2.515  21.881  0.00  0.00    +0.000 C 
ATOM     22  C   UNL     1       2.077   3.138  20.863  0.00  0.00    +0.000 A 
ATOM     23  C   UNL     1       2.283   4.506  20.823  0.00  0.00    +0.000 A 
ATOM     24  C   UNL     1       3.098   5.047  19.824  0.00  0.00    +0.000 A 
ATOM     25  C   UNL     1       3.744   4.193  18.906  0.00  0.00    +0.000 A 
ATOM     26  C   UNL     1       3.468   2.817  19.010  0.00  0.00    +0.000 A 
ATOM     27  C   UNL     1       3.970   1.752  18.079  0.00  0.00    +0.000 C 
ATOM     28  N   UNL     1       2.653   2.305  19.978  0.00  0.00    +0.000 NA
BRANCH  25  29
ATOM     29  C   UNL     1       4.572   4.729  17.782  0.00  0.00    +0.000 C 
ATOM     30  O   UNL     1       4.169   4.567  16.629  0.00  0.00    +0.000 OA
BRANCH  29  31
ATOM     31  C   UNL     1       5.829   5.516  17.958  0.00  0.00    +0.000 A 
ATOM     32  C   UNL     1       5.992   6.648  17.150  0.00  0.00    +0.000 A 
ATOM     33  C   UNL     1       7.101   7.481  17.303  0.00  0.00    +0.000 A 
ATOM     34  C   UNL     1       8.067   7.179  18.270  0.00  0.00    +0.000 A 
ATOM     35  C   UNL     1       7.928   6.037  19.053  0.00  0.00    +0.000 A 
ATOM     36  C   UNL     1       6.822   5.192  18.888  0.00  0.00    +0.000 A 
ENDBRANCH  29  31
ENDBRANCH  25  29
ENDBRANCH  20  24
ENDBRANCH   1  20
TORSDOF 7
ENDMDL
MODEL 4
REMARK VINA RESULT:      -9.3      0.206      1.047
REMARK  Name = 
REMARK  9 active torsions:
REMARK  status: ('A' for Active; 'I' for Inactive)
REMARK    1  A    between atoms: C_1  and  C_2
REMARK    2  A    between atoms: C_4  and  O_5
REMARK    3  A    between atoms: O_5  and  C_6
REMARK    4  A    between atoms: C_6  and  C_7
REMARK    5  A    between atoms: C_10  and  C_11
REMARK    6  A    between atoms: C_16  and  C_17
REMARK    7  A    between atoms: C_24  and  C_25
REMARK    8  A    between atoms: C_25  and  C_27
REMARK    9  A    between atoms: C_33  and  C_34
REMARK                            x       y       z     vdW  Elec       q    Type
REMARK                         _______ _______ _______ _____ _____    ______ ____
ROOT
ATOM      1  C   UNL     1       1.874  10.303  17.929  0.00  0.00    +0.000 C 
ENDROOT
BRANCH   1   2
ATOM      2  C   UNL     1       2.033   8.894  18.450  0.00  0.00    +0.000 A 
ATOM      3  C   UNL     1       2.540   7.870  17.648  0.00  0.00    +0.000 A 
ATOM      4  C   UNL     1       2.667   6.566  18.153  0.00  0.00    +0.000 A 
ATOM      5  C   UNL     1       2.319   6.240  19.481  0.00  0.00    +0.000 A 
ATOM      6  C   UNL     1       1.865   7.304  20.278  0.00  0.00    +0.000 A 
ATOM      7  C   UNL     1       1.673   8.591  19.764  0.00  0.00    +0.000 A 
BRANCH   5   8
ATOM      8  C   UNL     1       2.440   4.842  20.006  0.00  0.00    +0.000 A 
ATOM      9  C   UNL     1       1.348   4.289  20.722  0.00  0.00    +0.000 A 
ATOM     10  C   UNL     1       1.362   2.985  21.229  0.00  0.00    +0.000 A 
ATOM     11  C   UNL     1       2.461   2.170  21.015  0.00  0.00    +0.000 A 
ATOM     12  C   UNL     1       3.552   2.669  20.309  0.00  0.00    +0.000 A 
ATOM     13  C   UNL     1       3.570   3.996  19.822  0.00  0.00    +0.000 A 
BRANCH  13  14
ATOM     14  C   UNL     1       4.791   4.396  19.133  0.00  0.00    +0.000 A 
ATOM     15  N   UNL     1       5.019   4.073  17.811  0.00  0.00    +0.000 NA
ATOM     16  N   UNL     1       6.169   4.637  17.471  0.00  0.00    +0.000 NA
ATOM     17  N   UNL     1       6.579   5.254  18.584  0.00  0.00    +0.000 N 
ATOM     18  N   UNL     1       5.804   5.102  19.665  0.00  0.00    +0.000 NA
ATOM     19  H   UNL     1       7.422   5.822  18.597  0.00  0.00    +0.000 HD
ENDBRANCH  13  14
ENDBRANCH   5   8
ENDBRANCH   1   2
BRANCH   1  20
ATOM     20  O   UNL     1       1.419  11.137  18.990  0.00  0.00    +0.000 OA
BRANCH  20  24
ATOM     21  C   UNL     1       4.116  15.119  17.881  0.00  0.00    +0.000 C 
ATOM     22  C   UNL     1       2.848  14.451  18.322  0.00  0.00    +0.000 A 
ATOM     23  C   UNL     1       2.776  13.078  18.482  0.00  0.00    +0.000 A 
ATOM     24  C   UNL     1       1.558  12.494  18.845  0.00  0.00    +0.000 A 
ATOM     25  C   UNL     1       0.436  13.310  19.098  0.00  0.00    +0.000 A 
ATOM     26  C   UNL     1       0.594  14.695  18.898  0.00  0.00    +0.000 A 
ATOM     27  C   UNL     1      -0.491  15.725  19.016  0.00  0.00    +0.000 C 
ATOM     28  N   UNL     1       1.784  15.249  18.522  0.00  0.00    +0.000 NA
BRANCH  25  29
ATOM     29  C   UNL     1      -0.902  12.729  19.426  0.00  0.00    +0.000 C 
ATOM     30  O   UNL     1      -1.641  12.399  18.496  0.00  0.00    +0.000 OA
BRANCH  29  31
ATOM     31  C   UNL     1      -1.385  12.447  20.811  0.00  0.00    +0.000 A 
ATOM     32  C   UNL     1      -2.597  13.033  21.196  0.00  0.00    +0.000 A 
ATOM     33  C   UNL     1      -3.157  12.761  22.446  0.00  0.00    +0.000 A 
ATOM     34  C   UNL     1      -2.497  11.897  23.328  0.00  0.00    +0.000 A 
ATOM     35  C   UNL     1      -1.275  11.338  22.964  0.00  0.00    +0.000 A 
ATOM     36  C   UNL     1      -0.706  11.625  21.715  0.00  0.00    +0.000 A 
ENDBRANCH  29  31
ENDBRANCH  25  29
ENDBRANCH  20  24
ENDBRANCH   1  20
TORSDOF 7
ENDMDL
MODEL 5
REMARK VINA RESULT:      -9.2      1.299      1.791
REMARK  Name = 
REMARK  9 active torsions:
REMARK  status: ('A' for Active; 'I' for Inactive)
REMARK    1  A    between atoms: C_1  and  C_2
REMARK    2  A    between atoms: C_4  and  O_5
REMARK    3  A    between atoms: O_5  and  C_6
REMARK    4  A    between atoms: C_6  and  C_7
REMARK    5  A    between atoms: C_10  and  C_11
REMARK    6  A    between atoms: C_16  and  C_17
REMARK    7  A    between atoms: C_24  and  C_25
REMARK    8  A    between atoms: C_25  and  C_27
REMARK    9  A    between atoms: C_33  and  C_34
REMARK                            x       y       z     vdW  Elec       q    Type
REMARK                         _______ _______ _______ _____ _____    ______ ____
ROOT
ATOM      1  C   UNL     1       1.927  10.280  18.098  0.00  0.00    +0.000 C 
ENDROOT
BRANCH   1   2
ATOM      2  C   UNL     1       2.047   8.848  18.562  0.00  0.00    +0.000 A 
ATOM      3  C   UNL     1       2.464   7.832  17.702  0.00  0.00    +0.000 A 
ATOM      4  C   UNL     1       2.556   6.506  18.157  0.00  0.00    +0.000 A 
ATOM      5  C   UNL     1       2.262   6.150  19.489  0.00  0.00    +0.000 A 
ATOM      6  C   UNL     1       1.900   7.204  20.344  0.00  0.00    +0.000 A 
ATOM      7  C   UNL     1       1.741   8.516  19.883  0.00  0.00    +0.000 A 
BRANCH   5   8
ATOM      8  C   UNL     1       2.346   4.730  19.961  0.00  0.00    +0.000 A 
ATOM      9  C   UNL     1       1.245   4.185  20.670  0.00  0.00    +0.000 A 
ATOM     10  C   UNL     1       1.225   2.863  21.130  0.00  0.00    +0.000 A 
ATOM     11  C   UNL     1       2.295   2.023  20.871  0.00  0.00    +0.000 A 
ATOM     12  C   UNL     1       3.392   2.513  20.169  0.00  0.00    +0.000 A 
ATOM     13  C   UNL     1       3.446   3.856  19.731  0.00  0.00    +0.000 A 
BRANCH  13  14
ATOM     14  C   UNL     1       4.670   4.243  19.041  0.00  0.00    +0.000 A 
ATOM     15  N   UNL     1       5.702   4.883  19.696  0.00  0.00    +0.000 NA
ATOM     16  N   UNL     1       6.684   5.029  18.817  0.00  0.00    +0.000 NA
ATOM     17  N   UNL     1       6.205   4.489  17.691  0.00  0.00    +0.000 N 
ATOM     18  N   UNL     1       4.947   4.033  17.742  0.00  0.00    +0.000 NA
ATOM     19  H   UNL     1       6.775   4.415  16.854  0.00  0.00    +0.000 HD
ENDBRANCH  13  14
ENDBRANCH   5   8
ENDBRANCH   1   2
BRANCH   1  20
ATOM     20  O   UNL     1       1.695  11.114  19.229  0.00  0.00    +0.000 OA
BRANCH  20  24
ATOM     21  C   UNL     1       3.504  15.387  17.549  0.00  0.00    +0.000 C 
ATOM     22  C   UNL     1       2.449  14.562  18.222  0.00  0.00    +0.000 A 
ATOM     23  C   UNL     1       2.623  13.205  18.434  0.00  0.00    +0.000 A 
ATOM     24  C   UNL     1       1.591  12.465  19.020  0.00  0.00    +0.000 A 
ATOM     25  C   UNL     1       0.411  13.116  19.438  0.00  0.00    +0.000 A 
ATOM     26  C   UNL     1       0.312  14.494  19.171  0.00  0.00    +0.000 A 
ATOM     27  C   UNL     1      -0.888  15.354  19.442  0.00  0.00    +0.000 C 
ATOM     28  N   UNL     1       1.320  15.199  18.578  0.00  0.00    +0.000 NA
BRANCH  25  29
ATOM     29  C   UNL     1      -0.744  12.359  20.010  0.00  0.00    +0.000 C 
ATOM     30  O   UNL     1      -0.813  12.234  21.234  0.00  0.00    +0.000 OA
BRANCH  29  31
ATOM     31  C   UNL     1      -1.871  11.799  19.205  0.00  0.00    +0.000 A 
ATOM     32  C   UNL     1      -1.579  10.722  18.360  0.00  0.00    +0.000 A 
ATOM     33  C   UNL     1      -2.589  10.093  17.629  0.00  0.00    +0.000 A 
ATOM     34  C   UNL     1      -3.909  10.547  17.738  0.00  0.00    +0.000 A 
ATOM     35  C   UNL     1      -4.200  11.639  18.550  0.00  0.00    +0.000 A 
ATOM     36  C   UNL     1      -3.182  12.281  19.270  0.00  0.00    +0.000 A 
ENDBRANCH  29  31
ENDBRANCH  25  29
ENDBRANCH  20  24
ENDBRANCH   1  20
TORSDOF 7
ENDMDL
MODEL 6
REMARK VINA RESULT:      -9.2      1.247      1.408
REMARK  Name = 
REMARK  9 active torsions:
REMARK  status: ('A' for Active; 'I' for Inactive)
REMARK    1  A    between atoms: C_1  and  C_2
REMARK    2  A    between atoms: C_4  and  O_5
REMARK    3  A    between atoms: O_5  and  C_6
REMARK    4  A    between atoms: C_6  and  C_7
REMARK    5  A    between atoms: C_10  and  C_11
REMARK    6  A    between atoms: C_16  and  C_17
REMARK    7  A    between atoms: C_24  and  C_25
REMARK    8  A    between atoms: C_25  and  C_27
REMARK    9  A    between atoms: C_33  and  C_34
REMARK                            x       y       z     vdW  Elec       q    Type
REMARK                         _______ _______ _______ _____ _____    ______ ____
ROOT
ATOM      1  C   UNL     1       1.207  10.033  20.258  0.00  0.00    +0.000 C 
ENDROOT
BRANCH   1   2
ATOM      2  C   UNL     1       1.595   8.636  19.835  0.00  0.00    +0.000 A 
ATOM      3  C   UNL     1       2.045   8.361  18.543  0.00  0.00    +0.000 A 
ATOM      4  C   UNL     1       2.388   7.050  18.171  0.00  0.00    +0.000 A 
ATOM      5  C   UNL     1       2.321   5.973  19.079  0.00  0.00    +0.000 A 
ATOM      6  C   UNL     1       1.918   6.292  20.387  0.00  0.00    +0.000 A 
ATOM      7  C   UNL     1       1.510   7.582  20.747  0.00  0.00    +0.000 A 
BRANCH   5   8
ATOM      8  C   UNL     1       2.672   4.575  18.669  0.00  0.00    +0.000 A 
ATOM      9  C   UNL     1       1.620   3.652  18.440  0.00  0.00    +0.000 A 
ATOM     10  C   UNL     1       1.852   2.332  18.034  0.00  0.00    +0.000 A 
ATOM     11  C   UNL     1       3.146   1.893  17.811  0.00  0.00    +0.000 A 
ATOM     12  C   UNL     1       4.208   2.769  18.014  0.00  0.00    +0.000 A 
ATOM     13  C   UNL     1       3.995   4.093  18.461  0.00  0.00    +0.000 A 
BRANCH  13  14
ATOM     14  C   UNL     1       5.200   4.888  18.667  0.00  0.00    +0.000 A 
ATOM     15  N   UNL     1       5.960   4.770  19.812  0.00  0.00    +0.000 NA
ATOM     16  N   UNL     1       7.010   5.565  19.659  0.00  0.00    +0.000 NA
ATOM     17  N   UNL     1       6.834   6.121  18.456  0.00  0.00    +0.000 N 
ATOM     18  N   UNL     1       5.709   5.790  17.810  0.00  0.00    +0.000 NA
ATOM     19  H   UNL     1       7.528   6.744  18.052  0.00  0.00    +0.000 HD
ENDBRANCH  13  14
ENDBRANCH   5   8
ENDBRANCH   1   2
BRANCH   1  20
ATOM     20  O   UNL     1       0.693  10.731  19.128  0.00  0.00    +0.000 OA
BRANCH  20  24
ATOM     21  C   UNL     1       3.872  14.395  18.221  0.00  0.00    +0.000 C 
ATOM     22  C   UNL     1       2.515  13.869  18.581  0.00  0.00    +0.000 A 
ATOM     23  C   UNL     1       2.283  12.512  18.720  0.00  0.00    +0.000 A 
ATOM     24  C   UNL     1       0.989  12.064  19.007  0.00  0.00    +0.000 A 
ATOM     25  C   UNL     1      -0.049  12.998  19.205  0.00  0.00    +0.000 A 
ATOM     26  C   UNL     1       0.272  14.358  19.031  0.00  0.00    +0.000 A 
ATOM     27  C   UNL     1      -0.698  15.501  19.098  0.00  0.00    +0.000 C 
ATOM     28  N   UNL     1       1.535  14.779  18.730  0.00  0.00    +0.000 NA
BRANCH  25  29
ATOM     29  C   UNL     1      -1.460  12.567  19.450  0.00  0.00    +0.000 C 
ATOM     30  O   UNL     1      -2.139  12.213  18.484  0.00  0.00    +0.000 OA
BRANCH  29  31
ATOM     31  C   UNL     1      -2.090  12.462  20.799  0.00  0.00    +0.000 A 
ATOM     32  C   UNL     1      -1.291  11.975  21.841  0.00  0.00    +0.000 A 
ATOM     33  C   UNL     1      -1.780  11.916  23.148  0.00  0.00    +0.000 A 
ATOM     34  C   UNL     1      -3.085  12.341  23.420  0.00  0.00    +0.000 A 
ATOM     35  C   UNL     1      -3.895  12.794  22.383  0.00  0.00    +0.000 A 
ATOM     36  C   UNL     1      -3.410  12.837  21.068  0.00  0.00    +0.000 A 
ENDBRANCH  29  31
ENDBRANCH  25  29
ENDBRANCH  20  24
ENDBRANCH   1  20
TORSDOF 7
ENDMDL
MODEL 7
REMARK VINA RESULT:      -9.2      0.129      1.031
REMARK  Name = 
REMARK  9 active torsions:
REMARK  status: ('A' for Active; 'I' for Inactive)
REMARK    1  A    between atoms: C_1  and  C_2
REMARK    2  A    between atoms: C_4  and  O_5
REMARK    3  A    between atoms: O_5  and  C_6
REMARK    4  A    between atoms: C_6  and  C_7
REMARK    5  A    between atoms: C_10  and  C_11
REMARK    6  A    between atoms: C_16  and  C_17
REMARK    7  A    between atoms: C_24  and  C_25
REMARK    8  A    between atoms: C_25  and  C_27
REMARK    9  A    between atoms: C_33  and  C_34
REMARK                            x       y       z     vdW  Elec       q    Type
REMARK                         _______ _______ _______ _____ _____    ______ ____
ROOT
ATOM      1  C   UNL     1       2.016  10.225  17.887  0.00  0.00    +0.000 C 
ENDROOT
BRANCH   1   2
ATOM      2  C   UNL     1       2.108   8.824  18.442  0.00  0.00    +0.000 A 
ATOM      3  C   UNL     1       1.786   8.540  19.770  0.00  0.00    +0.000 A 
ATOM      4  C   UNL     1       1.892   7.229  20.265  0.00  0.00    +0.000 A 
ATOM      5  C   UNL     1       2.297   6.152  19.450  0.00  0.00    +0.000 A 
ATOM      6  C   UNL     1       2.560   6.461  18.105  0.00  0.00    +0.000 A 
ATOM      7  C   UNL     1       2.522   7.773  17.621  0.00  0.00    +0.000 A 
BRANCH   5   8
ATOM      8  C   UNL     1       2.425   4.761  19.991  0.00  0.00    +0.000 A 
ATOM      9  C   UNL     1       1.328   4.205  20.698  0.00  0.00    +0.000 A 
ATOM     10  C   UNL     1       1.349   2.906  21.220  0.00  0.00    +0.000 A 
ATOM     11  C   UNL     1       2.458   2.100  21.028  0.00  0.00    +0.000 A 
ATOM     12  C   UNL     1       3.553   2.601  20.331  0.00  0.00    +0.000 A 
ATOM     13  C   UNL     1       3.565   3.923  19.830  0.00  0.00    +0.000 A 
BRANCH  13  14
ATOM     14  C   UNL     1       4.791   4.327  19.153  0.00  0.00    +0.000 A 
ATOM     15  N   UNL     1       5.020   4.029  17.826  0.00  0.00    +0.000 NA
ATOM     16  N   UNL     1       6.175   4.591  17.500  0.00  0.00    +0.000 NA
ATOM     17  N   UNL     1       6.587   5.183  18.625  0.00  0.00    +0.000 N 
ATOM     18  N   UNL     1       5.807   5.016  19.702  0.00  0.00    +0.000 NA
ATOM     19  H   UNL     1       7.434   5.744  18.652  0.00  0.00    +0.000 HD
ENDBRANCH  13  14
ENDBRANCH   5   8
ENDBRANCH   1   2
BRANCH   1  20
ATOM     20  O   UNL     1       1.261  11.029  18.787  0.00  0.00    +0.000 OA
BRANCH  20  24
ATOM     21  C   UNL     1       4.044  15.021  17.964  0.00  0.00    +0.000 C 
ATOM     22  C   UNL     1       2.758  14.351  18.343  0.00  0.00    +0.000 A 
ATOM     23  C   UNL     1       2.659  12.972  18.419  0.00  0.00    +0.000 A 
ATOM     24  C   UNL     1       1.426  12.389  18.727  0.00  0.00    +0.000 A 
ATOM     25  C   UNL     1       0.314  13.209  19.011  0.00  0.00    +0.000 A 
ATOM     26  C   UNL     1       0.498  14.600  18.897  0.00  0.00    +0.000 A 
ATOM     27  C   UNL     1      -0.571  15.640  19.059  0.00  0.00    +0.000 C 
ATOM     28  N   UNL     1       1.704  15.154  18.575  0.00  0.00    +0.000 NA
BRANCH  25  29
ATOM     29  C   UNL     1      -1.039  12.633  19.282  0.00  0.00    +0.000 C 
ATOM     30  O   UNL     1      -1.718  12.257  18.324  0.00  0.00    +0.000 OA
BRANCH  29  31
ATOM     31  C   UNL     1      -1.606  12.410  20.645  0.00  0.00    +0.000 A 
ATOM     32  C   UNL     1      -0.830  11.670  21.547  0.00  0.00    +0.000 A 
ATOM     33  C   UNL     1      -1.252  11.480  22.863  0.00  0.00    +0.000 A 
ATOM     34  C   UNL     1      -2.469  12.028  23.288  0.00  0.00    +0.000 A 
ATOM     35  C   UNL     1      -3.260  12.735  22.387  0.00  0.00    +0.000 A 
ATOM     36  C   UNL     1      -2.843  12.912  21.061  0.00  0.00    +0.000 A 
ENDBRANCH  29  31
ENDBRANCH  25  29
ENDBRANCH  20  24
ENDBRANCH   1  20
TORSDOF 7
ENDMDL
MODEL 8
REMARK VINA RESULT:      -9.2      1.733      2.470
REMARK  Name = 
REMARK  9 active torsions:
REMARK  status: ('A' for Active; 'I' for Inactive)
REMARK    1  A    between atoms: C_1  and  C_2
REMARK    2  A    between atoms: C_4  and  O_5
REMARK    3  A    between atoms: O_5  and  C_6
REMARK    4  A    between atoms: C_6  and  C_7
REMARK    5  A    between atoms: C_10  and  C_11
REMARK    6  A    between atoms: C_16  and  C_17
REMARK    7  A    between atoms: C_24  and  C_25
REMARK    8  A    between atoms: C_25  and  C_27
REMARK    9  A    between atoms: C_33  and  C_34
REMARK                            x       y       z     vdW  Elec       q    Type
REMARK                         _______ _______ _______ _____ _____    ______ ____
ROOT
ATOM      1  C   UNL     1       1.301  10.116  19.913  0.00  0.00    +0.000 C 
ENDROOT
BRANCH   1   2
ATOM      2  C   UNL     1       1.672   8.693  19.568  0.00  0.00    +0.000 A 
ATOM      3  C   UNL     1       2.061   8.331  18.277  0.00  0.00    +0.000 A 
ATOM      4  C   UNL     1       2.389   6.997  17.980  0.00  0.00    +0.000 A 
ATOM      5  C   UNL     1       2.367   5.985  18.961  0.00  0.00    +0.000 A 
ATOM      6  C   UNL     1       2.027   6.392  20.262  0.00  0.00    +0.000 A 
ATOM      7  C   UNL     1       1.634   7.704  20.552  0.00  0.00    +0.000 A 
BRANCH   5   8
ATOM      8  C   UNL     1       2.702   4.562  18.631  0.00  0.00    +0.000 A 
ATOM      9  C   UNL     1       1.639   3.644  18.431  0.00  0.00    +0.000 A 
ATOM     10  C   UNL     1       1.855   2.302  18.098  0.00  0.00    +0.000 A 
ATOM     11  C   UNL     1       3.145   1.831  17.922  0.00  0.00    +0.000 A 
ATOM     12  C   UNL     1       4.218   2.699  18.099  0.00  0.00    +0.000 A 
ATOM     13  C   UNL     1       4.020   4.048  18.472  0.00  0.00    +0.000 A 
BRANCH  13  14
ATOM     14  C   UNL     1       5.234   4.833  18.658  0.00  0.00    +0.000 A 
ATOM     15  N   UNL     1       5.954   4.789  19.834  0.00  0.00    +0.000 NA
ATOM     16  N   UNL     1       7.026   5.550  19.657  0.00  0.00    +0.000 NA
ATOM     17  N   UNL     1       6.901   6.016  18.410  0.00  0.00    +0.000 N 
ATOM     18  N   UNL     1       5.790   5.658  17.753  0.00  0.00    +0.000 NA
ATOM     19  H   UNL     1       7.620   6.593  17.984  0.00  0.00    +0.000 HD
ENDBRANCH  13  14
ENDBRANCH   5   8
ENDBRANCH   1   2
BRANCH   1  20
ATOM     20  O   UNL     1       1.073  10.838  18.707  0.00  0.00    +0.000 OA
BRANCH  20  24
ATOM     21  C   UNL     1       3.458  15.083  17.899  0.00  0.00    +0.000 C 
ATOM     22  C   UNL     1       2.282  14.288  18.383  0.00  0.00    +0.000 A 
ATOM     23  C   UNL     1       2.281  12.905  18.339  0.00  0.00    +0.000 A 
ATOM     24  C   UNL     1       1.143  12.207  18.755  0.00  0.00    +0.000 A 
ATOM     25  C   UNL     1       0.033  12.914  19.264  0.00  0.00    +0.000 A 
ATOM     26  C   UNL     1       0.113  14.319  19.260  0.00  0.00    +0.000 A 
ATOM     27  C   UNL     1      -0.984  15.259  19.664  0.00  0.00    +0.000 C 
ATOM     28  N   UNL     1       1.224  14.988  18.831  0.00  0.00    +0.000 NA
BRANCH  25  29
ATOM     29  C   UNL     1      -1.229  12.217  19.660  0.00  0.00    +0.000 C 
ATOM     30  O   UNL     1      -1.413  11.974  20.854  0.00  0.00    +0.000 OA
BRANCH  29  31
ATOM     31  C   UNL     1      -2.327  11.855  18.715  0.00  0.00    +0.000 A 
ATOM     32  C   UNL     1      -3.640  12.100  19.138  0.00  0.00    +0.000 A 
ATOM     33  C   UNL     1      -4.720  11.860  18.287  0.00  0.00    +0.000 A 
ATOM     34  C   UNL     1      -4.492  11.362  16.999  0.00  0.00    +0.000 A 
ATOM     35  C   UNL     1      -3.192  11.085  16.586  0.00  0.00    +0.000 A 
ATOM     36  C   UNL     1      -2.109  11.310  17.446  0.00  0.00    +0.000 A 
ENDBRANCH  29  31
ENDBRANCH  25  29
ENDBRANCH  20  24
ENDBRANCH   1  20
TORSDOF 7
ENDMDL
MODEL 9
REMARK VINA RESULT:      -9.1      2.229      3.440
REMARK  Name = 
REMARK  9 active torsions:
REMARK  status: ('A' for Active; 'I' for Inactive)
REMARK    1  A    between atoms: C_1  and  C_2
REMARK    2  A    between atoms: C_4  and  O_5
REMARK    3  A    between atoms: O_5  and  C_6
REMARK    4  A    between atoms: C_6  and  C_7
REMARK    5  A    between atoms: C_10  and  C_11
REMARK    6  A    between atoms: C_16  and  C_17
REMARK    7  A    between atoms: C_24  and  C_25
REMARK    8  A    between atoms: C_25  and  C_27
REMARK    9  A    between atoms: C_33  and  C_34
REMARK                            x       y       z     vdW  Elec       q    Type
REMARK                         _______ _______ _______ _____ _____    ______ ____
ROOT
ATOM      1  C   UNL     1       0.605   9.420  20.663  0.00  0.00    +0.000 C 
ENDROOT
BRANCH   1   2
ATOM      2  C   UNL     1       1.463   8.531  19.795  0.00  0.00    +0.000 A 
ATOM      3  C   UNL     1       1.746   8.856  18.468  0.00  0.00    +0.000 A 
ATOM      4  C   UNL     1       2.538   8.005  17.679  0.00  0.00    +0.000 A 
ATOM      5  C   UNL     1       3.097   6.816  18.190  0.00  0.00    +0.000 A 
ATOM      6  C   UNL     1       2.840   6.546  19.545  0.00  0.00    +0.000 A 
ATOM      7  C   UNL     1       1.998   7.353  20.318  0.00  0.00    +0.000 A 
BRANCH   5   8
ATOM      8  C   UNL     1       3.925   5.905  17.336  0.00  0.00    +0.000 A 
ATOM      9  C   UNL     1       4.961   6.470  16.550  0.00  0.00    +0.000 A 
ATOM     10  C   UNL     1       5.799   5.695  15.739  0.00  0.00    +0.000 A 
ATOM     11  C   UNL     1       5.652   4.318  15.706  0.00  0.00    +0.000 A 
ATOM     12  C   UNL     1       4.654   3.721  16.470  0.00  0.00    +0.000 A 
ATOM     13  C   UNL     1       3.775   4.491  17.265  0.00  0.00    +0.000 A 
BRANCH  13  14
ATOM     14  C   UNL     1       2.755   3.737  17.984  0.00  0.00    +0.000 A 
ATOM     15  N   UNL     1       1.442   3.708  17.562  0.00  0.00    +0.000 NA
ATOM     16  N   UNL     1       0.794   2.889  18.378  0.00  0.00    +0.000 NA
ATOM     17  N   UNL     1       1.726   2.476  19.244  0.00  0.00    +0.000 N 
ATOM     18  N   UNL     1       2.948   3.002  19.093  0.00  0.00    +0.000 NA
ATOM     19  H   UNL     1       1.517   1.787  19.961  0.00  0.00    +0.000 HD
ENDBRANCH  13  14
ENDBRANCH   5   8
ENDBRANCH   1   2
BRANCH   1  20
ATOM     20  O   UNL     1       0.105  10.494  19.871  0.00  0.00    +0.000 OA
BRANCH  20  24
ATOM     21  C   UNL     1       3.215  14.029  18.393  0.00  0.00    +0.000 C 
ATOM     22  C   UNL     1       2.195  13.462  19.334  0.00  0.00    +0.000 A 
ATOM     23  C   UNL     1       1.669  12.195  19.148  0.00  0.00    +0.000 A 
ATOM     24  C   UNL     1       0.683  11.728  20.023  0.00  0.00    +0.000 A 
ATOM     25  C   UNL     1       0.277  12.525  21.113  0.00  0.00    +0.000 A 
ATOM     26  C   UNL     1       0.853  13.805  21.220  0.00  0.00    +0.000 A 
ATOM     27  C   UNL     1       0.493  14.844  22.241  0.00  0.00    +0.000 C 
ATOM     28  N   UNL     1       1.799  14.256  20.345  0.00  0.00    +0.000 NA
BRANCH  25  29
ATOM     29  C   UNL     1      -0.818  12.096  22.037  0.00  0.00    +0.000 C 
ATOM     30  O   UNL     1      -0.510  11.505  23.074  0.00  0.00    +0.000 OA
BRANCH  29  31
ATOM     31  C   UNL     1      -2.266  12.396  21.830  0.00  0.00    +0.000 A 
ATOM     32  C   UNL     1      -3.072  12.475  22.973  0.00  0.00    +0.000 A 
ATOM     33  C   UNL     1      -4.419  12.825  22.874  0.00  0.00    +0.000 A 
ATOM     34  C   UNL     1      -4.975  13.095  21.617  0.00  0.00    +0.000 A 
ATOM     35  C   UNL     1      -4.188  12.985  20.475  0.00  0.00    +0.000 A 
ATOM     36  C   UNL     1      -2.839  12.617  20.574  0.00  0.00    +0.000 A 
ENDBRANCH  29  31
ENDBRANCH  25  29
ENDBRANCH  20  24
ENDBRANCH   1  20
TORSDOF 7
ENDMDL
