MODEL 1
REMARK VINA RESULT:      -7.7      0.000      0.000
REMARK  Name = 
REMARK  9 active torsions:
REMARK  status: ('A' for Active; 'I' for Inactive)
REMARK    1  A    between atoms: C_1  and  O_2
REMARK    2  A    between atoms: O_2  and  C_3
REMARK    3  A    between atoms: C_6  and  C_7
REMARK    4  A    between atoms: C_7  and  N_8
REMARK    5  A    between atoms: N_8  and  C_9
REMARK    6  A    between atoms: C_15  and  O_16
REMARK    7  A    between atoms: O_16  and  C_17
REMARK    8  A    between atoms: C_18  and  O_19
REMARK    9  A    between atoms: O_19  and  C_20
REMARK                            x       y       z     vdW  Elec       q    Type
REMARK                         _______ _______ _______ _____ _____    ______ ____
ROOT
ATOM      1  C   UNL     1       3.650   2.554  18.139  0.00  0.00    +0.000 A 
ATOM      2  N   UNL     1       3.946   2.108  19.377  0.00  0.00    +0.000 NA
ATOM      3  C   UNL     1       4.897   2.706  20.047  0.00  0.00    +0.000 A 
ATOM      4  N   UNL     1       5.549   3.768  19.629  0.00  0.00    +0.000 NA
ATOM      5  C   UNL     1       5.425   4.081  18.355  0.00  0.00    +0.000 A 
ATOM      6  C   UNL     1       6.268   5.132  18.048  0.00  0.00    +0.000 A 
ATOM      7  C   UNL     1       6.617   5.502  16.769  0.00  0.00    +0.000 A 
ATOM      8  C   UNL     1       6.011   4.803  15.720  0.00  0.00    +0.000 A 
ATOM      9  C   UNL     1       4.956   3.848  16.042  0.00  0.00    +0.000 A 
ATOM     10  C   UNL     1       4.594   3.445  17.424  0.00  0.00    +0.000 A 
ENDROOT
BRANCH   1  11
ATOM     11  N   UNL     1       2.418   2.041  17.676  0.00  0.00    +0.000 N 
ATOM     12  H   UNL     1       2.364   2.078  16.667  0.00  0.00    +0.000 HD
BRANCH  11  13
ATOM     13  C   UNL     1       1.188   2.775  18.261  0.00  0.00    +0.000 C 
BRANCH  13  17
ATOM     14  C   UNL     1       1.990   6.812  19.762  0.00  0.00    +0.000 A 
ATOM     15  C   UNL     1       1.626   5.760  20.600  0.00  0.00    +0.000 A 
ATOM     16  C   UNL     1       1.385   4.478  20.109  0.00  0.00    +0.000 A 
ATOM     17  C   UNL     1       1.454   4.203  18.743  0.00  0.00    +0.000 A 
ATOM     18  C   UNL     1       1.886   5.254  17.894  0.00  0.00    +0.000 A 
ATOM     19  C   UNL     1       2.149   6.556  18.401  0.00  0.00    +0.000 A 
BRANCH  14  21
ATOM     20  C   UNL     1       1.181   8.355  21.420  0.00  0.00    +0.000 C 
ATOM     21  O   UNL     1       2.123   8.000  20.423  0.00  0.00    +0.000 OA
ENDBRANCH  14  21
ENDBRANCH  13  17
ENDBRANCH  11  13
ENDBRANCH   1  11
BRANCH   7  22
ATOM     22  O   UNL     1       7.523   6.509  16.548  0.00  0.00    +0.000 OA
ATOM     23  C   UNL     1       7.582   7.548  17.519  0.00  0.00    +0.000 C 
ENDBRANCH   7  22
BRANCH   8  24
ATOM     24  O   UNL     1       6.367   4.905  14.389  0.00  0.00    +0.000 OA
ATOM     25  C   UNL     1       6.005   3.866  13.467  0.00  0.00    +0.000 C 
ENDBRANCH   8  24
TORSDOF 6
ENDMDL
MODEL 2
REMARK VINA RESULT:      -7.4      0.320      1.030
REMARK  Name = 
REMARK  9 active torsions:
REMARK  status: ('A' for Active; 'I' for Inactive)
REMARK    1  A    between atoms: C_1  and  O_2
REMARK    2  A    between atoms: O_2  and  C_3
REMARK    3  A    between atoms: C_6  and  C_7
REMARK    4  A    between atoms: C_7  and  N_8
REMARK    5  A    between atoms: N_8  and  C_9
REMARK    6  A    between atoms: C_15  and  O_16
REMARK    7  A    between atoms: O_16  and  C_17
REMARK    8  A    between atoms: C_18  and  O_19
REMARK    9  A    between atoms: O_19  and  C_20
REMARK                            x       y       z     vdW  Elec       q    Type
REMARK                         _______ _______ _______ _____ _____    ______ ____
ROOT
ATOM      1  C   UNL     1       3.592   2.353  18.223  0.00  0.00    +0.000 A 
ATOM      2  N   UNL     1       3.976   1.903  19.435  0.00  0.00    +0.000 NA
ATOM      3  C   UNL     1       4.909   2.555  20.079  0.00  0.00    +0.000 A 
ATOM      4  N   UNL     1       5.462   3.671  19.661  0.00  0.00    +0.000 NA
ATOM      5  C   UNL     1       5.259   4.002  18.402  0.00  0.00    +0.000 A 
ATOM      6  C   UNL     1       6.008   5.120  18.087  0.00  0.00    +0.000 A 
ATOM      7  C   UNL     1       6.272   5.543  16.803  0.00  0.00    +0.000 A 
ATOM      8  C   UNL     1       5.672   4.826  15.764  0.00  0.00    +0.000 A 
ATOM      9  C   UNL     1       4.706   3.788  16.105  0.00  0.00    +0.000 A 
ATOM     10  C   UNL     1       4.436   3.328  17.491  0.00  0.00    +0.000 A 
ENDROOT
BRANCH   1  11
ATOM     11  N   UNL     1       2.382   1.762  17.800  0.00  0.00    +0.000 N 
ATOM     12  H   UNL     1       2.337   1.705  16.791  0.00  0.00    +0.000 HD
BRANCH  11  13
ATOM     13  C   UNL     1       1.124   2.505  18.307  0.00  0.00    +0.000 C 
BRANCH  13  17
ATOM     14  C   UNL     1       1.836   6.511  19.932  0.00  0.00    +0.000 A 
ATOM     15  C   UNL     1       1.913   6.231  18.570  0.00  0.00    +0.000 A 
ATOM     16  C   UNL     1       1.672   4.953  18.067  0.00  0.00    +0.000 A 
ATOM     17  C   UNL     1       1.387   3.884  18.916  0.00  0.00    +0.000 A 
ATOM     18  C   UNL     1       1.245   4.177  20.296  0.00  0.00    +0.000 A 
ATOM     19  C   UNL     1       1.473   5.485  20.804  0.00  0.00    +0.000 A 
BRANCH  14  21
ATOM     20  C   UNL     1       1.350   8.540  21.128  0.00  0.00    +0.000 C 
ATOM     21  O   UNL     1       2.163   7.802  20.232  0.00  0.00    +0.000 OA
ENDBRANCH  14  21
ENDBRANCH  13  17
ENDBRANCH  11  13
ENDBRANCH   1  11
BRANCH   7  22
ATOM     22  O   UNL     1       7.091   6.620  16.570  0.00  0.00    +0.000 OA
ATOM     23  C   UNL     1       7.627   7.282  17.710  0.00  0.00    +0.000 C 
ENDBRANCH   7  22
BRANCH   8  24
ATOM     24  O   UNL     1       5.960   4.984  14.421  0.00  0.00    +0.000 OA
ATOM     25  C   UNL     1       6.213   3.834  13.600  0.00  0.00    +0.000 C 
ENDBRANCH   8  24
TORSDOF 6
ENDMDL
MODEL 3
REMARK VINA RESULT:      -7.3      1.459      5.417
REMARK  Name = 
REMARK  9 active torsions:
REMARK  status: ('A' for Active; 'I' for Inactive)
REMARK    1  A    between atoms: C_1  and  O_2
REMARK    2  A    between atoms: O_2  and  C_3
REMARK    3  A    between atoms: C_6  and  C_7
REMARK    4  A    between atoms: C_7  and  N_8
REMARK    5  A    between atoms: N_8  and  C_9
REMARK    6  A    between atoms: C_15  and  O_16
REMARK    7  A    between atoms: O_16  and  C_17
REMARK    8  A    between atoms: C_18  and  O_19
REMARK    9  A    between atoms: O_19  and  C_20
REMARK                            x       y       z     vdW  Elec       q    Type
REMARK                         _______ _______ _______ _____ _____    ______ ____
ROOT
ATOM      1  C   UNL     1       2.590   3.575  18.911  0.00  0.00    +0.000 A 
ATOM      2  N   UNL     1       2.819   2.723  19.931  0.00  0.00    +0.000 NA
ATOM      3  C   UNL     1       2.557   3.120  21.149  0.00  0.00    +0.000 A 
ATOM      4  N   UNL     1       2.017   4.277  21.457  0.00  0.00    +0.000 NA
ATOM      5  C   UNL     1       1.988   5.192  20.509  0.00  0.00    +0.000 A 
ATOM      6  C   UNL     1       1.513   6.383  21.025  0.00  0.00    +0.000 A 
ATOM      7  C   UNL     1       1.642   7.606  20.404  0.00  0.00    +0.000 A 
ATOM      8  C   UNL     1       2.229   7.614  19.135  0.00  0.00    +0.000 A 
ATOM      9  C   UNL     1       2.525   6.334  18.500  0.00  0.00    +0.000 A 
ATOM     10  C   UNL     1       2.395   5.020  19.180  0.00  0.00    +0.000 A 
ENDROOT
BRANCH   1  11
ATOM     11  N   UNL     1       2.606   2.918  17.662  0.00  0.00    +0.000 N 
ATOM     12  H   UNL     1       2.044   2.079  17.684  0.00  0.00    +0.000 HD
BRANCH  11  13
ATOM     13  C   UNL     1       4.029   2.544  17.182  0.00  0.00    +0.000 C 
BRANCH  13  17
ATOM     14  C   UNL     1       6.762   5.895  16.480  0.00  0.00    +0.000 A 
ATOM     15  C   UNL     1       6.692   5.229  17.702  0.00  0.00    +0.000 A 
ATOM     16  C   UNL     1       5.825   4.157  17.907  0.00  0.00    +0.000 A 
ATOM     17  C   UNL     1       4.952   3.731  16.904  0.00  0.00    +0.000 A 
ATOM     18  C   UNL     1       5.066   4.364  15.640  0.00  0.00    +0.000 A 
ATOM     19  C   UNL     1       5.964   5.446  15.429  0.00  0.00    +0.000 A 
BRANCH  14  21
ATOM     20  C   UNL     1       7.705   7.774  17.649  0.00  0.00    +0.000 C 
ATOM     21  O   UNL     1       7.626   6.953  16.497  0.00  0.00    +0.000 OA
ENDBRANCH  14  21
ENDBRANCH  13  17
ENDBRANCH  11  13
ENDBRANCH   1  11
BRANCH   7  22
ATOM     22  O   UNL     1       1.213   8.757  21.018  0.00  0.00    +0.000 OA
ATOM     23  C   UNL     1      -0.123   8.768  21.506  0.00  0.00    +0.000 C 
ENDBRANCH   7  22
BRANCH   8  24
ATOM     24  O   UNL     1       2.606   8.748  18.443  0.00  0.00    +0.000 OA
ATOM     25  C   UNL     1       1.615   9.553  17.787  0.00  0.00    +0.000 C 
ENDBRANCH   8  24
TORSDOF 6
ENDMDL
MODEL 4
REMARK VINA RESULT:      -7.2      3.676      7.240
REMARK  Name = 
REMARK  9 active torsions:
REMARK  status: ('A' for Active; 'I' for Inactive)
REMARK    1  A    between atoms: C_1  and  O_2
REMARK    2  A    between atoms: O_2  and  C_3
REMARK    3  A    between atoms: C_6  and  C_7
REMARK    4  A    between atoms: C_7  and  N_8
REMARK    5  A    between atoms: N_8  and  C_9
REMARK    6  A    between atoms: C_15  and  O_16
REMARK    7  A    between atoms: O_16  and  C_17
REMARK    8  A    between atoms: C_18  and  O_19
REMARK    9  A    between atoms: O_19  and  C_20
REMARK                            x       y       z     vdW  Elec       q    Type
REMARK                         _______ _______ _______ _____ _____    ______ ____
ROOT
ATOM      1  C   UNL     1       6.521   6.652  17.068  0.00  0.00    +0.000 A 
ATOM      2  N   UNL     1       7.469   5.873  16.509  0.00  0.00    +0.000 NA
ATOM      3  C   UNL     1       7.128   4.691  16.067  0.00  0.00    +0.000 A 
ATOM      4  N   UNL     1       5.901   4.223  16.063  0.00  0.00    +0.000 NA
ATOM      5  C   UNL     1       5.012   4.870  16.789  0.00  0.00    +0.000 A 
ATOM      6  C   UNL     1       3.814   4.183  16.783  0.00  0.00    +0.000 A 
ATOM      7  C   UNL     1       2.785   4.406  17.671  0.00  0.00    +0.000 A 
ATOM      8  C   UNL     1       2.952   5.451  18.585  0.00  0.00    +0.000 A 
ATOM      9  C   UNL     1       4.118   6.316  18.444  0.00  0.00    +0.000 A 
ATOM     10  C   UNL     1       5.229   6.063  17.492  0.00  0.00    +0.000 A 
ENDROOT
BRANCH   1  11
ATOM     11  N   UNL     1       6.950   7.992  17.198  0.00  0.00    +0.000 N 
ATOM     12  H   UNL     1       7.158   8.397  16.296  0.00  0.00    +0.000 HD
BRANCH  11  13
ATOM     13  C   UNL     1       8.190   8.155  18.109  0.00  0.00    +0.000 C 
BRANCH  13  17
ATOM     14  C   UNL     1       9.279  12.339  18.815  0.00  0.00    +0.000 A 
ATOM     15  C   UNL     1       8.495  11.942  17.734  0.00  0.00    +0.000 A 
ATOM     16  C   UNL     1       8.148  10.607  17.529  0.00  0.00    +0.000 A 
ATOM     17  C   UNL     1       8.610   9.601  18.378  0.00  0.00    +0.000 A 
ATOM     18  C   UNL     1       9.353  10.009  19.515  0.00  0.00    +0.000 A 
ATOM     19  C   UNL     1       9.691  11.373  19.731  0.00  0.00    +0.000 A 
BRANCH  14  21
ATOM     20  C   UNL     1      10.905  14.108  18.711  0.00  0.00    +0.000 C 
ATOM     21  O   UNL     1       9.559  13.676  18.809  0.00  0.00    +0.000 OA
ENDBRANCH  14  21
ENDBRANCH  13  17
ENDBRANCH  11  13
ENDBRANCH   1  11
BRANCH   7  22
ATOM     22  O   UNL     1       1.654   3.627  17.651  0.00  0.00    +0.000 OA
ATOM     23  C   UNL     1       1.747   2.340  18.251  0.00  0.00    +0.000 C 
ENDBRANCH   7  22
BRANCH   8  24
ATOM     24  O   UNL     1       2.120   5.706  19.659  0.00  0.00    +0.000 OA
ATOM     25  C   UNL     1       2.218   4.909  20.849  0.00  0.00    +0.000 C 
ENDBRANCH   8  24
TORSDOF 6
ENDMDL
MODEL 5
REMARK VINA RESULT:      -7.2      2.404      4.302
REMARK  Name = 
REMARK  9 active torsions:
REMARK  status: ('A' for Active; 'I' for Inactive)
REMARK    1  A    between atoms: C_1  and  O_2
REMARK    2  A    between atoms: O_2  and  C_3
REMARK    3  A    between atoms: C_6  and  C_7
REMARK    4  A    between atoms: C_7  and  N_8
REMARK    5  A    between atoms: N_8  and  C_9
REMARK    6  A    between atoms: C_15  and  O_16
REMARK    7  A    between atoms: O_16  and  C_17
REMARK    8  A    between atoms: C_18  and  O_19
REMARK    9  A    between atoms: O_19  and  C_20
REMARK                            x       y       z     vdW  Elec       q    Type
REMARK                         _______ _______ _______ _____ _____    ______ ____
ROOT
ATOM      1  C   UNL     1       2.647   5.899  18.863  0.00  0.00    +0.000 A 
ATOM      2  N   UNL     1       1.622   5.104  18.497  0.00  0.00    +0.000 NA
ATOM      3  C   UNL     1       1.861   4.108  17.684  0.00  0.00    +0.000 A 
ATOM      4  N   UNL     1       3.054   3.775  17.244  0.00  0.00    +0.000 NA
ATOM      5  C   UNL     1       4.020   4.655  17.415  0.00  0.00    +0.000 A 
ATOM      6  C   UNL     1       5.169   4.214  16.786  0.00  0.00    +0.000 A 
ATOM      7  C   UNL     1       6.256   5.011  16.505  0.00  0.00    +0.000 A 
ATOM      8  C   UNL     1       6.206   6.333  16.957  0.00  0.00    +0.000 A 
ATOM      9  C   UNL     1       5.093   6.732  17.812  0.00  0.00    +0.000 A 
ATOM     10  C   UNL     1       3.919   5.872  18.101  0.00  0.00    +0.000 A 
ENDROOT
BRANCH   1  11
ATOM     11  N   UNL     1       2.315   6.711  19.970  0.00  0.00    +0.000 N 
ATOM     12  H   UNL     1       1.552   6.312  20.498  0.00  0.00    +0.000 HD
BRANCH  11  13
ATOM     13  C   UNL     1       1.938   8.160  19.579  0.00  0.00    +0.000 C 
BRANCH  13  17
ATOM     14  C   UNL     1      -0.545  10.335  22.459  0.00  0.00    +0.000 A 
ATOM     15  C   UNL     1      -0.643  10.537  21.084  0.00  0.00    +0.000 A 
ATOM     16  C   UNL     1       0.147   9.829  20.179  0.00  0.00    +0.000 A 
ATOM     17  C   UNL     1       1.106   8.915  20.617  0.00  0.00    +0.000 A 
ATOM     18  C   UNL     1       1.163   8.660  22.011  0.00  0.00    +0.000 A 
ATOM     19  C   UNL     1       0.345   9.371  22.930  0.00  0.00    +0.000 A 
BRANCH  14  21
ATOM     20  C   UNL     1      -1.282  12.565  22.978  0.00  0.00    +0.000 C 
ATOM     21  O   UNL     1      -1.357  11.165  23.179  0.00  0.00    +0.000 OA
ENDBRANCH  14  21
ENDBRANCH  13  17
ENDBRANCH  11  13
ENDBRANCH   1  11
BRANCH   7  22
ATOM     22  O   UNL     1       7.330   4.518  15.806  0.00  0.00    +0.000 OA
ATOM     23  C   UNL     1       7.268   4.596  14.387  0.00  0.00    +0.000 C 
ENDBRANCH   7  22
BRANCH   8  24
ATOM     24  O   UNL     1       7.108   7.323  16.616  0.00  0.00    +0.000 OA
ATOM     25  C   UNL     1       7.776   8.071  17.643  0.00  0.00    +0.000 C 
ENDBRANCH   8  24
TORSDOF 6
ENDMDL
MODEL 6
REMARK VINA RESULT:      -7.2      2.399      4.183
REMARK  Name = 
REMARK  9 active torsions:
REMARK  status: ('A' for Active; 'I' for Inactive)
REMARK    1  A    between atoms: C_1  and  O_2
REMARK    2  A    between atoms: O_2  and  C_3
REMARK    3  A    between atoms: C_6  and  C_7
REMARK    4  A    between atoms: C_7  and  N_8
REMARK    5  A    between atoms: N_8  and  C_9
REMARK    6  A    between atoms: C_15  and  O_16
REMARK    7  A    between atoms: O_16  and  C_17
REMARK    8  A    between atoms: C_18  and  O_19
REMARK    9  A    between atoms: O_19  and  C_20
REMARK                            x       y       z     vdW  Elec       q    Type
REMARK                         _______ _______ _______ _____ _____    ______ ____
ROOT
ATOM      1  C   UNL     1       2.250   5.457  19.357  0.00  0.00    +0.000 A 
ATOM      2  N   UNL     1       1.263   4.559  19.164  0.00  0.00    +0.000 NA
ATOM      3  C   UNL     1       1.501   3.519  18.409  0.00  0.00    +0.000 A 
ATOM      4  N   UNL     1       2.667   3.241  17.870  0.00  0.00    +0.000 NA
ATOM      5  C   UNL     1       3.568   4.201  17.868  0.00  0.00    +0.000 A 
ATOM      6  C   UNL     1       4.681   3.797  17.156  0.00  0.00    +0.000 A 
ATOM      7  C   UNL     1       5.663   4.647  16.699  0.00  0.00    +0.000 A 
ATOM      8  C   UNL     1       5.550   5.995  17.052  0.00  0.00    +0.000 A 
ATOM      9  C   UNL     1       4.499   6.380  17.989  0.00  0.00    +0.000 A 
ATOM     10  C   UNL     1       3.436   5.461  18.467  0.00  0.00    +0.000 A 
ENDROOT
BRANCH   1  11
ATOM     11  N   UNL     1       1.965   6.332  20.428  0.00  0.00    +0.000 N 
ATOM     12  H   UNL     1       1.074   6.111  20.852  0.00  0.00    +0.000 HD
BRANCH  11  13
ATOM     13  C   UNL     1       1.958   7.824  20.018  0.00  0.00    +0.000 C 
BRANCH  13  17
ATOM     14  C   UNL     1      -0.596  10.384  22.492  0.00  0.00    +0.000 A 
ATOM     15  C   UNL     1       0.304   9.472  23.039  0.00  0.00    +0.000 A 
ATOM     16  C   UNL     1       1.118   8.672  22.238  0.00  0.00    +0.000 A 
ATOM     17  C   UNL     1       1.033   8.719  20.847  0.00  0.00    +0.000 A 
ATOM     18  C   UNL     1       0.165   9.690  20.286  0.00  0.00    +0.000 A 
ATOM     19  C   UNL     1      -0.651  10.517  21.105  0.00  0.00    +0.000 A 
BRANCH  14  21
ATOM     20  C   UNL     1      -2.332  11.960  23.030  0.00  0.00    +0.000 C 
ATOM     21  O   UNL     1      -1.344  11.029  23.436  0.00  0.00    +0.000 OA
ENDBRANCH  14  21
ENDBRANCH  13  17
ENDBRANCH  11  13
ENDBRANCH   1  11
BRANCH   7  22
ATOM     22  O   UNL     1       6.699   4.179  15.929  0.00  0.00    +0.000 OA
ATOM     23  C   UNL     1       6.425   3.944  14.553  0.00  0.00    +0.000 C 
ENDBRANCH   7  22
BRANCH   8  24
ATOM     24  O   UNL     1       6.327   7.017  16.542  0.00  0.00    +0.000 OA
ATOM     25  C   UNL     1       7.412   7.549  17.317  0.00  0.00    +0.000 C 
ENDBRANCH   8  24
TORSDOF 6
ENDMDL
MODEL 7
REMARK VINA RESULT:      -7.2      2.109      3.528
REMARK  Name = 
REMARK  9 active torsions:
REMARK  status: ('A' for Active; 'I' for Inactive)
REMARK    1  A    between atoms: C_1  and  O_2
REMARK    2  A    between atoms: O_2  and  C_3
REMARK    3  A    between atoms: C_6  and  C_7
REMARK    4  A    between atoms: C_7  and  N_8
REMARK    5  A    between atoms: N_8  and  C_9
REMARK    6  A    between atoms: C_15  and  O_16
REMARK    7  A    between atoms: O_16  and  C_17
REMARK    8  A    between atoms: C_18  and  O_19
REMARK    9  A    between atoms: O_19  and  C_20
REMARK                            x       y       z     vdW  Elec       q    Type
REMARK                         _______ _______ _______ _____ _____    ______ ____
ROOT
ATOM      1  C   UNL     1       3.353   5.050  19.102  0.00  0.00    +0.000 A 
ATOM      2  N   UNL     1       2.333   4.259  18.714  0.00  0.00    +0.000 NA
ATOM      3  C   UNL     1       2.504   3.475  17.681  0.00  0.00    +0.000 A 
ATOM      4  N   UNL     1       3.634   3.347  17.023  0.00  0.00    +0.000 NA
ATOM      5  C   UNL     1       4.562   4.254  17.248  0.00  0.00    +0.000 A 
ATOM      6  C   UNL     1       5.627   4.055  16.390  0.00  0.00    +0.000 A 
ATOM      7  C   UNL     1       6.612   4.986  16.143  0.00  0.00    +0.000 A 
ATOM      8  C   UNL     1       6.554   6.178  16.872  0.00  0.00    +0.000 A 
ATOM      9  C   UNL     1       5.561   6.293  17.935  0.00  0.00    +0.000 A 
ATOM     10  C   UNL     1       4.495   5.291  18.188  0.00  0.00    +0.000 A 
ENDROOT
BRANCH   1  11
ATOM     11  N   UNL     1       3.145   5.585  20.392  0.00  0.00    +0.000 N 
ATOM     12  H   UNL     1       3.263   4.877  21.103  0.00  0.00    +0.000 HD
BRANCH  11  13
ATOM     13  C   UNL     1       1.751   6.233  20.571  0.00  0.00    +0.000 C 
BRANCH  13  17
ATOM     14  C   UNL     1       1.337  10.277  18.937  0.00  0.00    +0.000 A 
ATOM     15  C   UNL     1       0.958   9.953  20.238  0.00  0.00    +0.000 A 
ATOM     16  C   UNL     1       1.107   8.663  20.747  0.00  0.00    +0.000 A 
ATOM     17  C   UNL     1       1.602   7.626  19.956  0.00  0.00    +0.000 A 
ATOM     18  C   UNL     1       2.048   7.966  18.653  0.00  0.00    +0.000 A 
ATOM     19  C   UNL     1       1.911   9.286  18.143  0.00  0.00    +0.000 A 
BRANCH  14  21
ATOM     20  C   UNL     1       2.115  12.508  18.486  0.00  0.00    +0.000 C 
ATOM     21  O   UNL     1       1.057  11.572  18.607  0.00  0.00    +0.000 OA
ENDBRANCH  14  21
ENDBRANCH  13  17
ENDBRANCH  11  13
ENDBRANCH   1  11
BRANCH   7  22
ATOM     22  O   UNL     1       7.596   4.743  15.217  0.00  0.00    +0.000 OA
ATOM     23  C   UNL     1       7.224   4.822  13.846  0.00  0.00    +0.000 C 
ENDBRANCH   7  22
BRANCH   8  24
ATOM     24  O   UNL     1       7.336   7.292  16.634  0.00  0.00    +0.000 OA
ATOM     25  C   UNL     1       7.855   8.054  17.735  0.00  0.00    +0.000 C 
ENDBRANCH   8  24
TORSDOF 6
ENDMDL
MODEL 8
REMARK VINA RESULT:      -7.1      1.720      5.511
REMARK  Name = 
REMARK  9 active torsions:
REMARK  status: ('A' for Active; 'I' for Inactive)
REMARK    1  A    between atoms: C_1  and  O_2
REMARK    2  A    between atoms: O_2  and  C_3
REMARK    3  A    between atoms: C_6  and  C_7
REMARK    4  A    between atoms: C_7  and  N_8
REMARK    5  A    between atoms: N_8  and  C_9
REMARK    6  A    between atoms: C_15  and  O_16
REMARK    7  A    between atoms: O_16  and  C_17
REMARK    8  A    between atoms: C_18  and  O_19
REMARK    9  A    between atoms: O_19  and  C_20
REMARK                            x       y       z     vdW  Elec       q    Type
REMARK                         _______ _______ _______ _____ _____    ______ ____
ROOT
ATOM      1  C   UNL     1       2.825   3.934  18.724  0.00  0.00    +0.000 A 
ATOM      2  N   UNL     1       3.072   3.048  19.710  0.00  0.00    +0.000 NA
ATOM      3  C   UNL     1       2.713   3.353  20.930  0.00  0.00    +0.000 A 
ATOM      4  N   UNL     1       2.058   4.443  21.264  0.00  0.00    +0.000 NA
ATOM      5  C   UNL     1       2.001   5.404  20.364  0.00  0.00    +0.000 A 
ATOM      6  C   UNL     1       1.399   6.521  20.910  0.00  0.00    +0.000 A 
ATOM      7  C   UNL     1       1.454   7.782  20.361  0.00  0.00    +0.000 A 
ATOM      8  C   UNL     1       2.105   7.909  19.130  0.00  0.00    +0.000 A 
ATOM      9  C   UNL     1       2.543   6.695  18.449  0.00  0.00    +0.000 A 
ATOM     10  C   UNL     1       2.491   5.340  19.053  0.00  0.00    +0.000 A 
ENDROOT
BRANCH   1  11
ATOM     11  N   UNL     1       2.964   3.350  17.445  0.00  0.00    +0.000 N 
ATOM     12  H   UNL     1       2.458   2.477  17.386  0.00  0.00    +0.000 HD
BRANCH  11  13
ATOM     13  C   UNL     1       4.436   3.093  17.044  0.00  0.00    +0.000 C 
BRANCH  13  17
ATOM     14  C   UNL     1       6.922   6.700  17.091  0.00  0.00    +0.000 A 
ATOM     15  C   UNL     1       5.857   6.537  16.208  0.00  0.00    +0.000 A 
ATOM     16  C   UNL     1       5.068   5.387  16.213  0.00  0.00    +0.000 A 
ATOM     17  C   UNL     1       5.341   4.326  17.077  0.00  0.00    +0.000 A 
ATOM     18  C   UNL     1       6.383   4.515  18.020  0.00  0.00    +0.000 A 
ATOM     19  C   UNL     1       7.175   5.696  18.025  0.00  0.00    +0.000 A 
BRANCH  14  21
ATOM     20  C   UNL     1       8.085   8.596  18.007  0.00  0.00    +0.000 C 
ATOM     21  O   UNL     1       7.608   7.864  16.891  0.00  0.00    +0.000 OA
ENDBRANCH  14  21
ENDBRANCH  13  17
ENDBRANCH  11  13
ENDBRANCH   1  11
BRANCH   7  22
ATOM     22  O   UNL     1       0.895   8.858  21.006  0.00  0.00    +0.000 OA
ATOM     23  C   UNL     1       1.391   9.159  22.305  0.00  0.00    +0.000 C 
ENDBRANCH   7  22
BRANCH   8  24
ATOM     24  O   UNL     1       2.419   9.108  18.518  0.00  0.00    +0.000 OA
ATOM     25  C   UNL     1       1.395   9.869  17.861  0.00  0.00    +0.000 C 
ENDBRANCH   8  24
TORSDOF 6
ENDMDL
MODEL 9
REMARK VINA RESULT:      -7.1      2.084      3.922
REMARK  Name = 
REMARK  9 active torsions:
REMARK  status: ('A' for Active; 'I' for Inactive)
REMARK    1  A    between atoms: C_1  and  O_2
REMARK    2  A    between atoms: O_2  and  C_3
REMARK    3  A    between atoms: C_6  and  C_7
REMARK    4  A    between atoms: C_7  and  N_8
REMARK    5  A    between atoms: N_8  and  C_9
REMARK    6  A    between atoms: C_15  and  O_16
REMARK    7  A    between atoms: O_16  and  C_17
REMARK    8  A    between atoms: C_18  and  O_19
REMARK    9  A    between atoms: O_19  and  C_20
REMARK                            x       y       z     vdW  Elec       q    Type
REMARK                         _______ _______ _______ _____ _____    ______ ____
ROOT
ATOM      1  C   UNL     1       3.035   5.414  19.091  0.00  0.00    +0.000 A 
ATOM      2  N   UNL     1       1.877   4.814  18.750  0.00  0.00    +0.000 NA
ATOM      3  C   UNL     1       1.871   3.999  17.727  0.00  0.00    +0.000 A 
ATOM      4  N   UNL     1       2.938   3.661  17.038  0.00  0.00    +0.000 NA
ATOM      5  C   UNL     1       4.020   4.391  17.217  0.00  0.00    +0.000 A 
ATOM      6  C   UNL     1       5.003   3.994  16.331  0.00  0.00    +0.000 A 
ATOM      7  C   UNL     1       6.129   4.730  16.037  0.00  0.00    +0.000 A 
ATOM      8  C   UNL     1       6.310   5.922  16.744  0.00  0.00    +0.000 A 
ATOM      9  C   UNL     1       5.389   6.227  17.835  0.00  0.00    +0.000 A 
ATOM     10  C   UNL     1       4.170   5.435  18.139  0.00  0.00    +0.000 A 
ENDROOT
BRANCH   1  11
ATOM     11  N   UNL     1       2.969   5.994  20.377  0.00  0.00    +0.000 N 
ATOM     12  H   UNL     1       3.298   5.352  21.084  0.00  0.00    +0.000 HD
BRANCH  11  13
ATOM     13  C   UNL     1       1.547   6.467  20.766  0.00  0.00    +0.000 C 
BRANCH  13  17
ATOM     14  C   UNL     1       0.855  10.775  20.375  0.00  0.00    +0.000 A 
ATOM     15  C   UNL     1       1.201   9.971  19.291  0.00  0.00    +0.000 A 
ATOM     16  C   UNL     1       1.408   8.599  19.429  0.00  0.00    +0.000 A 
ATOM     17  C   UNL     1       1.320   7.977  20.675  0.00  0.00    +0.000 A 
ATOM     18  C   UNL     1       0.904   8.779  21.768  0.00  0.00    +0.000 A 
ATOM     19  C   UNL     1       0.677  10.175  21.620  0.00  0.00    +0.000 A 
BRANCH  14  21
ATOM     20  C   UNL     1       0.245  12.469  18.780  0.00  0.00    +0.000 C 
ATOM     21  O   UNL     1       0.756  12.098  20.048  0.00  0.00    +0.000 OA
ENDBRANCH  14  21
ENDBRANCH  13  17
ENDBRANCH  11  13
ENDBRANCH   1  11
BRANCH   7  22
ATOM     22  O   UNL     1       7.022   4.303  15.085  0.00  0.00    +0.000 OA
ATOM     23  C   UNL     1       6.510   4.070  13.778  0.00  0.00    +0.000 C 
ENDBRANCH   7  22
BRANCH   8  24
ATOM     24  O   UNL     1       7.269   6.875  16.462  0.00  0.00    +0.000 OA
ATOM     25  C   UNL     1       7.658   7.823  17.467  0.00  0.00    +0.000 C 
ENDBRANCH   8  24
TORSDOF 6
ENDMDL
