MODEL 1
REMARK VINA RESULT:      -8.1      0.000      0.000
REMARK  Name = 
REMARK  4 active torsions:
REMARK  status: ('A' for Active; 'I' for Inactive)
REMARK    1  A    between atoms: C_2  and  C_15
REMARK    2  A    between atoms: N_3  and  C_4
REMARK    3  A    between atoms: C_4  and  C_5
REMARK    4  A    between atoms: C_5  and  N_6
REMARK                            x       y       z     vdW  Elec       q    Type
REMARK                         _______ _______ _______ _____ _____    ______ ____
ROOT
ATOM      1  O   UNL     1       5.174   3.117  19.652  0.00  0.00    +0.000 OA
ATOM      2  C   UNL     1       5.142   3.349  18.446  0.00  0.00    +0.000 C 
ATOM      3  N   UNL     1       4.324   2.684  17.557  0.00  0.00    +0.000 N 
ATOM      4  H   UNL     1       4.122   3.151  16.680  0.00  0.00    +0.000 HD
ENDROOT
BRANCH   2   5
ATOM      5  C   UNL     1       5.928   4.469  17.871  0.00  0.00    +0.000 A 
ATOM      6  C   UNL     1       5.620   5.013  16.603  0.00  0.00    +0.000 A 
ATOM      7  C   UNL     1       6.229   6.195  16.170  0.00  0.00    +0.000 A 
ATOM      8  C   UNL     1       7.123   6.795  17.036  0.00  0.00    +0.000 A 
ATOM      9  C   UNL     1       7.484   6.210  18.231  0.00  0.00    +0.000 A 
ATOM     10  C   UNL     1       6.924   5.037  18.672  0.00  0.00    +0.000 A 
ATOM     11  O   UNL     1       8.357   6.981  18.936  0.00  0.00    +0.000 OA
ATOM     12  C   UNL     1       8.191   8.222  18.227  0.00  0.00    +0.000 C 
ATOM     13  O   UNL     1       7.687   8.024  16.885  0.00  0.00    +0.000 OA
ENDBRANCH   2   5
BRANCH   3  14
ATOM     14  C   UNL     1       3.385   1.682  18.041  0.00  0.00    +0.000 C 
BRANCH  14  15
ATOM     15  C   UNL     1       1.972   2.236  18.179  0.00  0.00    +0.000 C 
BRANCH  15  16
ATOM     16  N   UNL     1       1.852   3.180  19.276  0.00  0.00    +0.000 N 
ATOM     17  C   UNL     1       1.584   2.817  20.572  0.00  0.00    +0.000 A 
ATOM     18  C   UNL     1       1.527   3.966  21.326  0.00  0.00    +0.000 A 
ATOM     19  C   UNL     1       1.773   5.067  20.462  0.00  0.00    +0.000 A 
ATOM     20  C   UNL     1       1.851   6.459  20.662  0.00  0.00    +0.000 A 
ATOM     21  C   UNL     1       2.132   7.296  19.577  0.00  0.00    +0.000 A 
ATOM     22  C   UNL     1       2.331   6.763  18.307  0.00  0.00    +0.000 A 
ATOM     23  C   UNL     1       2.253   5.385  18.082  0.00  0.00    +0.000 A 
ATOM     24  C   UNL     1       1.976   4.552  19.178  0.00  0.00    +0.000 A 
ENDBRANCH  15  16
ENDBRANCH  14  15
ENDBRANCH   3  14
TORSDOF 4
ENDMDL
MODEL 2
REMARK VINA RESULT:      -7.6      2.147      3.706
REMARK  Name = 
REMARK  4 active torsions:
REMARK  status: ('A' for Active; 'I' for Inactive)
REMARK    1  A    between atoms: C_2  and  C_15
REMARK    2  A    between atoms: N_3  and  C_4
REMARK    3  A    between atoms: C_4  and  C_5
REMARK    4  A    between atoms: C_5  and  N_6
REMARK                            x       y       z     vdW  Elec       q    Type
REMARK                         _______ _______ _______ _____ _____    ______ ____
ROOT
ATOM      1  O   UNL     1       2.475   7.260  17.821  0.00  0.00    +0.000 OA
ATOM      2  C   UNL     1       3.319   6.753  18.555  0.00  0.00    +0.000 C 
ATOM      3  N   UNL     1       3.112   6.483  19.892  0.00  0.00    +0.000 N 
ATOM      4  H   UNL     1       3.710   5.785  20.318  0.00  0.00    +0.000 HD
ENDROOT
BRANCH   2   5
ATOM      5  C   UNL     1       4.616   6.287  18.006  0.00  0.00    +0.000 A 
ATOM      6  C   UNL     1       5.532   5.554  18.796  0.00  0.00    +0.000 A 
ATOM      7  C   UNL     1       6.646   4.945  18.209  0.00  0.00    +0.000 A 
ATOM      8  C   UNL     1       6.794   5.087  16.844  0.00  0.00    +0.000 A 
ATOM      9  C   UNL     1       5.946   5.877  16.097  0.00  0.00    +0.000 A 
ATOM     10  C   UNL     1       4.859   6.509  16.647  0.00  0.00    +0.000 A 
ATOM     11  O   UNL     1       6.260   5.855  14.772  0.00  0.00    +0.000 OA
ATOM     12  C   UNL     1       7.126   4.707  14.760  0.00  0.00    +0.000 C 
ATOM     13  O   UNL     1       7.699   4.439  16.061  0.00  0.00    +0.000 OA
ENDBRANCH   2   5
BRANCH   3  14
ATOM     14  C   UNL     1       1.813   6.743  20.495  0.00  0.00    +0.000 C 
BRANCH  14  15
ATOM     15  C   UNL     1       0.941   5.494  20.544  0.00  0.00    +0.000 C 
BRANCH  15  16
ATOM     16  N   UNL     1       1.725   4.272  20.558  0.00  0.00    +0.000 N 
ATOM     17  C   UNL     1       2.156   3.652  21.703  0.00  0.00    +0.000 A 
ATOM     18  C   UNL     1       2.879   2.542  21.334  0.00  0.00    +0.000 A 
ATOM     19  C   UNL     1       2.885   2.479  19.914  0.00  0.00    +0.000 A 
ATOM     20  C   UNL     1       3.442   1.579  18.984  0.00  0.00    +0.000 A 
ATOM     21  C   UNL     1       3.250   1.796  17.616  0.00  0.00    +0.000 A 
ATOM     22  C   UNL     1       2.519   2.893  17.170  0.00  0.00    +0.000 A 
ATOM     23  C   UNL     1       1.961   3.804  18.073  0.00  0.00    +0.000 A 
ATOM     24  C   UNL     1       2.154   3.575  19.445  0.00  0.00    +0.000 A 
ENDBRANCH  15  16
ENDBRANCH  14  15
ENDBRANCH   3  14
TORSDOF 4
ENDMDL
MODEL 3
REMARK VINA RESULT:      -7.5      2.804      5.058
REMARK  Name = 
REMARK  4 active torsions:
REMARK  status: ('A' for Active; 'I' for Inactive)
REMARK    1  A    between atoms: C_2  and  C_15
REMARK    2  A    between atoms: N_3  and  C_4
REMARK    3  A    between atoms: C_4  and  C_5
REMARK    4  A    between atoms: C_5  and  N_6
REMARK                            x       y       z     vdW  Elec       q    Type
REMARK                         _______ _______ _______ _____ _____    ______ ____
ROOT
ATOM      1  O   UNL     1       0.578   4.523  20.173  0.00  0.00    +0.000 OA
ATOM      2  C   UNL     1       1.572   5.160  20.514  0.00  0.00    +0.000 C 
ATOM      3  N   UNL     1       2.567   4.655  21.323  0.00  0.00    +0.000 N 
ATOM      4  H   UNL     1       3.473   5.107  21.277  0.00  0.00    +0.000 HD
ENDROOT
BRANCH   2   5
ATOM      5  C   UNL     1       1.822   6.517  19.970  0.00  0.00    +0.000 A 
ATOM      6  C   UNL     1       2.433   6.706  18.709  0.00  0.00    +0.000 A 
ATOM      7  C   UNL     1       2.471   7.975  18.121  0.00  0.00    +0.000 A 
ATOM      8  C   UNL     1       1.882   9.010  18.821  0.00  0.00    +0.000 A 
ATOM      9  C   UNL     1       1.369   8.833  20.089  0.00  0.00    +0.000 A 
ATOM     10  C   UNL     1       1.341   7.606  20.704  0.00  0.00    +0.000 A 
ATOM     11  O   UNL     1       0.818   9.976  20.582  0.00  0.00    +0.000 OA
ATOM     12  C   UNL     1       0.724  10.731  19.361  0.00  0.00    +0.000 C 
ATOM     13  O   UNL     1       1.658  10.269  18.358  0.00  0.00    +0.000 OA
ENDBRANCH   2   5
BRANCH   3  14
ATOM     14  C   UNL     1       2.507   3.272  21.775  0.00  0.00    +0.000 C 
BRANCH  14  15
ATOM     15  C   UNL     1       3.466   2.372  21.004  0.00  0.00    +0.000 C 
BRANCH  15  16
ATOM     16  N   UNL     1       3.379   2.574  19.568  0.00  0.00    +0.000 N 
ATOM     17  C   UNL     1       2.457   1.955  18.763  0.00  0.00    +0.000 A 
ATOM     18  C   UNL     1       2.683   2.368  17.471  0.00  0.00    +0.000 A 
ATOM     19  C   UNL     1       3.778   3.273  17.489  0.00  0.00    +0.000 A 
ATOM     20  C   UNL     1       4.443   4.013  16.491  0.00  0.00    +0.000 A 
ATOM     21  C   UNL     1       5.506   4.849  16.846  0.00  0.00    +0.000 A 
ATOM     22  C   UNL     1       5.911   4.951  18.174  0.00  0.00    +0.000 A 
ATOM     23  C   UNL     1       5.271   4.222  19.182  0.00  0.00    +0.000 A 
ATOM     24  C   UNL     1       4.201   3.389  18.816  0.00  0.00    +0.000 A 
ENDBRANCH  15  16
ENDBRANCH  14  15
ENDBRANCH   3  14
TORSDOF 4
ENDMDL
MODEL 4
REMARK VINA RESULT:      -7.4      2.848      5.652
REMARK  Name = 
REMARK  4 active torsions:
REMARK  status: ('A' for Active; 'I' for Inactive)
REMARK    1  A    between atoms: C_2  and  C_15
REMARK    2  A    between atoms: N_3  and  C_4
REMARK    3  A    between atoms: C_4  and  C_5
REMARK    4  A    between atoms: C_5  and  N_6
REMARK                            x       y       z     vdW  Elec       q    Type
REMARK                         _______ _______ _______ _____ _____    ______ ____
ROOT
ATOM      1  O   UNL     1       2.924   4.960  20.201  0.00  0.00    +0.000 OA
ATOM      2  C   UNL     1       2.661   5.534  19.146  0.00  0.00    +0.000 C 
ATOM      3  N   UNL     1       2.561   4.895  17.929  0.00  0.00    +0.000 N 
ATOM      4  H   UNL     1       2.029   5.365  17.205  0.00  0.00    +0.000 HD
ENDROOT
BRANCH   2   5
ATOM      5  C   UNL     1       2.319   6.977  19.137  0.00  0.00    +0.000 A 
ATOM      6  C   UNL     1       2.424   7.754  17.961  0.00  0.00    +0.000 A 
ATOM      7  C   UNL     1       1.902   9.051  17.917  0.00  0.00    +0.000 A 
ATOM      8  C   UNL     1       1.281   9.518  19.059  0.00  0.00    +0.000 A 
ATOM      9  C   UNL     1       1.262   8.787  20.228  0.00  0.00    +0.000 A 
ATOM     10  C   UNL     1       1.789   7.522  20.311  0.00  0.00    +0.000 A 
ATOM     11  O   UNL     1       0.579   9.424  21.219  0.00  0.00    +0.000 OA
ATOM     12  C   UNL     1      -0.106  10.411  20.427  0.00  0.00    +0.000 C 
ATOM     13  O   UNL     1       0.564  10.668  19.172  0.00  0.00    +0.000 OA
ENDBRANCH   2   5
BRANCH   3  14
ATOM     14  C   UNL     1       2.709   3.449  17.850  0.00  0.00    +0.000 C 
BRANCH  14  15
ATOM     15  C   UNL     1       4.156   3.031  17.614  0.00  0.00    +0.000 C 
BRANCH  15  16
ATOM     16  N   UNL     1       4.947   4.092  17.015  0.00  0.00    +0.000 N 
ATOM     17  C   UNL     1       4.860   4.460  15.697  0.00  0.00    +0.000 A 
ATOM     18  C   UNL     1       5.761   5.476  15.484  0.00  0.00    +0.000 A 
ATOM     19  C   UNL     1       6.418   5.741  16.716  0.00  0.00    +0.000 A 
ATOM     20  C   UNL     1       7.410   6.661  17.110  0.00  0.00    +0.000 A 
ATOM     21  C   UNL     1       7.844   6.678  18.439  0.00  0.00    +0.000 A 
ATOM     22  C   UNL     1       7.307   5.793  19.370  0.00  0.00    +0.000 A 
ATOM     23  C   UNL     1       6.326   4.866  19.002  0.00  0.00    +0.000 A 
ATOM     24  C   UNL     1       5.892   4.860  17.666  0.00  0.00    +0.000 A 
ENDBRANCH  15  16
ENDBRANCH  14  15
ENDBRANCH   3  14
TORSDOF 4
ENDMDL
MODEL 5
REMARK VINA RESULT:      -7.4      1.852      2.541
REMARK  Name = 
REMARK  4 active torsions:
REMARK  status: ('A' for Active; 'I' for Inactive)
REMARK    1  A    between atoms: C_2  and  C_15
REMARK    2  A    between atoms: N_3  and  C_4
REMARK    3  A    between atoms: C_4  and  C_5
REMARK    4  A    between atoms: C_5  and  N_6
REMARK                            x       y       z     vdW  Elec       q    Type
REMARK                         _______ _______ _______ _____ _____    ______ ____
ROOT
ATOM      1  O   UNL     1       5.232   3.523  19.175  0.00  0.00    +0.000 OA
ATOM      2  C   UNL     1       4.999   3.283  17.993  0.00  0.00    +0.000 C 
ATOM      3  N   UNL     1       4.082   2.346  17.565  0.00  0.00    +0.000 N 
ATOM      4  H   UNL     1       3.723   2.451  16.623  0.00  0.00    +0.000 HD
ENDROOT
BRANCH   2   5
ATOM      5  C   UNL     1       5.632   4.089  16.921  0.00  0.00    +0.000 A 
ATOM      6  C   UNL     1       6.522   5.147  17.219  0.00  0.00    +0.000 A 
ATOM      7  C   UNL     1       7.267   5.756  16.204  0.00  0.00    +0.000 A 
ATOM      8  C   UNL     1       7.097   5.271  14.922  0.00  0.00    +0.000 A 
ATOM      9  C   UNL     1       6.162   4.302  14.628  0.00  0.00    +0.000 A 
ATOM     10  C   UNL     1       5.396   3.703  15.597  0.00  0.00    +0.000 A 
ATOM     11  O   UNL     1       6.179   3.957  13.311  0.00  0.00    +0.000 OA
ATOM     12  C   UNL     1       7.442   4.536  12.938  0.00  0.00    +0.000 C 
ATOM     13  O   UNL     1       7.842   5.601  13.832  0.00  0.00    +0.000 OA
ENDBRANCH   2   5
BRANCH   3  14
ATOM     14  C   UNL     1       3.279   1.617  18.536  0.00  0.00    +0.000 C 
BRANCH  14  15
ATOM     15  C   UNL     1       1.895   2.231  18.715  0.00  0.00    +0.000 C 
BRANCH  15  16
ATOM     16  N   UNL     1       1.908   3.369  19.617  0.00  0.00    +0.000 N 
ATOM     17  C   UNL     1       1.779   3.268  20.979  0.00  0.00    +0.000 A 
ATOM     18  C   UNL     1       1.819   4.540  21.501  0.00  0.00    +0.000 A 
ATOM     19  C   UNL     1       1.982   5.448  20.420  0.00  0.00    +0.000 A 
ATOM     20  C   UNL     1       2.097   6.850  20.338  0.00  0.00    +0.000 A 
ATOM     21  C   UNL     1       2.267   7.456  19.089  0.00  0.00    +0.000 A 
ATOM     22  C   UNL     1       2.319   6.685  17.931  0.00  0.00    +0.000 A 
ATOM     23  C   UNL     1       2.201   5.293  17.986  0.00  0.00    +0.000 A 
ATOM     24  C   UNL     1       2.036   4.693  19.245  0.00  0.00    +0.000 A 
ENDBRANCH  15  16
ENDBRANCH  14  15
ENDBRANCH   3  14
TORSDOF 4
ENDMDL
MODEL 6
REMARK VINA RESULT:      -7.3      3.287      5.636
REMARK  Name = 
REMARK  4 active torsions:
REMARK  status: ('A' for Active; 'I' for Inactive)
REMARK    1  A    between atoms: C_2  and  C_15
REMARK    2  A    between atoms: N_3  and  C_4
REMARK    3  A    between atoms: C_4  and  C_5
REMARK    4  A    between atoms: C_5  and  N_6
REMARK                            x       y       z     vdW  Elec       q    Type
REMARK                         _______ _______ _______ _____ _____    ______ ____
ROOT
ATOM      1  O   UNL     1       7.529   8.537  17.090  0.00  0.00    +0.000 OA
ATOM      2  C   UNL     1       8.143   8.595  18.153  0.00  0.00    +0.000 C 
ATOM      3  N   UNL     1       8.415   7.498  18.943  0.00  0.00    +0.000 N 
ATOM      4  H   UNL     1       9.185   7.581  19.597  0.00  0.00    +0.000 HD
ENDROOT
BRANCH   2   5
ATOM      5  C   UNL     1       8.743   9.872  18.610  0.00  0.00    +0.000 A 
ATOM      6  C   UNL     1       9.271  10.015  19.914  0.00  0.00    +0.000 A 
ATOM      7  C   UNL     1      10.017  11.148  20.258  0.00  0.00    +0.000 A 
ATOM      8  C   UNL     1      10.212  12.095  19.271  0.00  0.00    +0.000 A 
ATOM      9  C   UNL     1       9.618  11.988  18.032  0.00  0.00    +0.000 A 
ATOM     10  C   UNL     1       8.860  10.903  17.672  0.00  0.00    +0.000 A 
ATOM     11  O   UNL     1       9.964  13.017  17.209  0.00  0.00    +0.000 OA
ATOM     12  C   UNL     1      11.090  13.530  17.943  0.00  0.00    +0.000 C 
ATOM     13  O   UNL     1      11.041  13.172  19.343  0.00  0.00    +0.000 OA
ENDBRANCH   2   5
BRANCH   3  14
ATOM     14  C   UNL     1       8.020   6.167  18.504  0.00  0.00    +0.000 C 
BRANCH  14  15
ATOM     15  C   UNL     1       6.784   5.661  19.239  0.00  0.00    +0.000 C 
BRANCH  15  16
ATOM     16  N   UNL     1       5.830   5.029  18.345  0.00  0.00    +0.000 N 
ATOM     17  C   UNL     1       6.163   4.481  17.132  0.00  0.00    +0.000 A 
ATOM     18  C   UNL     1       5.012   3.993  16.560  0.00  0.00    +0.000 A 
ATOM     19  C   UNL     1       3.939   4.248  17.457  0.00  0.00    +0.000 A 
ATOM     20  C   UNL     1       2.558   3.974  17.422  0.00  0.00    +0.000 A 
ATOM     21  C   UNL     1       1.752   4.352  18.501  0.00  0.00    +0.000 A 
ATOM     22  C   UNL     1       2.305   4.999  19.602  0.00  0.00    +0.000 A 
ATOM     23  C   UNL     1       3.672   5.288  19.658  0.00  0.00    +0.000 A 
ATOM     24  C   UNL     1       4.474   4.899  18.573  0.00  0.00    +0.000 A 
ENDBRANCH  15  16
ENDBRANCH  14  15
ENDBRANCH   3  14
TORSDOF 4
ENDMDL
MODEL 7
REMARK VINA RESULT:      -7.3      2.973      5.587
REMARK  Name = 
REMARK  4 active torsions:
REMARK  status: ('A' for Active; 'I' for Inactive)
REMARK    1  A    between atoms: C_2  and  C_15
REMARK    2  A    between atoms: N_3  and  C_4
REMARK    3  A    between atoms: C_4  and  C_5
REMARK    4  A    between atoms: C_5  and  N_6
REMARK                            x       y       z     vdW  Elec       q    Type
REMARK                         _______ _______ _______ _____ _____    ______ ____
ROOT
ATOM      1  O   UNL     1       1.024   4.878  20.548  0.00  0.00    +0.000 OA
ATOM      2  C   UNL     1       2.048   5.505  20.285  0.00  0.00    +0.000 C 
ATOM      3  N   UNL     1       3.306   4.942  20.248  0.00  0.00    +0.000 N 
ATOM      4  H   UNL     1       4.014   5.432  19.713  0.00  0.00    +0.000 HD
ENDROOT
BRANCH   2   5
ATOM      5  C   UNL     1       1.976   6.928  19.871  0.00  0.00    +0.000 A 
ATOM      6  C   UNL     1       2.399   7.347  18.589  0.00  0.00    +0.000 A 
ATOM      7  C   UNL     1       2.132   8.645  18.141  0.00  0.00    +0.000 A 
ATOM      8  C   UNL     1       1.437   9.475  18.999  0.00  0.00    +0.000 A 
ATOM      9  C   UNL     1       1.106   9.086  20.280  0.00  0.00    +0.000 A 
ATOM     10  C   UNL     1       1.378   7.829  20.758  0.00  0.00    +0.000 A 
ATOM     11  O   UNL     1       0.405  10.048  20.941  0.00  0.00    +0.000 OA
ATOM     12  C   UNL     1       0.038  10.875  19.822  0.00  0.00    +0.000 C 
ATOM     13  O   UNL     1       0.929  10.701  18.696  0.00  0.00    +0.000 OA
ENDBRANCH   2   5
BRANCH   3  14
ATOM     14  C   UNL     1       3.471   3.513  20.470  0.00  0.00    +0.000 C 
BRANCH  14  15
ATOM     15  C   UNL     1       4.588   2.923  19.616  0.00  0.00    +0.000 C 
BRANCH  15  16
ATOM     16  N   UNL     1       4.820   3.688  18.404  0.00  0.00    +0.000 N 
ATOM     17  C   UNL     1       4.118   3.507  17.239  0.00  0.00    +0.000 A 
ATOM     18  C   UNL     1       4.617   4.387  16.307  0.00  0.00    +0.000 A 
ATOM     19  C   UNL     1       5.656   5.133  16.926  0.00  0.00    +0.000 A 
ATOM     20  C   UNL     1       6.509   6.163  16.482  0.00  0.00    +0.000 A 
ATOM     21  C   UNL     1       7.443   6.713  17.366  0.00  0.00    +0.000 A 
ATOM     22  C   UNL     1       7.537   6.247  18.674  0.00  0.00    +0.000 A 
ATOM     23  C   UNL     1       6.707   5.221  19.136  0.00  0.00    +0.000 A 
ATOM     24  C   UNL     1       5.768   4.679  18.243  0.00  0.00    +0.000 A 
ENDBRANCH  15  16
ENDBRANCH  14  15
ENDBRANCH   3  14
TORSDOF 4
ENDMDL
MODEL 8
REMARK VINA RESULT:      -7.2      4.487      7.164
REMARK  Name = 
REMARK  4 active torsions:
REMARK  status: ('A' for Active; 'I' for Inactive)
REMARK    1  A    between atoms: C_2  and  C_15
REMARK    2  A    between atoms: N_3  and  C_4
REMARK    3  A    between atoms: C_4  and  C_5
REMARK    4  A    between atoms: C_5  and  N_6
REMARK                            x       y       z     vdW  Elec       q    Type
REMARK                         _______ _______ _______ _____ _____    ______ ____
ROOT
ATOM      1  O   UNL     1       1.968  10.221  18.056  0.00  0.00    +0.000 OA
ATOM      2  C   UNL     1       1.642   9.323  18.828  0.00  0.00    +0.000 C 
ATOM      3  N   UNL     1       2.108   8.029  18.741  0.00  0.00    +0.000 N 
ATOM      4  H   UNL     1       2.058   7.464  19.581  0.00  0.00    +0.000 HD
ENDROOT
BRANCH   2   5
ATOM      5  C   UNL     1       0.784   9.613  20.003  0.00  0.00    +0.000 A 
ATOM      6  C   UNL     1       0.768   8.763  21.133  0.00  0.00    +0.000 A 
ATOM      7  C   UNL     1       0.119   9.156  22.308  0.00  0.00    +0.000 A 
ATOM      8  C   UNL     1      -0.484  10.399  22.308  0.00  0.00    +0.000 A 
ATOM      9  C   UNL     1      -0.539  11.181  21.174  0.00  0.00    +0.000 A 
ATOM     10  C   UNL     1       0.064  10.811  19.998  0.00  0.00    +0.000 A 
ATOM     11  O   UNL     1      -1.158  12.373  21.403  0.00  0.00    +0.000 OA
ATOM     12  C   UNL     1      -1.130  12.372  22.842  0.00  0.00    +0.000 C 
ATOM     13  O   UNL     1      -1.011  11.038  23.387  0.00  0.00    +0.000 OA
ENDBRANCH   2   5
BRANCH   3  14
ATOM     14  C   UNL     1       3.091   7.674  17.727  0.00  0.00    +0.000 C 
BRANCH  14  15
ATOM     15  C   UNL     1       4.055   6.598  18.211  0.00  0.00    +0.000 C 
BRANCH  15  16
ATOM     16  N   UNL     1       3.539   5.257  17.998  0.00  0.00    +0.000 N 
ATOM     17  C   UNL     1       3.906   4.453  16.949  0.00  0.00    +0.000 A 
ATOM     18  C   UNL     1       3.210   3.273  17.060  0.00  0.00    +0.000 A 
ATOM     19  C   UNL     1       2.393   3.357  18.220  0.00  0.00    +0.000 A 
ATOM     20  C   UNL     1       1.489   2.471  18.838  0.00  0.00    +0.000 A 
ATOM     21  C   UNL     1       0.837   2.859  20.012  0.00  0.00    +0.000 A 
ATOM     22  C   UNL     1       1.072   4.113  20.569  0.00  0.00    +0.000 A 
ATOM     23  C   UNL     1       1.961   5.013  19.972  0.00  0.00    +0.000 A 
ATOM     24  C   UNL     1       2.615   4.612  18.796  0.00  0.00    +0.000 A 
ENDBRANCH  15  16
ENDBRANCH  14  15
ENDBRANCH   3  14
TORSDOF 4
ENDMDL
MODEL 9
REMARK VINA RESULT:      -7.1      5.453      8.104
REMARK  Name = 
REMARK  4 active torsions:
REMARK  status: ('A' for Active; 'I' for Inactive)
REMARK    1  A    between atoms: C_2  and  C_15
REMARK    2  A    between atoms: N_3  and  C_4
REMARK    3  A    between atoms: C_4  and  C_5
REMARK    4  A    between atoms: C_5  and  N_6
REMARK                            x       y       z     vdW  Elec       q    Type
REMARK                         _______ _______ _______ _____ _____    ______ ____
ROOT
ATOM      1  O   UNL     1       0.953  10.542  19.843  0.00  0.00    +0.000 OA
ATOM      2  C   UNL     1       0.491  10.042  18.821  0.00  0.00    +0.000 C 
ATOM      3  N   UNL     1       1.155   9.105  18.057  0.00  0.00    +0.000 N 
ATOM      4  H   UNL     1       0.590   8.520  17.452  0.00  0.00    +0.000 HD
ENDROOT
BRANCH   2   5
ATOM      5  C   UNL     1      -0.897  10.343  18.393  0.00  0.00    +0.000 A 
ATOM      6  C   UNL     1      -1.681  11.312  19.061  0.00  0.00    +0.000 A 
ATOM      7  C   UNL     1      -2.901  11.732  18.521  0.00  0.00    +0.000 A 
ATOM      8  C   UNL     1      -3.286  11.167  17.321  0.00  0.00    +0.000 A 
ATOM      9  C   UNL     1      -2.558  10.159  16.724  0.00  0.00    +0.000 A 
ATOM     10  C   UNL     1      -1.371   9.706  17.242  0.00  0.00    +0.000 A 
ATOM     11  O   UNL     1      -3.104   9.766  15.540  0.00  0.00    +0.000 OA
ATOM     12  C   UNL     1      -3.995  10.873  15.319  0.00  0.00    +0.000 C 
ATOM     13  O   UNL     1      -4.336  11.556  16.548  0.00  0.00    +0.000 OA
ENDBRANCH   2   5
BRANCH   3  14
ATOM     14  C   UNL     1       2.457   8.609  18.481  0.00  0.00    +0.000 C 
BRANCH  14  15
ATOM     15  C   UNL     1       2.340   7.414  19.419  0.00  0.00    +0.000 C 
BRANCH  15  16
ATOM     16  N   UNL     1       2.682   6.162  18.766  0.00  0.00    +0.000 N 
ATOM     17  C   UNL     1       3.573   6.060  17.728  0.00  0.00    +0.000 A 
ATOM     18  C   UNL     1       3.634   4.737  17.355  0.00  0.00    +0.000 A 
ATOM     19  C   UNL     1       2.752   4.008  18.197  0.00  0.00    +0.000 A 
ATOM     20  C   UNL     1       2.407   2.645  18.294  0.00  0.00    +0.000 A 
ATOM     21  C   UNL     1       1.492   2.233  19.268  0.00  0.00    +0.000 A 
ATOM     22  C   UNL     1       0.918   3.159  20.134  0.00  0.00    +0.000 A 
ATOM     23  C   UNL     1       1.239   4.518  20.054  0.00  0.00    +0.000 A 
ATOM     24  C   UNL     1       2.164   4.921  19.077  0.00  0.00    +0.000 A 
ENDBRANCH  15  16
ENDBRANCH  14  15
ENDBRANCH   3  14
TORSDOF 4
ENDMDL
