MODEL 1
REMARK VINA RESULT:      -7.1      0.000      0.000
REMARK  Name = 
REMARK  12 active torsions:
REMARK  status: ('A' for Active; 'I' for Inactive)
REMARK    1  A    between atoms: C_1  and  C_2
REMARK    2  A    between atoms: C_2  and  N_3
REMARK    3  A    between atoms: N_3  and  C_4
REMARK    4  A    between atoms: N_3  and  C_6
REMARK    5  A    between atoms: C_4  and  C_5
REMARK    6  A    between atoms: C_10  and  C_11
REMARK    7  A    between atoms: C_12  and  C_13
REMARK    8  A    between atoms: C_13  and  C_14
REMARK    9  A    between atoms: C_14  and  O_15
REMARK   10  A    between atoms: O_15  and  C_16
REMARK   11  A    between atoms: N_18  and  C_19
REMARK   12  A    between atoms: C_19  and  C_20
REMARK                            x       y       z     vdW  Elec       q    Type
REMARK                         _______ _______ _______ _____ _____    ______ ____
ROOT
ATOM      1  C   UNL     1      -0.793  11.506  21.019  0.00  0.00    +0.000 A 
ATOM      2  C   UNL     1      -0.246  11.920  19.795  0.00  0.00    +0.000 A 
ATOM      3  C   UNL     1       0.605  11.097  19.032  0.00  0.00    +0.000 A 
ATOM      4  C   UNL     1       0.945   9.810  19.455  0.00  0.00    +0.000 A 
ATOM      5  C   UNL     1       1.767   8.852  18.688  0.00  0.00    +0.000 A 
ATOM      6  C   UNL     1       2.313   9.229  17.332  0.00  0.00    +0.000 C 
ATOM      7  C   UNL     1       2.010   7.630  19.218  0.00  0.00    +0.000 A 
ATOM      8  C   UNL     1       1.503   7.242  20.561  0.00  0.00    +0.000 A 
ATOM      9  O   UNL     1       1.784   6.160  21.065  0.00  0.00    +0.000 OA
ATOM     10  O   UNL     1       0.705   8.152  21.224  0.00  0.00    +0.000 OA
ATOM     11  C   UNL     1       0.425   9.417  20.684  0.00  0.00    +0.000 A 
ATOM     12  C   UNL     1      -0.415  10.234  21.457  0.00  0.00    +0.000 A 
ENDROOT
BRANCH   1  13
ATOM     13  N   UNL     1      -1.699  12.287  21.752  0.00  0.00    +0.000 N 
BRANCH  13  15
ATOM     14  C   UNL     1      -2.055  13.813  23.664  0.00  0.00    +0.000 C 
ATOM     15  C   UNL     1      -1.392  12.531  23.169  0.00  0.00    +0.000 C 
ENDBRANCH  13  15
BRANCH  13  16
ATOM     16  C   UNL     1      -2.583  13.189  20.996  0.00  0.00    +0.000 C 
ATOM     17  C   UNL     1      -4.017  12.719  20.820  0.00  0.00    +0.000 C 
ENDBRANCH  13  16
ENDBRANCH   1  13
BRANCH   7  18
ATOM     18  C   UNL     1       2.769   6.529  18.499  0.00  0.00    +0.000 C 
BRANCH  18  19
ATOM     19  C   UNL     1       4.293   6.662  18.640  0.00  0.00    +0.000 C 
BRANCH  19  20
ATOM     20  O   UNL     1       5.026   5.573  18.038  0.00  0.00    +0.000 OA
BRANCH  20  21
ATOM     21  C   UNL     1       5.617   4.698  18.892  0.00  0.00    +0.000 C 
ATOM     22  O   UNL     1       6.368   4.997  19.811  0.00  0.00    +0.000 OA
ATOM     23  N   UNL     1       5.340   3.396  18.602  0.00  0.00    +0.000 N 
ATOM     24  H   UNL     1       5.922   2.746  19.109  0.00  0.00    +0.000 HD
BRANCH  23  25
ATOM     25  C   UNL     1       4.019   2.934  18.233  0.00  0.00    +0.000 C 
BRANCH  25  26
ATOM     26  C   UNL     1       3.077   2.903  19.414  0.00  0.00    +0.000 A 
ATOM     27  C   UNL     1       1.691   3.067  19.303  0.00  0.00    +0.000 A 
ATOM     28  C   UNL     1       0.881   2.999  20.437  0.00  0.00    +0.000 A 
ATOM     29  C   UNL     1       1.482   2.742  21.657  0.00  0.00    +0.000 A 
ATOM     30  N   UNL     1       2.808   2.555  21.808  0.00  0.00    +0.000 NA
ATOM     31  C   UNL     1       3.572   2.633  20.692  0.00  0.00    +0.000 A 
ENDBRANCH  25  26
ENDBRANCH  23  25
ENDBRANCH  20  21
ENDBRANCH  19  20
ENDBRANCH  18  19
ENDBRANCH   7  18
TORSDOF 9
ENDMDL
MODEL 2
REMARK VINA RESULT:      -7.1      2.999      9.343
REMARK  Name = 
REMARK  12 active torsions:
REMARK  status: ('A' for Active; 'I' for Inactive)
REMARK    1  A    between atoms: C_1  and  C_2
REMARK    2  A    between atoms: C_2  and  N_3
REMARK    3  A    between atoms: N_3  and  C_4
REMARK    4  A    between atoms: N_3  and  C_6
REMARK    5  A    between atoms: C_4  and  C_5
REMARK    6  A    between atoms: C_10  and  C_11
REMARK    7  A    between atoms: C_12  and  C_13
REMARK    8  A    between atoms: C_13  and  C_14
REMARK    9  A    between atoms: C_14  and  O_15
REMARK   10  A    between atoms: O_15  and  C_16
REMARK   11  A    between atoms: N_18  and  C_19
REMARK   12  A    between atoms: C_19  and  C_20
REMARK                            x       y       z     vdW  Elec       q    Type
REMARK                         _______ _______ _______ _____ _____    ______ ____
ROOT
ATOM      1  C   UNL     1       4.815   5.385  17.647  0.00  0.00    +0.000 A 
ATOM      2  C   UNL     1       4.313   4.973  18.890  0.00  0.00    +0.000 A 
ATOM      3  C   UNL     1       3.379   5.736  19.619  0.00  0.00    +0.000 A 
ATOM      4  C   UNL     1       2.894   6.951  19.131  0.00  0.00    +0.000 A 
ATOM      5  C   UNL     1       1.862   7.780  19.787  0.00  0.00    +0.000 A 
ATOM      6  C   UNL     1       1.240   7.335  21.088  0.00  0.00    +0.000 C 
ATOM      7  C   UNL     1       1.478   8.935  19.194  0.00  0.00    +0.000 A 
ATOM      8  C   UNL     1       2.091   9.406  17.924  0.00  0.00    +0.000 A 
ATOM      9  O   UNL     1       1.788  10.485  17.427  0.00  0.00    +0.000 OA
ATOM     10  O   UNL     1       3.020   8.581  17.323  0.00  0.00    +0.000 OA
ATOM     11  C   UNL     1       3.418   7.370  17.912  0.00  0.00    +0.000 A 
ATOM     12  C   UNL     1       4.357   6.622  17.184  0.00  0.00    +0.000 A 
ENDROOT
BRANCH   1  13
ATOM     13  N   UNL     1       5.688   4.601  16.879  0.00  0.00    +0.000 N 
BRANCH  13  15
ATOM     14  C   UNL     1       5.942   4.013  14.491  0.00  0.00    +0.000 C 
ATOM     15  C   UNL     1       5.110   3.843  15.758  0.00  0.00    +0.000 C 
ENDBRANCH  13  15
BRANCH  13  16
ATOM     16  C   UNL     1       7.117   4.951  16.907  0.00  0.00    +0.000 C 
ATOM     17  C   UNL     1       7.761   4.999  18.283  0.00  0.00    +0.000 C 
ENDBRANCH  13  16
ENDBRANCH   1  13
BRANCH   7  18
ATOM     18  C   UNL     1       0.373   9.833  19.721  0.00  0.00    +0.000 C 
BRANCH  18  19
ATOM     19  C   UNL     1       0.887  10.907  20.690  0.00  0.00    +0.000 C 
BRANCH  19  20
ATOM     20  O   UNL     1       0.034  12.070  20.770  0.00  0.00    +0.000 OA
BRANCH  20  21
ATOM     21  C   UNL     1      -0.099  12.799  19.632  0.00  0.00    +0.000 C 
ATOM     22  O   UNL     1       0.821  13.224  18.947  0.00  0.00    +0.000 OA
ATOM     23  N   UNL     1      -1.397  13.082  19.326  0.00  0.00    +0.000 N 
ATOM     24  H   UNL     1      -1.488  13.775  18.598  0.00  0.00    +0.000 HD
BRANCH  23  25
ATOM     25  C   UNL     1      -2.462  12.109  19.435  0.00  0.00    +0.000 C 
BRANCH  25  26
ATOM     26  C   UNL     1      -2.928  11.620  18.083  0.00  0.00    +0.000 A 
ATOM     27  C   UNL     1      -2.071  11.075  17.120  0.00  0.00    +0.000 A 
ATOM     28  C   UNL     1      -2.579  10.620  15.903  0.00  0.00    +0.000 A 
ATOM     29  C   UNL     1      -3.944  10.701  15.691  0.00  0.00    +0.000 A 
ATOM     30  N   UNL     1      -4.809  11.197  16.599  0.00  0.00    +0.000 NA
ATOM     31  C   UNL     1      -4.289  11.638  17.769  0.00  0.00    +0.000 A 
ENDBRANCH  25  26
ENDBRANCH  23  25
ENDBRANCH  20  21
ENDBRANCH  19  20
ENDBRANCH  18  19
ENDBRANCH   7  18
TORSDOF 9
ENDMDL
MODEL 3
REMARK VINA RESULT:      -7.0      1.587      2.414
REMARK  Name = 
REMARK  12 active torsions:
REMARK  status: ('A' for Active; 'I' for Inactive)
REMARK    1  A    between atoms: C_1  and  C_2
REMARK    2  A    between atoms: C_2  and  N_3
REMARK    3  A    between atoms: N_3  and  C_4
REMARK    4  A    between atoms: N_3  and  C_6
REMARK    5  A    between atoms: C_4  and  C_5
REMARK    6  A    between atoms: C_10  and  C_11
REMARK    7  A    between atoms: C_12  and  C_13
REMARK    8  A    between atoms: C_13  and  C_14
REMARK    9  A    between atoms: C_14  and  O_15
REMARK   10  A    between atoms: O_15  and  C_16
REMARK   11  A    between atoms: N_18  and  C_19
REMARK   12  A    between atoms: C_19  and  C_20
REMARK                            x       y       z     vdW  Elec       q    Type
REMARK                         _______ _______ _______ _____ _____    ______ ____
ROOT
ATOM      1  C   UNL     1      -0.373  10.808  21.784  0.00  0.00    +0.000 A 
ATOM      2  C   UNL     1      -0.305   9.584  22.468  0.00  0.00    +0.000 A 
ATOM      3  C   UNL     1       0.339   8.453  21.930  0.00  0.00    +0.000 A 
ATOM      4  C   UNL     1       0.957   8.494  20.679  0.00  0.00    +0.000 A 
ATOM      5  C   UNL     1       1.718   7.384  20.069  0.00  0.00    +0.000 A 
ATOM      6  C   UNL     1       1.880   6.076  20.805  0.00  0.00    +0.000 C 
ATOM      7  C   UNL     1       2.275   7.567  18.849  0.00  0.00    +0.000 A 
ATOM      8  C   UNL     1       2.111   8.837  18.095  0.00  0.00    +0.000 A 
ATOM      9  O   UNL     1       2.560   8.973  16.961  0.00  0.00    +0.000 OA
ATOM     10  O   UNL     1       1.430   9.863  18.719  0.00  0.00    +0.000 OA
ATOM     11  C   UNL     1       0.861   9.700  19.992  0.00  0.00    +0.000 A 
ATOM     12  C   UNL     1       0.211  10.829  20.514  0.00  0.00    +0.000 A 
ENDROOT
BRANCH   1  13
ATOM     13  N   UNL     1      -0.947  11.961  22.339  0.00  0.00    +0.000 N 
BRANCH  13  15
ATOM     14  C   UNL     1       0.033  14.227  22.210  0.00  0.00    +0.000 C 
ATOM     15  C   UNL     1      -0.879  13.199  21.548  0.00  0.00    +0.000 C 
ENDBRANCH  13  15
BRANCH  13  16
ATOM     16  C   UNL     1      -1.970  11.775  23.381  0.00  0.00    +0.000 C 
ATOM     17  C   UNL     1      -3.186  12.681  23.285  0.00  0.00    +0.000 C 
ENDBRANCH  13  16
ENDBRANCH   1  13
BRANCH   7  18
ATOM     18  C   UNL     1       3.147   6.538  18.151  0.00  0.00    +0.000 C 
BRANCH  18  19
ATOM     19  C   UNL     1       4.646   6.750  18.412  0.00  0.00    +0.000 C 
BRANCH  19  20
ATOM     20  O   UNL     1       5.499   5.962  17.553  0.00  0.00    +0.000 OA
BRANCH  20  21
ATOM     21  C   UNL     1       6.080   4.871  18.115  0.00  0.00    +0.000 C 
ATOM     22  O   UNL     1       6.821   4.881  19.088  0.00  0.00    +0.000 OA
ATOM     23  N   UNL     1       5.804   3.715  17.449  0.00  0.00    +0.000 N 
ATOM     24  H   UNL     1       6.380   2.942  17.746  0.00  0.00    +0.000 HD
BRANCH  23  25
ATOM     25  C   UNL     1       4.487   3.390  16.947  0.00  0.00    +0.000 C 
BRANCH  25  26
ATOM     26  C   UNL     1       3.530   3.020  18.057  0.00  0.00    +0.000 A 
ATOM     27  C   UNL     1       3.919   2.852  19.391  0.00  0.00    +0.000 A 
ATOM     28  C   UNL     1       2.972   2.535  20.365  0.00  0.00    +0.000 A 
ATOM     29  C   UNL     1       1.648   2.421  19.980  0.00  0.00    +0.000 A 
ATOM     30  N   UNL     1       1.225   2.597  18.712  0.00  0.00    +0.000 NA
ATOM     31  C   UNL     1       2.165   2.896  17.785  0.00  0.00    +0.000 A 
ENDBRANCH  25  26
ENDBRANCH  23  25
ENDBRANCH  20  21
ENDBRANCH  19  20
ENDBRANCH  18  19
ENDBRANCH   7  18
TORSDOF 9
ENDMDL
MODEL 4
REMARK VINA RESULT:      -6.9      2.722      9.453
REMARK  Name = 
REMARK  12 active torsions:
REMARK  status: ('A' for Active; 'I' for Inactive)
REMARK    1  A    between atoms: C_1  and  C_2
REMARK    2  A    between atoms: C_2  and  N_3
REMARK    3  A    between atoms: N_3  and  C_4
REMARK    4  A    between atoms: N_3  and  C_6
REMARK    5  A    between atoms: C_4  and  C_5
REMARK    6  A    between atoms: C_10  and  C_11
REMARK    7  A    between atoms: C_12  and  C_13
REMARK    8  A    between atoms: C_13  and  C_14
REMARK    9  A    between atoms: C_14  and  O_15
REMARK   10  A    between atoms: O_15  and  C_16
REMARK   11  A    between atoms: N_18  and  C_19
REMARK   12  A    between atoms: C_19  and  C_20
REMARK                            x       y       z     vdW  Elec       q    Type
REMARK                         _______ _______ _______ _____ _____    ______ ____
ROOT
ATOM      1  C   UNL     1       2.499   7.146  19.016  0.00  0.00    +0.000 A 
ATOM      2  C   UNL     1       2.063   8.071  18.054  0.00  0.00    +0.000 A 
ATOM      3  C   UNL     1       1.305   9.210  18.391  0.00  0.00    +0.000 A 
ATOM      4  C   UNL     1       0.951   9.483  19.713  0.00  0.00    +0.000 A 
ATOM      5  C   UNL     1       0.224  10.686  20.168  0.00  0.00    +0.000 A 
ATOM      6  C   UNL     1      -0.196  11.744  19.176  0.00  0.00    +0.000 C 
ATOM      7  C   UNL     1      -0.045  10.827  21.487  0.00  0.00    +0.000 A 
ATOM      8  C   UNL     1       0.338   9.790  22.481  0.00  0.00    +0.000 A 
ATOM      9  O   UNL     1       0.032   9.890  23.664  0.00  0.00    +0.000 OA
ATOM     10  O   UNL     1       1.052   8.702  22.020  0.00  0.00    +0.000 OA
ATOM     11  C   UNL     1       1.358   8.547  20.658  0.00  0.00    +0.000 A 
ATOM     12  C   UNL     1       2.105   7.404  20.331  0.00  0.00    +0.000 A 
ENDROOT
BRANCH   1  13
ATOM     13  N   UNL     1       3.315   6.049  18.704  0.00  0.00    +0.000 N 
BRANCH  13  15
ATOM     14  C   UNL     1       4.735   5.814  16.693  0.00  0.00    +0.000 C 
ATOM     15  C   UNL     1       4.638   6.332  18.124  0.00  0.00    +0.000 C 
ENDBRANCH  13  15
BRANCH  13  16
ATOM     16  C   UNL     1       3.042   4.780  19.398  0.00  0.00    +0.000 C 
ATOM     17  C   UNL     1       2.396   3.691  18.558  0.00  0.00    +0.000 C 
ENDBRANCH  13  16
ENDBRANCH   1  13
BRANCH   7  18
ATOM     18  C   UNL     1      -0.710  12.051  22.092  0.00  0.00    +0.000 C 
BRANCH  18  19
ATOM     19  C   UNL     1      -2.236  11.913  22.194  0.00  0.00    +0.000 C 
BRANCH  19  20
ATOM     20  O   UNL     1      -2.866  12.986  22.927  0.00  0.00    +0.000 OA
BRANCH  20  21
ATOM     21  C   UNL     1      -3.941  12.649  23.685  0.00  0.00    +0.000 C 
ATOM     22  O   UNL     1      -3.944  12.527  24.903  0.00  0.00    +0.000 OA
ATOM     23  N   UNL     1      -5.057  12.391  22.947  0.00  0.00    +0.000 N 
ATOM     24  H   UNL     1      -5.795  11.961  23.485  0.00  0.00    +0.000 HD
BRANCH  23  25
ATOM     25  C   UNL     1      -5.462  13.204  21.821  0.00  0.00    +0.000 C 
BRANCH  25  26
ATOM     26  C   UNL     1      -5.660  12.383  20.567  0.00  0.00    +0.000 A 
ATOM     27  C   UNL     1      -6.759  11.542  20.359  0.00  0.00    +0.000 A 
ATOM     28  C   UNL     1      -6.888  10.835  19.164  0.00  0.00    +0.000 A 
ATOM     29  C   UNL     1      -5.919  11.010  18.191  0.00  0.00    +0.000 A 
ATOM     30  N   UNL     1      -4.856  11.826  18.339  0.00  0.00    +0.000 NA
ATOM     31  C   UNL     1      -4.752  12.495  19.512  0.00  0.00    +0.000 A 
ENDBRANCH  25  26
ENDBRANCH  23  25
ENDBRANCH  20  21
ENDBRANCH  19  20
ENDBRANCH  18  19
ENDBRANCH   7  18
TORSDOF 9
ENDMDL
MODEL 5
REMARK VINA RESULT:      -6.9      3.130      5.092
REMARK  Name = 
REMARK  12 active torsions:
REMARK  status: ('A' for Active; 'I' for Inactive)
REMARK    1  A    between atoms: C_1  and  C_2
REMARK    2  A    between atoms: C_2  and  N_3
REMARK    3  A    between atoms: N_3  and  C_4
REMARK    4  A    between atoms: N_3  and  C_6
REMARK    5  A    between atoms: C_4  and  C_5
REMARK    6  A    between atoms: C_10  and  C_11
REMARK    7  A    between atoms: C_12  and  C_13
REMARK    8  A    between atoms: C_13  and  C_14
REMARK    9  A    between atoms: C_14  and  O_15
REMARK   10  A    between atoms: O_15  and  C_16
REMARK   11  A    between atoms: N_18  and  C_19
REMARK   12  A    between atoms: C_19  and  C_20
REMARK                            x       y       z     vdW  Elec       q    Type
REMARK                         _______ _______ _______ _____ _____    ______ ____
ROOT
ATOM      1  C   UNL     1       0.393  10.101  20.315  0.00  0.00    +0.000 A 
ATOM      2  C   UNL     1       0.121   9.070  21.227  0.00  0.00    +0.000 A 
ATOM      3  C   UNL     1       0.706   7.792  21.118  0.00  0.00    +0.000 A 
ATOM      4  C   UNL     1       1.600   7.487  20.090  0.00  0.00    +0.000 A 
ATOM      5  C   UNL     1       2.316   6.203  19.940  0.00  0.00    +0.000 A 
ATOM      6  C   UNL     1       2.111   5.093  20.942  0.00  0.00    +0.000 C 
ATOM      7  C   UNL     1       3.165   6.048  18.897  0.00  0.00    +0.000 A 
ATOM      8  C   UNL     1       3.368   7.117  17.884  0.00  0.00    +0.000 A 
ATOM      9  O   UNL     1       4.086   6.946  16.905  0.00  0.00    +0.000 OA
ATOM     10  O   UNL     1       2.712   8.315  18.086  0.00  0.00    +0.000 OA
ATOM     11  C   UNL     1       1.842   8.503  19.172  0.00  0.00    +0.000 A 
ATOM     12  C   UNL     1       1.256   9.775  19.266  0.00  0.00    +0.000 A 
ENDROOT
BRANCH   1  13
ATOM     13  N   UNL     1      -0.124  11.397  20.454  0.00  0.00    +0.000 N 
BRANCH  13  15
ATOM     14  C   UNL     1      -1.882  11.166  18.731  0.00  0.00    +0.000 C 
ATOM     15  C   UNL     1      -0.734  12.015  19.267  0.00  0.00    +0.000 C 
ENDBRANCH  13  15
BRANCH  13  16
ATOM     16  C   UNL     1      -0.473  11.847  21.812  0.00  0.00    +0.000 C 
ATOM     17  C   UNL     1      -0.913  13.296  21.939  0.00  0.00    +0.000 C 
ENDBRANCH  13  16
ENDBRANCH   1  13
BRANCH   7  18
ATOM     18  C   UNL     1       4.021   4.813  18.676  0.00  0.00    +0.000 C 
BRANCH  18  19
ATOM     19  C   UNL     1       5.338   4.849  19.466  0.00  0.00    +0.000 C 
BRANCH  19  20
ATOM     20  O   UNL     1       6.480   4.401  18.704  0.00  0.00    +0.000 OA
BRANCH  20  21
ATOM     21  C   UNL     1       7.085   5.331  17.922  0.00  0.00    +0.000 C 
ATOM     22  O   UNL     1       7.948   6.117  18.287  0.00  0.00    +0.000 OA
ATOM     23  N   UNL     1       6.596   5.361  16.650  0.00  0.00    +0.000 N 
ATOM     24  H   UNL     1       6.904   6.167  16.127  0.00  0.00    +0.000 HD
BRANCH  23  25
ATOM     25  C   UNL     1       6.306   4.165  15.889  0.00  0.00    +0.000 C 
BRANCH  25  26
ATOM     26  C   UNL     1       6.646   4.324  14.425  0.00  0.00    +0.000 A 
ATOM     27  C   UNL     1       7.579   5.250  13.944  0.00  0.00    +0.000 A 
ATOM     28  C   UNL     1       7.859   5.321  12.579  0.00  0.00    +0.000 A 
ATOM     29  C   UNL     1       7.212   4.440  11.729  0.00  0.00    +0.000 A 
ATOM     30  N   UNL     1       6.324   3.518  12.152  0.00  0.00    +0.000 NA
ATOM     31  C   UNL     1       6.065   3.475  13.480  0.00  0.00    +0.000 A 
ENDBRANCH  25  26
ENDBRANCH  23  25
ENDBRANCH  20  21
ENDBRANCH  19  20
ENDBRANCH  18  19
ENDBRANCH   7  18
TORSDOF 9
ENDMDL
MODEL 6
REMARK VINA RESULT:      -6.9      1.468      2.226
REMARK  Name = 
REMARK  12 active torsions:
REMARK  status: ('A' for Active; 'I' for Inactive)
REMARK    1  A    between atoms: C_1  and  C_2
REMARK    2  A    between atoms: C_2  and  N_3
REMARK    3  A    between atoms: N_3  and  C_4
REMARK    4  A    between atoms: N_3  and  C_6
REMARK    5  A    between atoms: C_4  and  C_5
REMARK    6  A    between atoms: C_10  and  C_11
REMARK    7  A    between atoms: C_12  and  C_13
REMARK    8  A    between atoms: C_13  and  C_14
REMARK    9  A    between atoms: C_14  and  O_15
REMARK   10  A    between atoms: O_15  and  C_16
REMARK   11  A    between atoms: N_18  and  C_19
REMARK   12  A    between atoms: C_19  and  C_20
REMARK                            x       y       z     vdW  Elec       q    Type
REMARK                         _______ _______ _______ _____ _____    ______ ____
ROOT
ATOM      1  C   UNL     1      -0.674  10.978  21.760  0.00  0.00    +0.000 A 
ATOM      2  C   UNL     1      -0.477   9.812  22.516  0.00  0.00    +0.000 A 
ATOM      3  C   UNL     1       0.287   8.726  22.045  0.00  0.00    +0.000 A 
ATOM      4  C   UNL     1       0.900   8.758  20.791  0.00  0.00    +0.000 A 
ATOM      5  C   UNL     1       1.778   7.702  20.246  0.00  0.00    +0.000 A 
ATOM      6  C   UNL     1       2.078   6.466  21.058  0.00  0.00    +0.000 C 
ATOM      7  C   UNL     1       2.315   7.870  19.015  0.00  0.00    +0.000 A 
ATOM      8  C   UNL     1       2.018   9.068  18.187  0.00  0.00    +0.000 A 
ATOM      9  O   UNL     1       2.453   9.183  17.046  0.00  0.00    +0.000 OA
ATOM     10  O   UNL     1       1.228  10.050  18.750  0.00  0.00    +0.000 OA
ATOM     11  C   UNL     1       0.676   9.903  20.033  0.00  0.00    +0.000 A 
ATOM     12  C   UNL     1      -0.092  10.985  20.489  0.00  0.00    +0.000 A 
ENDROOT
BRANCH   1  13
ATOM     13  N   UNL     1      -1.370  12.094  22.247  0.00  0.00    +0.000 N 
BRANCH  13  15
ATOM     14  C   UNL     1      -0.251  14.277  21.947  0.00  0.00    +0.000 C 
ATOM     15  C   UNL     1      -1.328  13.324  21.441  0.00  0.00    +0.000 C 
ENDBRANCH  13  15
BRANCH  13  16
ATOM     16  C   UNL     1      -2.457  11.848  23.209  0.00  0.00    +0.000 C 
ATOM     17  C   UNL     1      -3.143  13.086  23.764  0.00  0.00    +0.000 C 
ENDBRANCH  13  16
ENDBRANCH   1  13
BRANCH   7  18
ATOM     18  C   UNL     1       3.295   6.902  18.377  0.00  0.00    +0.000 C 
BRANCH  18  19
ATOM     19  C   UNL     1       2.616   5.634  17.836  0.00  0.00    +0.000 C 
BRANCH  19  20
ATOM     20  O   UNL     1       3.503   4.782  17.080  0.00  0.00    +0.000 OA
BRANCH  20  21
ATOM     21  C   UNL     1       4.543   4.237  17.762  0.00  0.00    +0.000 C 
ATOM     22  O   UNL     1       5.455   4.861  18.287  0.00  0.00    +0.000 OA
ATOM     23  N   UNL     1       4.523   2.874  17.771  0.00  0.00    +0.000 N 
ATOM     24  H   UNL     1       5.384   2.469  18.108  0.00  0.00    +0.000 HD
BRANCH  23  25
ATOM     25  C   UNL     1       3.316   2.106  17.984  0.00  0.00    +0.000 C 
BRANCH  25  26
ATOM     26  C   UNL     1       2.690   2.389  19.331  0.00  0.00    +0.000 A 
ATOM     27  C   UNL     1       1.333   2.682  19.507  0.00  0.00    +0.000 A 
ATOM     28  C   UNL     1       0.822   2.907  20.786  0.00  0.00    +0.000 A 
ATOM     29  C   UNL     1       1.685   2.807  21.863  0.00  0.00    +0.000 A 
ATOM     30  N   UNL     1       2.993   2.505  21.742  0.00  0.00    +0.000 NA
ATOM     31  C   UNL     1       3.464   2.298  20.490  0.00  0.00    +0.000 A 
ENDBRANCH  25  26
ENDBRANCH  23  25
ENDBRANCH  20  21
ENDBRANCH  19  20
ENDBRANCH  18  19
ENDBRANCH   7  18
TORSDOF 9
ENDMDL
MODEL 7
REMARK VINA RESULT:      -6.8      1.618      2.447
REMARK  Name = 
REMARK  12 active torsions:
REMARK  status: ('A' for Active; 'I' for Inactive)
REMARK    1  A    between atoms: C_1  and  C_2
REMARK    2  A    between atoms: C_2  and  N_3
REMARK    3  A    between atoms: N_3  and  C_4
REMARK    4  A    between atoms: N_3  and  C_6
REMARK    5  A    between atoms: C_4  and  C_5
REMARK    6  A    between atoms: C_10  and  C_11
REMARK    7  A    between atoms: C_12  and  C_13
REMARK    8  A    between atoms: C_13  and  C_14
REMARK    9  A    between atoms: C_14  and  O_15
REMARK   10  A    between atoms: O_15  and  C_16
REMARK   11  A    between atoms: N_18  and  C_19
REMARK   12  A    between atoms: C_19  and  C_20
REMARK                            x       y       z     vdW  Elec       q    Type
REMARK                         _______ _______ _______ _____ _____    ______ ____
ROOT
ATOM      1  C   UNL     1      -0.511  10.774  21.502  0.00  0.00    +0.000 A 
ATOM      2  C   UNL     1      -0.376   9.599  22.258  0.00  0.00    +0.000 A 
ATOM      3  C   UNL     1       0.347   8.482  21.795  0.00  0.00    +0.000 A 
ATOM      4  C   UNL     1       0.979   8.489  20.549  0.00  0.00    +0.000 A 
ATOM      5  C   UNL     1       1.817   7.396  20.014  0.00  0.00    +0.000 A 
ATOM      6  C   UNL     1       2.051   6.147  20.828  0.00  0.00    +0.000 C 
ATOM      7  C   UNL     1       2.378   7.543  18.791  0.00  0.00    +0.000 A 
ATOM      8  C   UNL     1       2.145   8.755  17.962  0.00  0.00    +0.000 A 
ATOM      9  O   UNL     1       2.600   8.852  16.827  0.00  0.00    +0.000 OA
ATOM     10  O   UNL     1       1.391   9.769  18.517  0.00  0.00    +0.000 OA
ATOM     11  C   UNL     1       0.815   9.644  19.791  0.00  0.00    +0.000 A 
ATOM     12  C   UNL     1       0.088  10.758  20.239  0.00  0.00    +0.000 A 
ENDROOT
BRANCH   1  13
ATOM     13  N   UNL     1      -1.164  11.918  21.982  0.00  0.00    +0.000 N 
BRANCH  13  15
ATOM     14  C   UNL     1      -3.192  12.411  23.307  0.00  0.00    +0.000 C 
ATOM     15  C   UNL     1      -1.779  11.838  23.316  0.00  0.00    +0.000 C 
ENDBRANCH  13  15
BRANCH  13  16
ATOM     16  C   UNL     1      -0.787  13.212  21.391  0.00  0.00    +0.000 C 
ATOM     17  C   UNL     1       0.632  13.680  21.669  0.00  0.00    +0.000 C 
ENDBRANCH  13  16
ENDBRANCH   1  13
BRANCH   7  18
ATOM     18  C   UNL     1       3.324   6.534  18.165  0.00  0.00    +0.000 C 
BRANCH  18  19
ATOM     19  C   UNL     1       4.776   7.031  18.107  0.00  0.00    +0.000 C 
BRANCH  19  20
ATOM     20  O   UNL     1       5.725   6.001  17.753  0.00  0.00    +0.000 OA
BRANCH  20  21
ATOM     21  C   UNL     1       5.993   5.074  18.708  0.00  0.00    +0.000 C 
ATOM     22  O   UNL     1       6.359   5.313  19.850  0.00  0.00    +0.000 OA
ATOM     23  N   UNL     1       5.869   3.793  18.259  0.00  0.00    +0.000 N 
ATOM     24  H   UNL     1       6.247   3.112  18.901  0.00  0.00    +0.000 HD
BRANCH  23  25
ATOM     25  C   UNL     1       4.778   3.356  17.416  0.00  0.00    +0.000 C 
BRANCH  25  26
ATOM     26  C   UNL     1       3.524   3.069  18.209  0.00  0.00    +0.000 A 
ATOM     27  C   UNL     1       3.523   2.785  19.579  0.00  0.00    +0.000 A 
ATOM     28  C   UNL     1       2.321   2.556  20.249  0.00  0.00    +0.000 A 
ATOM     29  C   UNL     1       1.141   2.645  19.530  0.00  0.00    +0.000 A 
ATOM     30  N   UNL     1       1.094   2.938  18.214  0.00  0.00    +0.000 NA
ATOM     31  C   UNL     1       2.275   3.148  17.587  0.00  0.00    +0.000 A 
ENDBRANCH  25  26
ENDBRANCH  23  25
ENDBRANCH  20  21
ENDBRANCH  19  20
ENDBRANCH  18  19
ENDBRANCH   7  18
TORSDOF 9
ENDMDL
MODEL 8
REMARK VINA RESULT:      -6.7      2.690      9.301
REMARK  Name = 
REMARK  12 active torsions:
REMARK  status: ('A' for Active; 'I' for Inactive)
REMARK    1  A    between atoms: C_1  and  C_2
REMARK    2  A    between atoms: C_2  and  N_3
REMARK    3  A    between atoms: N_3  and  C_4
REMARK    4  A    between atoms: N_3  and  C_6
REMARK    5  A    between atoms: C_4  and  C_5
REMARK    6  A    between atoms: C_10  and  C_11
REMARK    7  A    between atoms: C_12  and  C_13
REMARK    8  A    between atoms: C_13  and  C_14
REMARK    9  A    between atoms: C_14  and  O_15
REMARK   10  A    between atoms: O_15  and  C_16
REMARK   11  A    between atoms: N_18  and  C_19
REMARK   12  A    between atoms: C_19  and  C_20
REMARK                            x       y       z     vdW  Elec       q    Type
REMARK                         _______ _______ _______ _____ _____    ______ ____
ROOT
ATOM      1  C   UNL     1       2.317   7.265  18.685  0.00  0.00    +0.000 A 
ATOM      2  C   UNL     1       1.955   8.257  17.761  0.00  0.00    +0.000 A 
ATOM      3  C   UNL     1       1.293   9.440  18.143  0.00  0.00    +0.000 A 
ATOM      4  C   UNL     1       0.967   9.693  19.478  0.00  0.00    +0.000 A 
ATOM      5  C   UNL     1       0.343  10.934  19.980  0.00  0.00    +0.000 A 
ATOM      6  C   UNL     1       0.006  12.057  19.030  0.00  0.00    +0.000 C 
ATOM      7  C   UNL     1       0.091  11.047  21.306  0.00  0.00    +0.000 A 
ATOM      8  C   UNL     1       0.393   9.947  22.258  0.00  0.00    +0.000 A 
ATOM      9  O   UNL     1       0.101  10.029  23.446  0.00  0.00    +0.000 OA
ATOM     10  O   UNL     1       1.015   8.823  21.753  0.00  0.00    +0.000 OA
ATOM     11  C   UNL     1       1.301   8.693  20.385  0.00  0.00    +0.000 A 
ATOM     12  C   UNL     1       1.951   7.506  20.012  0.00  0.00    +0.000 A 
ENDROOT
BRANCH   1  13
ATOM     13  N   UNL     1       3.041   6.118  18.328  0.00  0.00    +0.000 N 
BRANCH  13  15
ATOM     14  C   UNL     1       4.897   5.805  16.724  0.00  0.00    +0.000 C 
ATOM     15  C   UNL     1       4.489   6.268  18.120  0.00  0.00    +0.000 C 
ENDBRANCH  13  15
BRANCH  13  16
ATOM     16  C   UNL     1       2.448   4.812  18.658  0.00  0.00    +0.000 C 
ATOM     17  C   UNL     1       3.040   4.101  19.864  0.00  0.00    +0.000 C 
ENDBRANCH  13  16
ENDBRANCH   1  13
BRANCH   7  18
ATOM     18  C   UNL     1      -0.469  12.298  21.959  0.00  0.00    +0.000 C 
BRANCH  18  19
ATOM     19  C   UNL     1      -1.582  11.995  22.973  0.00  0.00    +0.000 C 
BRANCH  19  20
ATOM     20  O   UNL     1      -2.671  12.944  22.937  0.00  0.00    +0.000 OA
BRANCH  20  21
ATOM     21  C   UNL     1      -3.905  12.457  23.223  0.00  0.00    +0.000 C 
ATOM     22  O   UNL     1      -4.301  12.126  24.332  0.00  0.00    +0.000 OA
ATOM     23  N   UNL     1      -4.690  12.306  22.119  0.00  0.00    +0.000 N 
ATOM     24  H   UNL     1      -5.528  11.773  22.301  0.00  0.00    +0.000 HD
BRANCH  23  25
ATOM     25  C   UNL     1      -4.764  13.293  21.064  0.00  0.00    +0.000 C 
BRANCH  25  26
ATOM     26  C   UNL     1      -4.651  12.669  19.692  0.00  0.00    +0.000 A 
ATOM     27  C   UNL     1      -3.498  12.028  19.226  0.00  0.00    +0.000 A 
ATOM     28  C   UNL     1      -3.477  11.453  17.955  0.00  0.00    +0.000 A 
ATOM     29  C   UNL     1      -4.629  11.513  17.189  0.00  0.00    +0.000 A 
ATOM     30  N   UNL     1      -5.769  12.101  17.606  0.00  0.00    +0.000 NA
ATOM     31  C   UNL     1      -5.759  12.657  18.841  0.00  0.00    +0.000 A 
ENDBRANCH  25  26
ENDBRANCH  23  25
ENDBRANCH  20  21
ENDBRANCH  19  20
ENDBRANCH  18  19
ENDBRANCH   7  18
TORSDOF 9
ENDMDL
MODEL 9
REMARK VINA RESULT:      -6.7      3.334     10.065
REMARK  Name = 
REMARK  12 active torsions:
REMARK  status: ('A' for Active; 'I' for Inactive)
REMARK    1  A    between atoms: C_1  and  C_2
REMARK    2  A    between atoms: C_2  and  N_3
REMARK    3  A    between atoms: N_3  and  C_4
REMARK    4  A    between atoms: N_3  and  C_6
REMARK    5  A    between atoms: C_4  and  C_5
REMARK    6  A    between atoms: C_10  and  C_11
REMARK    7  A    between atoms: C_12  and  C_13
REMARK    8  A    between atoms: C_13  and  C_14
REMARK    9  A    between atoms: C_14  and  O_15
REMARK   10  A    between atoms: O_15  and  C_16
REMARK   11  A    between atoms: N_18  and  C_19
REMARK   12  A    between atoms: C_19  and  C_20
REMARK                            x       y       z     vdW  Elec       q    Type
REMARK                         _______ _______ _______ _____ _____    ______ ____
ROOT
ATOM      1  C   UNL     1       3.653   5.607  18.658  0.00  0.00    +0.000 A 
ATOM      2  C   UNL     1       3.724   6.558  17.629  0.00  0.00    +0.000 A 
ATOM      3  C   UNL     1       3.042   7.790  17.690  0.00  0.00    +0.000 A 
ATOM      4  C   UNL     1       2.259   8.134  18.794  0.00  0.00    +0.000 A 
ATOM      5  C   UNL     1       1.571   9.428  18.979  0.00  0.00    +0.000 A 
ATOM      6  C   UNL     1       1.684  10.508  17.930  0.00  0.00    +0.000 C 
ATOM      7  C   UNL     1       0.852   9.630  20.108  0.00  0.00    +0.000 A 
ATOM      8  C   UNL     1       0.708   8.575  21.145  0.00  0.00    +0.000 A 
ATOM      9  O   UNL     1      -0.000   8.739  22.133  0.00  0.00    +0.000 OA
ATOM     10  O   UNL     1       1.401   7.397  20.953  0.00  0.00    +0.000 OA
ATOM     11  C   UNL     1       2.169   7.175  19.798  0.00  0.00    +0.000 A 
ATOM     12  C   UNL     1       2.835   5.941  19.741  0.00  0.00    +0.000 A 
ENDROOT
BRANCH   1  13
ATOM     13  N   UNL     1       4.385   4.411  18.642  0.00  0.00    +0.000 N 
BRANCH  13  15
ATOM     14  C   UNL     1       6.569   5.356  19.313  0.00  0.00    +0.000 C 
ATOM     15  C   UNL     1       5.814   4.495  18.305  0.00  0.00    +0.000 C 
ENDBRANCH  13  15
BRANCH  13  16
ATOM     16  C   UNL     1       3.847   3.277  19.412  0.00  0.00    +0.000 C 
ATOM     17  C   UNL     1       3.267   2.136  18.593  0.00  0.00    +0.000 C 
ENDBRANCH  13  16
ENDBRANCH   1  13
BRANCH   7  18
ATOM     18  C   UNL     1       0.168  10.940  20.455  0.00  0.00    +0.000 C 
BRANCH  18  19
ATOM     19  C   UNL     1      -1.146  11.150  19.687  0.00  0.00    +0.000 C 
BRANCH  19  20
ATOM     20  O   UNL     1      -1.281  12.474  19.125  0.00  0.00    +0.000 OA
BRANCH  20  21
ATOM     21  C   UNL     1      -1.788  13.429  19.947  0.00  0.00    +0.000 C 
ATOM     22  O   UNL     1      -2.662  13.256  20.785  0.00  0.00    +0.000 OA
ATOM     23  N   UNL     1      -1.262  14.665  19.719  0.00  0.00    +0.000 N 
ATOM     24  H   UNL     1      -1.767  15.401  20.190  0.00  0.00    +0.000 HD
BRANCH  23  25
ATOM     25  C   UNL     1       0.147  14.891  19.485  0.00  0.00    +0.000 C 
BRANCH  25  26
ATOM     26  C   UNL     1       0.396  16.123  18.645  0.00  0.00    +0.000 A 
ATOM     27  C   UNL     1      -0.628  16.925  18.126  0.00  0.00    +0.000 A 
ATOM     28  C   UNL     1      -0.320  18.063  17.381  0.00  0.00    +0.000 A 
ATOM     29  C   UNL     1       1.013  18.386  17.196  0.00  0.00    +0.000 A 
ATOM     30  N   UNL     1       2.030  17.656  17.696  0.00  0.00    +0.000 NA
ATOM     31  C   UNL     1       1.704  16.552  18.410  0.00  0.00    +0.000 A 
ENDBRANCH  25  26
ENDBRANCH  23  25
ENDBRANCH  20  21
ENDBRANCH  19  20
ENDBRANCH  18  19
ENDBRANCH   7  18
TORSDOF 9
ENDMDL
