MODEL 1
REMARK VINA RESULT:      -8.6      0.000      0.000
REMARK  Name = 
REMARK  7 active torsions:
REMARK  status: ('A' for Active; 'I' for Inactive)
REMARK    1  A    between atoms: C_2  and  C_3
REMARK    2  A    between atoms: C_5  and  C_6
REMARK    3  A    between atoms: C_9  and  C_10
REMARK    4  A    between atoms: C_10  and  C_11
REMARK    5  A    between atoms: C_11  and  C_12
REMARK    6  A    between atoms: C_11  and  N_14
REMARK    7  A    between atoms: C_15  and  C_17
REMARK                            x       y       z     vdW  Elec       q    Type
REMARK                         _______ _______ _______ _____ _____    ______ ____
ROOT
ATOM      1  C   UNL     1       5.427   5.227  16.409  0.00  0.00    +0.000 C 
ENDROOT
BRANCH   1   2
ATOM      2  N   UNL     1       4.254   4.689  17.103  0.00  0.00    +0.000 N 
ATOM      3  C   UNL     1       3.327   5.530  17.699  0.00  0.00    +0.000 C 
ATOM      4  O   UNL     1       3.463   6.749  17.705  0.00  0.00    +0.000 OA
ATOM      5  H   UNL     1       3.927   3.757  16.861  0.00  0.00    +0.000 HD
BRANCH   3   6
ATOM      6  C   UNL     1       2.086   4.797  18.274  0.00  0.00    +0.000 C 
ATOM      7  N   UNL     1       1.778   3.578  17.467  0.00  0.00    +0.000 NA
ATOM      8  C   UNL     1       1.715   2.385  18.338  0.00  0.00    +0.000 C 
ATOM      9  C   UNL     1       3.059   2.221  19.068  0.00  0.00    +0.000 C 
ATOM     10  C   UNL     1       3.281   3.396  20.025  0.00  0.00    +0.000 C 
ATOM     11  C   UNL     1       2.195   4.460  19.782  0.00  0.00    +0.000 C 
ATOM     12  C   UNL     1       0.852   3.834  20.212  0.00  0.00    +0.000 C 
ATOM     13  C   UNL     1       0.586   2.580  19.365  0.00  0.00    +0.000 C 
ATOM     14  H   UNL     1       2.524   3.424  16.788  0.00  0.00    +0.000 HD
ENDBRANCH   3   6
ENDBRANCH   1   2
BRANCH   1  15
ATOM     15  C   UNL     1       5.582   4.568  15.048  0.00  0.00    +0.000 C 
ATOM     16  N   UNL     1       5.711   4.023  13.918  0.00  0.00    +0.000 NA
ENDBRANCH   1  15
BRANCH   1  17
ATOM     17  C   UNL     1       6.724   5.065  17.218  0.00  0.00    +0.000 C 
BRANCH  17  21
ATOM     18  C   UNL     1       8.503   8.841  18.496  0.00  0.00    +0.000 A 
ATOM     19  C   UNL     1       8.702   7.652  19.218  0.00  0.00    +0.000 A 
ATOM     20  C   UNL     1       8.129   6.439  18.812  0.00  0.00    +0.000 A 
ATOM     21  C   UNL     1       7.332   6.379  17.666  0.00  0.00    +0.000 A 
ATOM     22  C   UNL     1       7.100   7.560  16.954  0.00  0.00    +0.000 A 
ATOM     23  C   UNL     1       7.686   8.766  17.357  0.00  0.00    +0.000 A 
BRANCH  18  26
ATOM     24  C   UNL     1      10.257  12.192  18.422  0.00  0.00    +0.000 A 
ATOM     25  C   UNL     1       9.664  11.016  17.982  0.00  0.00    +0.000 A 
ATOM     26  C   UNL     1       9.126  10.120  18.914  0.00  0.00    +0.000 A 
ATOM     27  C   UNL     1       9.214  10.486  20.266  0.00  0.00    +0.000 A 
ATOM     28  C   UNL     1       9.813  11.687  20.617  0.00  0.00    +0.000 A 
ATOM     29  N   UNL     1      10.342  12.547  19.727  0.00  0.00    +0.000 NA
BRANCH  24  31
ATOM     30  N   UNL     1      11.357  13.862  16.765  0.00  0.00    +0.000 NA
ATOM     31  C   UNL     1      10.844  13.110  17.484  0.00  0.00    +0.000 C 
ENDBRANCH  24  31
ENDBRANCH  18  26
ENDBRANCH  17  21
ENDBRANCH   1  17
TORSDOF 7
ENDMDL
MODEL 2
REMARK VINA RESULT:      -7.7      5.967      9.416
REMARK  Name = 
REMARK  7 active torsions:
REMARK  status: ('A' for Active; 'I' for Inactive)
REMARK    1  A    between atoms: C_2  and  C_3
REMARK    2  A    between atoms: C_5  and  C_6
REMARK    3  A    between atoms: C_9  and  C_10
REMARK    4  A    between atoms: C_10  and  C_11
REMARK    5  A    between atoms: C_11  and  C_12
REMARK    6  A    between atoms: C_11  and  N_14
REMARK    7  A    between atoms: C_15  and  C_17
REMARK                            x       y       z     vdW  Elec       q    Type
REMARK                         _______ _______ _______ _____ _____    ______ ____
ROOT
ATOM      1  C   UNL     1       1.290  11.530  18.730  0.00  0.00    +0.000 C 
ENDROOT
BRANCH   1   2
ATOM      2  N   UNL     1      -0.021  11.637  18.084  0.00  0.00    +0.000 N 
ATOM      3  C   UNL     1      -1.189  11.628  18.831  0.00  0.00    +0.000 C 
ATOM      4  O   UNL     1      -1.181  11.494  20.050  0.00  0.00    +0.000 OA
ATOM      5  H   UNL     1      -0.079  12.061  17.161  0.00  0.00    +0.000 HD
BRANCH   3   6
ATOM      6  C   UNL     1      -2.474  11.881  17.998  0.00  0.00    +0.000 C 
ATOM      7  N   UNL     1      -2.147  11.958  16.542  0.00  0.00    +0.000 NA
ATOM      8  C   UNL     1      -2.971  10.998  15.777  0.00  0.00    +0.000 C 
ATOM      9  C   UNL     1      -2.717   9.577  16.310  0.00  0.00    +0.000 C 
ATOM     10  C   UNL     1      -3.219   9.464  17.753  0.00  0.00    +0.000 C 
ATOM     11  C   UNL     1      -3.610  10.861  18.266  0.00  0.00    +0.000 C 
ATOM     12  C   UNL     1      -4.835  11.311  17.444  0.00  0.00    +0.000 C 
ATOM     13  C   UNL     1      -4.454  11.364  15.957  0.00  0.00    +0.000 C 
ATOM     14  H   UNL     1      -1.169  11.704  16.401  0.00  0.00    +0.000 HD
ENDBRANCH   3   6
ENDBRANCH   1   2
BRANCH   1  15
ATOM     15  C   UNL     1       1.899  12.910  18.917  0.00  0.00    +0.000 C 
ATOM     16  N   UNL     1       2.403  14.056  19.074  0.00  0.00    +0.000 NA
ENDBRANCH   1  15
BRANCH   1  17
ATOM     17  C   UNL     1       2.265  10.631  17.953  0.00  0.00    +0.000 C 
BRANCH  17  21
ATOM     18  C   UNL     1       2.407   6.513  19.393  0.00  0.00    +0.000 A 
ATOM     19  C   UNL     1       2.946   6.876  18.148  0.00  0.00    +0.000 A 
ATOM     20  C   UNL     1       2.899   8.196  17.681  0.00  0.00    +0.000 A 
ATOM     21  C   UNL     1       2.304   9.200  18.450  0.00  0.00    +0.000 A 
ATOM     22  C   UNL     1       1.735   8.849  19.678  0.00  0.00    +0.000 A 
ATOM     23  C   UNL     1       1.797   7.531  20.144  0.00  0.00    +0.000 A 
BRANCH  18  26
ATOM     24  C   UNL     1       3.071   2.797  19.640  0.00  0.00    +0.000 A 
ATOM     25  C   UNL     1       3.049   4.091  19.137  0.00  0.00    +0.000 A 
ATOM     26  C   UNL     1       2.476   5.120  19.896  0.00  0.00    +0.000 A 
ATOM     27  C   UNL     1       1.959   4.767  21.152  0.00  0.00    +0.000 A 
ATOM     28  C   UNL     1       2.035   3.450  21.582  0.00  0.00    +0.000 A 
ATOM     29  N   UNL     1       2.574   2.455  20.854  0.00  0.00    +0.000 NA
BRANCH  24  31
ATOM     30  N   UNL     1       4.061   0.819  18.281  0.00  0.00    +0.000 NA
ATOM     31  C   UNL     1       3.625   1.720  18.865  0.00  0.00    +0.000 C 
ENDBRANCH  24  31
ENDBRANCH  18  26
ENDBRANCH  17  21
ENDBRANCH   1  17
TORSDOF 7
ENDMDL
MODEL 3
REMARK VINA RESULT:      -7.7      7.361      9.845
REMARK  Name = 
REMARK  7 active torsions:
REMARK  status: ('A' for Active; 'I' for Inactive)
REMARK    1  A    between atoms: C_2  and  C_3
REMARK    2  A    between atoms: C_5  and  C_6
REMARK    3  A    between atoms: C_9  and  C_10
REMARK    4  A    between atoms: C_10  and  C_11
REMARK    5  A    between atoms: C_11  and  C_12
REMARK    6  A    between atoms: C_11  and  N_14
REMARK    7  A    between atoms: C_15  and  C_17
REMARK                            x       y       z     vdW  Elec       q    Type
REMARK                         _______ _______ _______ _____ _____    ______ ____
ROOT
ATOM      1  C   UNL     1       0.828  11.804  20.730  0.00  0.00    +0.000 C 
ENDROOT
BRANCH   1   2
ATOM      2  N   UNL     1      -0.179  12.538  21.501  0.00  0.00    +0.000 N 
ATOM      3  C   UNL     1      -0.718  12.006  22.662  0.00  0.00    +0.000 C 
ATOM      4  O   UNL     1      -0.409  10.892  23.073  0.00  0.00    +0.000 OA
ATOM      5  H   UNL     1      -0.230  13.549  21.402  0.00  0.00    +0.000 HD
BRANCH   3   6
ATOM      6  C   UNL     1      -1.670  12.971  23.418  0.00  0.00    +0.000 C 
ATOM      7  N   UNL     1      -1.505  14.369  22.915  0.00  0.00    +0.000 NA
ATOM      8  C   UNL     1      -2.808  14.921  22.491  0.00  0.00    +0.000 C 
ATOM      9  C   UNL     1      -3.405  14.023  21.393  0.00  0.00    +0.000 C 
ATOM     10  C   UNL     1      -3.732  12.642  21.970  0.00  0.00    +0.000 C 
ATOM     11  C   UNL     1      -3.157  12.537  23.394  0.00  0.00    +0.000 C 
ATOM     12  C   UNL     1      -3.942  13.538  24.267  0.00  0.00    +0.000 C 
ATOM     13  C   UNL     1      -3.751  14.956  23.705  0.00  0.00    +0.000 C 
ATOM     14  H   UNL     1      -0.892  14.364  22.099  0.00  0.00    +0.000 HD
ENDBRANCH   3   6
ENDBRANCH   1   2
BRANCH   1  15
ATOM     15  C   UNL     1       1.865  12.764  20.170  0.00  0.00    +0.000 C 
ATOM     16  N   UNL     1       2.725  13.560  19.704  0.00  0.00    +0.000 NA
ENDBRANCH   1  15
BRANCH   1  17
ATOM     17  C   UNL     1       0.215  10.975  19.589  0.00  0.00    +0.000 C 
BRANCH  17  21
ATOM     18  C   UNL     1       2.406   7.311  18.679  0.00  0.00    +0.000 A 
ATOM     19  C   UNL     1       1.952   7.593  19.978  0.00  0.00    +0.000 A 
ATOM     20  C   UNL     1       1.251   8.770  20.274  0.00  0.00    +0.000 A 
ATOM     21  C   UNL     1       0.985   9.709  19.273  0.00  0.00    +0.000 A 
ATOM     22  C   UNL     1       1.459   9.457  17.981  0.00  0.00    +0.000 A 
ATOM     23  C   UNL     1       2.146   8.273  17.689  0.00  0.00    +0.000 A 
BRANCH  18  26
ATOM     24  C   UNL     1       5.139   4.846  17.804  0.00  0.00    +0.000 A 
ATOM     25  C   UNL     1       4.508   6.043  18.118  0.00  0.00    +0.000 A 
ATOM     26  C   UNL     1       3.130   6.056  18.361  0.00  0.00    +0.000 A 
ATOM     27  C   UNL     1       2.461   4.824  18.281  0.00  0.00    +0.000 A 
ATOM     28  C   UNL     1       3.172   3.674  17.973  0.00  0.00    +0.000 A 
ATOM     29  N   UNL     1       4.495   3.656  17.727  0.00  0.00    +0.000 NA
BRANCH  24  31
ATOM     30  N   UNL     1       7.672   4.793  17.235  0.00  0.00    +0.000 NA
ATOM     31  C   UNL     1       6.548   4.815  17.519  0.00  0.00    +0.000 C 
ENDBRANCH  24  31
ENDBRANCH  18  26
ENDBRANCH  17  21
ENDBRANCH   1  17
TORSDOF 7
ENDMDL
MODEL 4
REMARK VINA RESULT:      -7.6      7.477      9.912
REMARK  Name = 
REMARK  7 active torsions:
REMARK  status: ('A' for Active; 'I' for Inactive)
REMARK    1  A    between atoms: C_2  and  C_3
REMARK    2  A    between atoms: C_5  and  C_6
REMARK    3  A    between atoms: C_9  and  C_10
REMARK    4  A    between atoms: C_10  and  C_11
REMARK    5  A    between atoms: C_11  and  C_12
REMARK    6  A    between atoms: C_11  and  N_14
REMARK    7  A    between atoms: C_15  and  C_17
REMARK                            x       y       z     vdW  Elec       q    Type
REMARK                         _______ _______ _______ _____ _____    ______ ____
ROOT
ATOM      1  C   UNL     1       0.177  11.448  20.485  0.00  0.00    +0.000 C 
ENDROOT
BRANCH   1   2
ATOM      2  N   UNL     1      -1.195  11.797  20.866  0.00  0.00    +0.000 N 
ATOM      3  C   UNL     1      -1.582  11.825  22.196  0.00  0.00    +0.000 C 
ATOM      4  O   UNL     1      -0.814  11.527  23.104  0.00  0.00    +0.000 OA
ATOM      5  H   UNL     1      -1.756  12.346  20.220  0.00  0.00    +0.000 HD
BRANCH   3   6
ATOM      6  C   UNL     1      -3.028  12.340  22.422  0.00  0.00    +0.000 C 
ATOM      7  N   UNL     1      -3.475  12.048  23.818  0.00  0.00    +0.000 NA
ATOM      8  C   UNL     1      -3.935  13.287  24.481  0.00  0.00    +0.000 C 
ATOM      9  C   UNL     1      -2.789  14.313  24.489  0.00  0.00    +0.000 C 
ATOM     10  C   UNL     1      -2.458  14.735  23.053  0.00  0.00    +0.000 C 
ATOM     11  C   UNL     1      -3.228  13.836  22.069  0.00  0.00    +0.000 C 
ATOM     12  C   UNL     1      -4.726  14.156  22.251  0.00  0.00    +0.000 C 
ATOM     13  C   UNL     1      -5.134  13.851  23.701  0.00  0.00    +0.000 C 
ATOM     14  H   UNL     1      -2.688  11.686  24.356  0.00  0.00    +0.000 HD
ENDBRANCH   3   6
ENDBRANCH   1   2
BRANCH   1  15
ATOM     15  C   UNL     1       1.061  12.684  20.505  0.00  0.00    +0.000 C 
ATOM     16  N   UNL     1       1.795  13.709  20.523  0.00  0.00    +0.000 NA
ENDBRANCH   1  15
BRANCH   1  17
ATOM     17  C   UNL     1       0.258  10.771  19.107  0.00  0.00    +0.000 C 
BRANCH  17  21
ATOM     18  C   UNL     1       2.655   7.123  19.088  0.00  0.00    +0.000 A 
ATOM     19  C   UNL     1       2.532   7.928  17.943  0.00  0.00    +0.000 A 
ATOM     20  C   UNL     1       1.760   9.098  17.945  0.00  0.00    +0.000 A 
ATOM     21  C   UNL     1       1.081   9.499  19.099  0.00  0.00    +0.000 A 
ATOM     22  C   UNL     1       1.169   8.691  20.238  0.00  0.00    +0.000 A 
ATOM     23  C   UNL     1       1.953   7.531  20.233  0.00  0.00    +0.000 A 
BRANCH  18  26
ATOM     24  C   UNL     1       5.474   4.676  18.473  0.00  0.00    +0.000 A 
ATOM     25  C   UNL     1       4.738   5.854  18.462  0.00  0.00    +0.000 A 
ATOM     26  C   UNL     1       3.489   5.896  19.092  0.00  0.00    +0.000 A 
ATOM     27  C   UNL     1       3.057   4.718  19.721  0.00  0.00    +0.000 A 
ATOM     28  C   UNL     1       3.862   3.588  19.694  0.00  0.00    +0.000 A 
ATOM     29  N   UNL     1       5.059   3.538  19.080  0.00  0.00    +0.000 NA
BRANCH  24  31
ATOM     30  N   UNL     1       7.783   4.500  17.298  0.00  0.00    +0.000 NA
ATOM     31  C   UNL     1       6.745   4.601  17.803  0.00  0.00    +0.000 C 
ENDBRANCH  24  31
ENDBRANCH  18  26
ENDBRANCH  17  21
ENDBRANCH   1  17
TORSDOF 7
ENDMDL
MODEL 5
REMARK VINA RESULT:      -7.6      5.832      9.847
REMARK  Name = 
REMARK  7 active torsions:
REMARK  status: ('A' for Active; 'I' for Inactive)
REMARK    1  A    between atoms: C_2  and  C_3
REMARK    2  A    between atoms: C_5  and  C_6
REMARK    3  A    between atoms: C_9  and  C_10
REMARK    4  A    between atoms: C_10  and  C_11
REMARK    5  A    between atoms: C_11  and  C_12
REMARK    6  A    between atoms: C_11  and  N_14
REMARK    7  A    between atoms: C_15  and  C_17
REMARK                            x       y       z     vdW  Elec       q    Type
REMARK                         _______ _______ _______ _____ _____    ______ ____
ROOT
ATOM      1  C   UNL     1       0.525  11.525  19.379  0.00  0.00    +0.000 C 
ENDROOT
BRANCH   1   2
ATOM      2  N   UNL     1       1.367  12.625  19.859  0.00  0.00    +0.000 N 
ATOM      3  C   UNL     1       2.416  13.108  19.093  0.00  0.00    +0.000 C 
ATOM      4  O   UNL     1       2.708  12.619  18.007  0.00  0.00    +0.000 OA
ATOM      5  H   UNL     1       0.992  13.257  20.562  0.00  0.00    +0.000 HD
BRANCH   3   6
ATOM      6  C   UNL     1       3.116  14.354  19.696  0.00  0.00    +0.000 C 
ATOM      7  N   UNL     1       4.383  14.650  18.959  0.00  0.00    +0.000 NA
ATOM      8  C   UNL     1       4.385  16.048  18.478  0.00  0.00    +0.000 C 
ATOM      9  C   UNL     1       3.168  16.270  17.564  0.00  0.00    +0.000 C 
ATOM     10  C   UNL     1       1.874  16.134  18.374  0.00  0.00    +0.000 C 
ATOM     11  C   UNL     1       2.210  15.608  19.782  0.00  0.00    +0.000 C 
ATOM     12  C   UNL     1       3.019  16.714  20.490  0.00  0.00    +0.000 C 
ATOM     13  C   UNL     1       4.303  16.990  19.691  0.00  0.00    +0.000 C 
ATOM     14  H   UNL     1       4.448  14.044  18.142  0.00  0.00    +0.000 HD
ENDBRANCH   3   6
ENDBRANCH   1   2
BRANCH   1  15
ATOM     15  C   UNL     1      -0.925  11.974  19.284  0.00  0.00    +0.000 C 
ATOM     16  N   UNL     1      -2.126  12.347  19.204  0.00  0.00    +0.000 NA
ENDBRANCH   1  15
BRANCH   1  17
ATOM     17  C   UNL     1       0.625  10.270  20.261  0.00  0.00    +0.000 C 
BRANCH  17  21
ATOM     18  C   UNL     1       2.780   6.975  18.376  0.00  0.00    +0.000 A 
ATOM     19  C   UNL     1       2.463   8.147  17.669  0.00  0.00    +0.000 A 
ATOM     20  C   UNL     1       1.768   9.205  18.270  0.00  0.00    +0.000 A 
ATOM     21  C   UNL     1       1.363   9.121  19.605  0.00  0.00    +0.000 A 
ATOM     22  C   UNL     1       1.645   7.947  20.314  0.00  0.00    +0.000 A 
ATOM     23  C   UNL     1       2.351   6.900  19.711  0.00  0.00    +0.000 A 
BRANCH  18  26
ATOM     24  C   UNL     1       5.371   5.022  16.431  0.00  0.00    +0.000 A 
ATOM     25  C   UNL     1       4.711   6.092  17.022  0.00  0.00    +0.000 A 
ATOM     26  C   UNL     1       3.534   5.864  17.746  0.00  0.00    +0.000 A 
ATOM     27  C   UNL     1       3.095   4.534  17.838  0.00  0.00    +0.000 A 
ATOM     28  C   UNL     1       3.823   3.525  17.226  0.00  0.00    +0.000 A 
ATOM     29  N   UNL     1       4.949   3.738  16.520  0.00  0.00    +0.000 NA
BRANCH  24  31
ATOM     30  N   UNL     1       7.500   5.383  14.989  0.00  0.00    +0.000 NA
ATOM     31  C   UNL     1       6.563   5.237  15.655  0.00  0.00    +0.000 C 
ENDBRANCH  24  31
ENDBRANCH  18  26
ENDBRANCH  17  21
ENDBRANCH   1  17
TORSDOF 7
ENDMDL
MODEL 6
REMARK VINA RESULT:      -7.6      5.728      9.753
REMARK  Name = 
REMARK  7 active torsions:
REMARK  status: ('A' for Active; 'I' for Inactive)
REMARK    1  A    between atoms: C_2  and  C_3
REMARK    2  A    between atoms: C_5  and  C_6
REMARK    3  A    between atoms: C_9  and  C_10
REMARK    4  A    between atoms: C_10  and  C_11
REMARK    5  A    between atoms: C_11  and  C_12
REMARK    6  A    between atoms: C_11  and  N_14
REMARK    7  A    between atoms: C_15  and  C_17
REMARK                            x       y       z     vdW  Elec       q    Type
REMARK                         _______ _______ _______ _____ _____    ______ ____
ROOT
ATOM      1  C   UNL     1       0.151  11.546  19.219  0.00  0.00    +0.000 C 
ENDROOT
BRANCH   1   2
ATOM      2  N   UNL     1       0.815  12.773  19.667  0.00  0.00    +0.000 N 
ATOM      3  C   UNL     1       2.026  13.171  19.122  0.00  0.00    +0.000 C 
ATOM      4  O   UNL     1       2.610  12.502  18.276  0.00  0.00    +0.000 OA
ATOM      5  H   UNL     1       0.253  13.502  20.100  0.00  0.00    +0.000 HD
BRANCH   3   6
ATOM      6  C   UNL     1       2.517  14.556  19.619  0.00  0.00    +0.000 C 
ATOM      7  N   UNL     1       3.887  14.446  20.206  0.00  0.00    +0.000 NA
ATOM      8  C   UNL     1       4.806  15.403  19.554  0.00  0.00    +0.000 C 
ATOM      9  C   UNL     1       4.845  15.117  18.043  0.00  0.00    +0.000 C 
ATOM     10  C   UNL     1       3.474  15.403  17.422  0.00  0.00    +0.000 C 
ATOM     11  C   UNL     1       2.454  15.671  18.544  0.00  0.00    +0.000 C 
ATOM     12  C   UNL     1       2.876  16.990  19.224  0.00  0.00    +0.000 C 
ATOM     13  C   UNL     1       4.291  16.831  19.800  0.00  0.00    +0.000 C 
ATOM     14  H   UNL     1       4.251  13.508  20.040  0.00  0.00    +0.000 HD
ENDBRANCH   3   6
ENDBRANCH   1   2
BRANCH   1  15
ATOM     15  C   UNL     1      -1.340  11.784  19.050  0.00  0.00    +0.000 C 
ATOM     16  N   UNL     1      -2.578  11.983  18.912  0.00  0.00    +0.000 NA
ENDBRANCH   1  15
BRANCH   1  17
ATOM     17  C   UNL     1       0.385  10.361  20.170  0.00  0.00    +0.000 C 
BRANCH  17  21
ATOM     18  C   UNL     1       2.659   7.088  18.389  0.00  0.00    +0.000 A 
ATOM     19  C   UNL     1       2.288   7.074  19.744  0.00  0.00    +0.000 A 
ATOM     20  C   UNL     1       1.561   8.125  20.320  0.00  0.00    +0.000 A 
ATOM     21  C   UNL     1       1.184   9.231  19.553  0.00  0.00    +0.000 A 
ATOM     22  C   UNL     1       1.573   9.273  18.210  0.00  0.00    +0.000 A 
ATOM     23  C   UNL     1       2.287   8.214  17.638  0.00  0.00    +0.000 A 
BRANCH  18  26
ATOM     24  C   UNL     1       5.280   5.093  16.529  0.00  0.00    +0.000 A 
ATOM     25  C   UNL     1       4.622   6.171  17.107  0.00  0.00    +0.000 A 
ATOM     26  C   UNL     1       3.410   5.966  17.776  0.00  0.00    +0.000 A 
ATOM     27  C   UNL     1       2.932   4.647  17.830  0.00  0.00    +0.000 A 
ATOM     28  C   UNL     1       3.660   3.626  17.235  0.00  0.00    +0.000 A 
ATOM     29  N   UNL     1       4.820   3.819  16.581  0.00  0.00    +0.000 NA
BRANCH  24  31
ATOM     30  N   UNL     1       7.493   5.496  15.233  0.00  0.00    +0.000 NA
ATOM     31  C   UNL     1       6.510   5.286  15.810  0.00  0.00    +0.000 C 
ENDBRANCH  24  31
ENDBRANCH  18  26
ENDBRANCH  17  21
ENDBRANCH   1  17
TORSDOF 7
ENDMDL
MODEL 7
REMARK VINA RESULT:      -7.6      1.224      1.849
REMARK  Name = 
REMARK  7 active torsions:
REMARK  status: ('A' for Active; 'I' for Inactive)
REMARK    1  A    between atoms: C_2  and  C_3
REMARK    2  A    between atoms: C_5  and  C_6
REMARK    3  A    between atoms: C_9  and  C_10
REMARK    4  A    between atoms: C_10  and  C_11
REMARK    5  A    between atoms: C_11  and  C_12
REMARK    6  A    between atoms: C_11  and  N_14
REMARK    7  A    between atoms: C_15  and  C_17
REMARK                            x       y       z     vdW  Elec       q    Type
REMARK                         _______ _______ _______ _____ _____    ______ ____
ROOT
ATOM      1  C   UNL     1       5.468   4.992  16.694  0.00  0.00    +0.000 C 
ENDROOT
BRANCH   1   2
ATOM      2  N   UNL     1       4.369   4.279  17.351  0.00  0.00    +0.000 N 
ATOM      3  C   UNL     1       4.563   3.619  18.554  0.00  0.00    +0.000 C 
ATOM      4  O   UNL     1       5.660   3.569  19.100  0.00  0.00    +0.000 OA
ATOM      5  H   UNL     1       3.413   4.546  17.132  0.00  0.00    +0.000 HD
BRANCH   3   6
ATOM      6  C   UNL     1       3.266   3.030  19.169  0.00  0.00    +0.000 C 
ATOM      7  N   UNL     1       3.384   2.942  20.656  0.00  0.00    +0.000 NA
ATOM      8  C   UNL     1       2.255   3.640  21.306  0.00  0.00    +0.000 C 
ATOM      9  C   UNL     1       2.244   5.111  20.855  0.00  0.00    +0.000 C 
ATOM     10  C   UNL     1       1.947   5.194  19.354  0.00  0.00    +0.000 C 
ATOM     11  C   UNL     1       1.974   3.778  18.752  0.00  0.00    +0.000 C 
ATOM     12  C   UNL     1       0.781   3.011  19.360  0.00  0.00    +0.000 C 
ATOM     13  C   UNL     1       0.942   2.957  20.887  0.00  0.00    +0.000 C 
ATOM     14  H   UNL     1       4.244   3.403  20.955  0.00  0.00    +0.000 HD
ENDBRANCH   3   6
ENDBRANCH   1   2
BRANCH   1  15
ATOM     15  C   UNL     1       5.644   4.492  15.270  0.00  0.00    +0.000 C 
ATOM     16  N   UNL     1       5.789   4.076  14.088  0.00  0.00    +0.000 NA
ENDBRANCH   1  15
BRANCH   1  17
ATOM     17  C   UNL     1       6.797   4.870  17.458  0.00  0.00    +0.000 C 
BRANCH  17  21
ATOM     18  C   UNL     1       8.521   8.723  18.570  0.00  0.00    +0.000 A 
ATOM     19  C   UNL     1       7.792   8.559  17.381  0.00  0.00    +0.000 A 
ATOM     20  C   UNL     1       7.240   7.323  17.019  0.00  0.00    +0.000 A 
ATOM     21  C   UNL     1       7.406   6.204  17.840  0.00  0.00    +0.000 A 
ATOM     22  C   UNL     1       8.156   6.344  19.013  0.00  0.00    +0.000 A 
ATOM     23  C   UNL     1       8.693   7.585  19.374  0.00  0.00    +0.000 A 
BRANCH  18  26
ATOM     24  C   UNL     1      10.175  12.122  18.436  0.00  0.00    +0.000 A 
ATOM     25  C   UNL     1       9.638  10.912  18.019  0.00  0.00    +0.000 A 
ATOM     26  C   UNL     1       9.087  10.036  18.963  0.00  0.00    +0.000 A 
ATOM     27  C   UNL     1       9.105  10.456  20.302  0.00  0.00    +0.000 A 
ATOM     28  C   UNL     1       9.652  11.689  20.630  0.00  0.00    +0.000 A 
ATOM     29  N   UNL     1      10.193  12.530  19.729  0.00  0.00    +0.000 NA
BRANCH  24  31
ATOM     30  N   UNL     1      11.305  13.744  16.752  0.00  0.00    +0.000 NA
ATOM     31  C   UNL     1      10.775  13.022  17.488  0.00  0.00    +0.000 C 
ENDBRANCH  24  31
ENDBRANCH  18  26
ENDBRANCH  17  21
ENDBRANCH   1  17
TORSDOF 7
ENDMDL
MODEL 8
REMARK VINA RESULT:      -7.6      7.546     10.150
REMARK  Name = 
REMARK  7 active torsions:
REMARK  status: ('A' for Active; 'I' for Inactive)
REMARK    1  A    between atoms: C_2  and  C_3
REMARK    2  A    between atoms: C_5  and  C_6
REMARK    3  A    between atoms: C_9  and  C_10
REMARK    4  A    between atoms: C_10  and  C_11
REMARK    5  A    between atoms: C_11  and  C_12
REMARK    6  A    between atoms: C_11  and  N_14
REMARK    7  A    between atoms: C_15  and  C_17
REMARK                            x       y       z     vdW  Elec       q    Type
REMARK                         _______ _______ _______ _____ _____    ______ ____
ROOT
ATOM      1  C   UNL     1       0.533  11.744  20.891  0.00  0.00    +0.000 C 
ENDROOT
BRANCH   1   2
ATOM      2  N   UNL     1      -0.480  12.568  21.556  0.00  0.00    +0.000 N 
ATOM      3  C   UNL     1      -1.070  12.157  22.741  0.00  0.00    +0.000 C 
ATOM      4  O   UNL     1      -0.802  11.080  23.263  0.00  0.00    +0.000 OA
ATOM      5  H   UNL     1      -0.502  13.566  21.362  0.00  0.00    +0.000 HD
BRANCH   3   6
ATOM      6  C   UNL     1      -2.022  13.209  23.370  0.00  0.00    +0.000 C 
ATOM      7  N   UNL     1      -1.860  14.532  22.694  0.00  0.00    +0.000 NA
ATOM      8  C   UNL     1      -3.166  15.024  22.206  0.00  0.00    +0.000 C 
ATOM      9  C   UNL     1      -3.763  13.994  21.232  0.00  0.00    +0.000 C 
ATOM     10  C   UNL     1      -4.087  12.696  21.980  0.00  0.00    +0.000 C 
ATOM     11  C   UNL     1      -3.509  12.773  23.405  0.00  0.00    +0.000 C 
ATOM     12  C   UNL     1      -4.294  13.875  24.146  0.00  0.00    +0.000 C 
ATOM     13  C   UNL     1      -4.107  15.211  23.409  0.00  0.00    +0.000 C 
ATOM     14  H   UNL     1      -1.249  14.425  21.884  0.00  0.00    +0.000 HD
ENDBRANCH   3   6
ENDBRANCH   1   2
BRANCH   1  15
ATOM     15  C   UNL     1       1.582  12.626  20.234  0.00  0.00    +0.000 C 
ATOM     16  N   UNL     1       2.451  13.358  19.687  0.00  0.00    +0.000 NA
ENDBRANCH   1  15
BRANCH   1  17
ATOM     17  C   UNL     1      -0.068  10.785  19.850  0.00  0.00    +0.000 C 
BRANCH  17  21
ATOM     18  C   UNL     1       2.560   7.481  18.742  0.00  0.00    +0.000 A 
ATOM     19  C   UNL     1       2.031   7.597  20.038  0.00  0.00    +0.000 A 
ATOM     20  C   UNL     1       1.190   8.659  20.398  0.00  0.00    +0.000 A 
ATOM     21  C   UNL     1       0.853   9.645  19.466  0.00  0.00    +0.000 A 
ATOM     22  C   UNL     1       1.397   9.559  18.180  0.00  0.00    +0.000 A 
ATOM     23  C   UNL     1       2.226   8.489  17.824  0.00  0.00    +0.000 A 
BRANCH  18  26
ATOM     24  C   UNL     1       4.400   4.176  18.766  0.00  0.00    +0.000 A 
ATOM     25  C   UNL     1       3.553   5.204  19.157  0.00  0.00    +0.000 A 
ATOM     26  C   UNL     1       3.434   6.346  18.356  0.00  0.00    +0.000 A 
ATOM     27  C   UNL     1       4.188   6.371  17.172  0.00  0.00    +0.000 A 
ATOM     28  C   UNL     1       5.001   5.293  16.852  0.00  0.00    +0.000 A 
ATOM     29  N   UNL     1       5.129   4.198  17.623  0.00  0.00    +0.000 NA
BRANCH  24  31
ATOM     30  N   UNL     1       4.702   2.038  20.208  0.00  0.00    +0.000 NA
ATOM     31  C   UNL     1       4.563   3.008  19.590  0.00  0.00    +0.000 C 
ENDBRANCH  24  31
ENDBRANCH  18  26
ENDBRANCH  17  21
ENDBRANCH   1  17
TORSDOF 7
ENDMDL
MODEL 9
REMARK VINA RESULT:      -7.6      7.791     10.698
REMARK  Name = 
REMARK  7 active torsions:
REMARK  status: ('A' for Active; 'I' for Inactive)
REMARK    1  A    between atoms: C_2  and  C_3
REMARK    2  A    between atoms: C_5  and  C_6
REMARK    3  A    between atoms: C_9  and  C_10
REMARK    4  A    between atoms: C_10  and  C_11
REMARK    5  A    between atoms: C_11  and  C_12
REMARK    6  A    between atoms: C_11  and  N_14
REMARK    7  A    between atoms: C_15  and  C_17
REMARK                            x       y       z     vdW  Elec       q    Type
REMARK                         _______ _______ _______ _____ _____    ______ ____
ROOT
ATOM      1  C   UNL     1       0.195  12.392  20.456  0.00  0.00    +0.000 C 
ENDROOT
BRANCH   1   2
ATOM      2  N   UNL     1      -1.210  12.517  20.854  0.00  0.00    +0.000 N 
ATOM      3  C   UNL     1      -1.628  12.160  22.126  0.00  0.00    +0.000 C 
ATOM      4  O   UNL     1      -0.857  11.693  22.957  0.00  0.00    +0.000 OA
ATOM      5  H   UNL     1      -1.804  13.172  20.350  0.00  0.00    +0.000 HD
BRANCH   3   6
ATOM      6  C   UNL     1      -3.119  12.479  22.414  0.00  0.00    +0.000 C 
ATOM      7  N   UNL     1      -3.501  12.004  23.779  0.00  0.00    +0.000 NA
ATOM      8  C   UNL     1      -4.088  13.110  24.565  0.00  0.00    +0.000 C 
ATOM      9  C   UNL     1      -3.067  14.257  24.663  0.00  0.00    +0.000 C 
ATOM     10  C   UNL     1      -2.815  14.852  23.273  0.00  0.00    +0.000 C 
ATOM     11  C   UNL     1      -3.496  13.969  22.212  0.00  0.00    +0.000 C 
ATOM     12  C   UNL     1      -5.017  14.093  22.438  0.00  0.00    +0.000 C 
ATOM     13  C   UNL     1      -5.359  13.604  23.854  0.00  0.00    +0.000 C 
ATOM     14  H   UNL     1      -2.667  11.684  24.271  0.00  0.00    +0.000 HD
ENDBRANCH   3   6
ENDBRANCH   1   2
BRANCH   1  15
ATOM     15  C   UNL     1       0.849  13.763  20.393  0.00  0.00    +0.000 C 
ATOM     16  N   UNL     1       1.393  14.900  20.341  0.00  0.00    +0.000 NA
ENDBRANCH   1  15
BRANCH   1  17
ATOM     17  C   UNL     1       0.372  11.668  19.112  0.00  0.00    +0.000 C 
BRANCH  17  21
ATOM     18  C   UNL     1       2.047   7.654  19.477  0.00  0.00    +0.000 A 
ATOM     19  C   UNL     1       1.404   8.284  20.556  0.00  0.00    +0.000 A 
ATOM     20  C   UNL     1       0.868   9.574  20.443  0.00  0.00    +0.000 A 
ATOM     21  C   UNL     1       0.963  10.279  19.240  0.00  0.00    +0.000 A 
ATOM     22  C   UNL     1       1.628   9.677  18.166  0.00  0.00    +0.000 A 
ATOM     23  C   UNL     1       2.149   8.383  18.282  0.00  0.00    +0.000 A 
BRANCH  18  26
ATOM     24  C   UNL     1       2.598   4.068  20.550  0.00  0.00    +0.000 A 
ATOM     25  C   UNL     1       2.037   5.336  20.461  0.00  0.00    +0.000 A 
ATOM     26  C   UNL     1       2.595   6.281  19.592  0.00  0.00    +0.000 A 
ATOM     27  C   UNL     1       3.706   5.870  18.839  0.00  0.00    +0.000 A 
ATOM     28  C   UNL     1       4.195   4.579  18.981  0.00  0.00    +0.000 A 
ATOM     29  N   UNL     1       3.671   3.670  19.823  0.00  0.00    +0.000 NA
BRANCH  24  31
ATOM     30  N   UNL     1       1.618   2.347  22.229  0.00  0.00    +0.000 NA
ATOM     31  C   UNL     1       2.061   3.093  21.460  0.00  0.00    +0.000 C 
ENDBRANCH  24  31
ENDBRANCH  18  26
ENDBRANCH  17  21
ENDBRANCH   1  17
TORSDOF 7
ENDMDL
