MODEL 1
REMARK VINA RESULT:      -7.1      0.000      0.000
REMARK  Name = 
REMARK  0 active torsions:
REMARK  status: ('A' for Active; 'I' for Inactive)
REMARK                            x       y       z     vdW  Elec       q    Type
REMARK                         _______ _______ _______ _____ _____    ______ ____
ROOT
ATOM      1  C   UNL     1       1.474   3.177  18.206  0.00  0.00    +0.000 A 
ATOM      2  C   UNL     1       1.525   3.843  19.431  0.00  0.00    +0.000 A 
ATOM      3  C   UNL     1       2.625   4.635  19.759  0.00  0.00    +0.000 A 
ATOM      4  C   UNL     1       3.684   4.767  18.857  0.00  0.00    +0.000 A 
ATOM      5  C   UNL     1       3.624   4.110  17.584  0.00  0.00    +0.000 A 
ATOM      6  C   UNL     1       2.516   3.306  17.285  0.00  0.00    +0.000 A 
ATOM      7  C   UNL     1       4.791   4.279  16.657  0.00  0.00    +0.000 A 
ATOM      8  C   UNL     1       4.668   4.283  15.262  0.00  0.00    +0.000 A 
ATOM      9  C   UNL     1       5.792   4.487  14.458  0.00  0.00    +0.000 A 
ATOM     10  C   UNL     1       7.048   4.684  15.035  0.00  0.00    +0.000 A 
ATOM     11  C   UNL     1       7.194   4.696  16.423  0.00  0.00    +0.000 A 
ATOM     12  C   UNL     1       6.079   4.509  17.243  0.00  0.00    +0.000 A 
ATOM     13  C   UNL     1       6.133   4.482  18.755  0.00  0.00    +0.000 C 
ATOM     14  O   UNL     1       6.126   5.446  19.769  0.00  0.00    +0.000 OA
ATOM     15  C   UNL     1       4.908   5.621  19.105  0.00  0.00    +0.000 C 
ENDROOT
TORSDOF 0
ENDMDL
MODEL 2
REMARK VINA RESULT:      -7.1      0.142      4.325
REMARK  Name = 
REMARK  0 active torsions:
REMARK  status: ('A' for Active; 'I' for Inactive)
REMARK                            x       y       z     vdW  Elec       q    Type
REMARK                         _______ _______ _______ _____ _____    ______ ____
ROOT
ATOM      1  C   UNL     1       5.813   4.600  14.452  0.00  0.00    +0.000 A 
ATOM      2  C   UNL     1       7.088   4.691  15.012  0.00  0.00    +0.000 A 
ATOM      3  C   UNL     1       7.257   4.641  16.396  0.00  0.00    +0.000 A 
ATOM      4  C   UNL     1       6.145   4.496  17.230  0.00  0.00    +0.000 A 
ATOM      5  C   UNL     1       4.835   4.370  16.659  0.00  0.00    +0.000 A 
ATOM      6  C   UNL     1       4.691   4.441  15.268  0.00  0.00    +0.000 A 
ATOM      7  C   UNL     1       3.677   4.224  17.600  0.00  0.00    +0.000 A 
ATOM      8  C   UNL     1       2.523   3.495  17.288  0.00  0.00    +0.000 A 
ATOM      9  C   UNL     1       1.497   3.366  18.228  0.00  0.00    +0.000 A 
ATOM     10  C   UNL     1       1.610   3.964  19.484  0.00  0.00    +0.000 A 
ATOM     11  C   UNL     1       2.756   4.686  19.823  0.00  0.00    +0.000 A 
ATOM     12  C   UNL     1       3.798   4.813  18.902  0.00  0.00    +0.000 A 
ATOM     13  C   UNL     1       5.069   5.592  19.161  0.00  0.00    +0.000 C 
ATOM     14  O   UNL     1       6.290   5.324  19.789  0.00  0.00    +0.000 OA
ATOM     15  C   UNL     1       6.222   4.404  18.738  0.00  0.00    +0.000 C 
ENDROOT
TORSDOF 0
ENDMDL
MODEL 3
REMARK VINA RESULT:      -7.0      2.745      4.974
REMARK  Name = 
REMARK  0 active torsions:
REMARK  status: ('A' for Active; 'I' for Inactive)
REMARK                            x       y       z     vdW  Elec       q    Type
REMARK                         _______ _______ _______ _____ _____    ______ ____
ROOT
ATOM      1  C   UNL     1       5.422   5.645  15.837  0.00  0.00    +0.000 A 
ATOM      2  C   UNL     1       5.222   4.286  16.086  0.00  0.00    +0.000 A 
ATOM      3  C   UNL     1       4.279   3.873  17.027  0.00  0.00    +0.000 A 
ATOM      4  C   UNL     1       3.526   4.821  17.725  0.00  0.00    +0.000 A 
ATOM      5  C   UNL     1       3.706   6.217  17.451  0.00  0.00    +0.000 A 
ATOM      6  C   UNL     1       4.671   6.608  16.514  0.00  0.00    +0.000 A 
ATOM      7  C   UNL     1       2.877   7.192  18.233  0.00  0.00    +0.000 A 
ATOM      8  C   UNL     1       2.448   8.421  17.718  0.00  0.00    +0.000 A 
ATOM      9  C   UNL     1       1.644   9.265  18.488  0.00  0.00    +0.000 A 
ATOM     10  C   UNL     1       1.263   8.894  19.779  0.00  0.00    +0.000 A 
ATOM     11  C   UNL     1       1.667   7.668  20.311  0.00  0.00    +0.000 A 
ATOM     12  C   UNL     1       2.459   6.805  19.550  0.00  0.00    +0.000 A 
ATOM     13  C   UNL     1       2.969   5.468  20.040  0.00  0.00    +0.000 C 
ATOM     14  O   UNL     1       2.453   4.169  20.108  0.00  0.00    +0.000 OA
ATOM     15  C   UNL     1       2.463   4.476  18.744  0.00  0.00    +0.000 C 
ENDROOT
TORSDOF 0
ENDMDL
MODEL 4
REMARK VINA RESULT:      -7.0      2.704      3.459
REMARK  Name = 
REMARK  0 active torsions:
REMARK  status: ('A' for Active; 'I' for Inactive)
REMARK                            x       y       z     vdW  Elec       q    Type
REMARK                         _______ _______ _______ _____ _____    ______ ____
ROOT
ATOM      1  C   UNL     1       1.738   9.218  18.513  0.00  0.00    +0.000 A 
ATOM      2  C   UNL     1       1.360   8.811  19.794  0.00  0.00    +0.000 A 
ATOM      3  C   UNL     1       1.754   7.567  20.285  0.00  0.00    +0.000 A 
ATOM      4  C   UNL     1       2.535   6.720  19.494  0.00  0.00    +0.000 A 
ATOM      5  C   UNL     1       2.954   7.145  18.190  0.00  0.00    +0.000 A 
ATOM      6  C   UNL     1       2.530   8.391  17.713  0.00  0.00    +0.000 A 
ATOM      7  C   UNL     1       3.785   6.194  17.382  0.00  0.00    +0.000 A 
ATOM      8  C   UNL     1       4.756   6.613  16.465  0.00  0.00    +0.000 A 
ATOM      9  C   UNL     1       5.524   5.672  15.774  0.00  0.00    +0.000 A 
ATOM     10  C   UNL     1       5.328   4.306  15.987  0.00  0.00    +0.000 A 
ATOM     11  C   UNL     1       4.374   3.863  16.904  0.00  0.00    +0.000 A 
ATOM     12  C   UNL     1       3.608   4.790  17.616  0.00  0.00    +0.000 A 
ATOM     13  C   UNL     1       2.534   4.415  18.613  0.00  0.00    +0.000 C 
ATOM     14  O   UNL     1       2.512   4.068  19.969  0.00  0.00    +0.000 OA
ATOM     15  C   UNL     1       3.036   5.365  19.943  0.00  0.00    +0.000 C 
ENDROOT
TORSDOF 0
ENDMDL
MODEL 5
REMARK VINA RESULT:      -6.9      1.571      1.926
REMARK  Name = 
REMARK  0 active torsions:
REMARK  status: ('A' for Active; 'I' for Inactive)
REMARK                            x       y       z     vdW  Elec       q    Type
REMARK                         _______ _______ _______ _____ _____    ______ ____
ROOT
ATOM      1  C   UNL     1       2.181   1.638  18.533  0.00  0.00    +0.000 A 
ATOM      2  C   UNL     1       1.124   2.434  18.978  0.00  0.00    +0.000 A 
ATOM      3  C   UNL     1       1.182   3.821  18.849  0.00  0.00    +0.000 A 
ATOM      4  C   UNL     1       2.302   4.422  18.268  0.00  0.00    +0.000 A 
ATOM      5  C   UNL     1       3.376   3.608  17.780  0.00  0.00    +0.000 A 
ATOM      6  C   UNL     1       3.302   2.218  17.937  0.00  0.00    +0.000 A 
ATOM      7  C   UNL     1       4.557   4.305  17.172  0.00  0.00    +0.000 A 
ATOM      8  C   UNL     1       5.326   3.752  16.141  0.00  0.00    +0.000 A 
ATOM      9  C   UNL     1       6.389   4.474  15.592  0.00  0.00    +0.000 A 
ATOM     10  C   UNL     1       6.697   5.750  16.067  0.00  0.00    +0.000 A 
ATOM     11  C   UNL     1       5.937   6.328  17.085  0.00  0.00    +0.000 A 
ATOM     12  C   UNL     1       4.861   5.627  17.636  0.00  0.00    +0.000 A 
ATOM     13  C   UNL     1       3.991   6.153  18.756  0.00  0.00    +0.000 C 
ATOM     14  O   UNL     1       2.874   6.991  18.840  0.00  0.00    +0.000 OA
ATOM     15  C   UNL     1       2.450   5.913  18.058  0.00  0.00    +0.000 C 
ENDROOT
TORSDOF 0
ENDMDL
MODEL 6
REMARK VINA RESULT:      -6.9      1.898      4.780
REMARK  Name = 
REMARK  0 active torsions:
REMARK  status: ('A' for Active; 'I' for Inactive)
REMARK                            x       y       z     vdW  Elec       q    Type
REMARK                         _______ _______ _______ _____ _____    ______ ____
ROOT
ATOM      1  C   UNL     1       5.563   4.056  15.547  0.00  0.00    +0.000 A 
ATOM      2  C   UNL     1       5.692   5.410  15.236  0.00  0.00    +0.000 A 
ATOM      3  C   UNL     1       5.096   6.380  16.043  0.00  0.00    +0.000 A 
ATOM      4  C   UNL     1       4.367   5.996  17.172  0.00  0.00    +0.000 A 
ATOM      5  C   UNL     1       4.258   4.608  17.514  0.00  0.00    +0.000 A 
ATOM      6  C   UNL     1       4.851   3.653  16.678  0.00  0.00    +0.000 A 
ATOM      7  C   UNL     1       3.459   4.251  18.732  0.00  0.00    +0.000 A 
ATOM      8  C   UNL     1       3.747   3.146  19.541  0.00  0.00    +0.000 A 
ATOM      9  C   UNL     1       2.985   2.895  20.686  0.00  0.00    +0.000 A 
ATOM     10  C   UNL     1       1.929   3.740  21.032  0.00  0.00    +0.000 A 
ATOM     11  C   UNL     1       1.631   4.855  20.248  0.00  0.00    +0.000 A 
ATOM     12  C   UNL     1       2.390   5.131  19.108  0.00  0.00    +0.000 A 
ATOM     13  C   UNL     1       2.135   6.298  18.180  0.00  0.00    +0.000 C 
ATOM     14  O   UNL     1       2.488   7.652  18.163  0.00  0.00    +0.000 OA
ATOM     15  C   UNL     1       3.707   6.967  18.125  0.00  0.00    +0.000 C 
ENDROOT
TORSDOF 0
ENDMDL
MODEL 7
REMARK VINA RESULT:      -6.9      1.893      2.363
REMARK  Name = 
REMARK  0 active torsions:
REMARK  status: ('A' for Active; 'I' for Inactive)
REMARK                            x       y       z     vdW  Elec       q    Type
REMARK                         _______ _______ _______ _____ _____    ______ ____
ROOT
ATOM      1  C   UNL     1       2.942   2.857  20.648  0.00  0.00    +0.000 A 
ATOM      2  C   UNL     1       1.892   3.703  21.007  0.00  0.00    +0.000 A 
ATOM      3  C   UNL     1       1.612   4.840  20.249  0.00  0.00    +0.000 A 
ATOM      4  C   UNL     1       2.383   5.136  19.122  0.00  0.00    +0.000 A 
ATOM      5  C   UNL     1       3.443   4.253  18.731  0.00  0.00    +0.000 A 
ATOM      6  C   UNL     1       3.716   3.128  19.518  0.00  0.00    +0.000 A 
ATOM      7  C   UNL     1       4.244   4.623  17.518  0.00  0.00    +0.000 A 
ATOM      8  C   UNL     1       4.819   3.676  16.661  0.00  0.00    +0.000 A 
ATOM      9  C   UNL     1       5.519   4.089  15.525  0.00  0.00    +0.000 A 
ATOM     10  C   UNL     1       5.656   5.447  15.234  0.00  0.00    +0.000 A 
ATOM     11  C   UNL     1       5.081   6.410  16.065  0.00  0.00    +0.000 A 
ATOM     12  C   UNL     1       4.365   6.015  17.198  0.00  0.00    +0.000 A 
ATOM     13  C   UNL     1       3.725   6.977  18.174  0.00  0.00    +0.000 C 
ATOM     14  O   UNL     1       2.514   7.676  18.235  0.00  0.00    +0.000 OA
ATOM     15  C   UNL     1       2.145   6.327  18.221  0.00  0.00    +0.000 C 
ENDROOT
TORSDOF 0
ENDMDL
MODEL 8
REMARK VINA RESULT:      -6.9      1.572      4.552
REMARK  Name = 
REMARK  0 active torsions:
REMARK  status: ('A' for Active; 'I' for Inactive)
REMARK                            x       y       z     vdW  Elec       q    Type
REMARK                         _______ _______ _______ _____ _____    ______ ____
ROOT
ATOM      1  C   UNL     1       6.345   4.317  15.385  0.00  0.00    +0.000 A 
ATOM      2  C   UNL     1       6.684   5.605  15.802  0.00  0.00    +0.000 A 
ATOM      3  C   UNL     1       5.962   6.232  16.817  0.00  0.00    +0.000 A 
ATOM      4  C   UNL     1       4.892   5.568  17.425  0.00  0.00    +0.000 A 
ATOM      5  C   UNL     1       4.559   4.233  17.022  0.00  0.00    +0.000 A 
ATOM      6  C   UNL     1       5.288   3.632  15.989  0.00  0.00    +0.000 A 
ATOM      7  C   UNL     1       3.398   3.571  17.702  0.00  0.00    +0.000 A 
ATOM      8  C   UNL     1       3.324   2.190  17.921  0.00  0.00    +0.000 A 
ATOM      9  C   UNL     1       2.230   1.643  18.598  0.00  0.00    +0.000 A 
ATOM     10  C   UNL     1       1.200   2.466  19.059  0.00  0.00    +0.000 A 
ATOM     11  C   UNL     1       1.257   3.846  18.863  0.00  0.00    +0.000 A 
ATOM     12  C   UNL     1       2.350   4.413  18.202  0.00  0.00    +0.000 A 
ATOM     13  C   UNL     1       2.496   5.892  17.919  0.00  0.00    +0.000 C 
ATOM     14  O   UNL     1       2.959   7.002  18.635  0.00  0.00    +0.000 OA
ATOM     15  C   UNL     1       4.064   6.149  18.550  0.00  0.00    +0.000 C 
ENDROOT
TORSDOF 0
ENDMDL
MODEL 9
REMARK VINA RESULT:      -6.8      1.936      4.977
REMARK  Name = 
REMARK  0 active torsions:
REMARK  status: ('A' for Active; 'I' for Inactive)
REMARK                            x       y       z     vdW  Elec       q    Type
REMARK                         _______ _______ _______ _____ _____    ______ ____
ROOT
ATOM      1  C   UNL     1       5.437   6.536  16.385  0.00  0.00    +0.000 A 
ATOM      2  C   UNL     1       5.600   5.476  15.492  0.00  0.00    +0.000 A 
ATOM      3  C   UNL     1       4.999   4.243  15.742  0.00  0.00    +0.000 A 
ATOM      4  C   UNL     1       4.226   4.064  16.893  0.00  0.00    +0.000 A 
ATOM      5  C   UNL     1       4.029   5.158  17.798  0.00  0.00    +0.000 A 
ATOM      6  C   UNL     1       4.658   6.382  17.533  0.00  0.00    +0.000 A 
ATOM      7  C   UNL     1       3.197   4.909  19.020  0.00  0.00    +0.000 A 
ATOM      8  C   UNL     1       2.406   5.895  19.623  0.00  0.00    +0.000 A 
ATOM      9  C   UNL     1       1.623   5.584  20.738  0.00  0.00    +0.000 A 
ATOM     10  C   UNL     1       1.623   4.290  21.263  0.00  0.00    +0.000 A 
ATOM     11  C   UNL     1       2.393   3.287  20.672  0.00  0.00    +0.000 A 
ATOM     12  C   UNL     1       3.171   3.576  19.548  0.00  0.00    +0.000 A 
ATOM     13  C   UNL     1       4.057   2.569  18.849  0.00  0.00    +0.000 C 
ATOM     14  O   UNL     1       3.867   1.582  17.875  0.00  0.00    +0.000 OA
ATOM     15  C   UNL     1       3.512   2.777  17.242  0.00  0.00    +0.000 C 
ENDROOT
TORSDOF 0
ENDMDL
