MODEL 1
REMARK VINA RESULT:      -7.7      0.000      0.000
REMARK  Name = 
REMARK  15 active torsions:
REMARK  status: ('A' for Active; 'I' for Inactive)
REMARK    1  A    between atoms: C_1  and  C_2
REMARK    2  A    between atoms: C_2  and  C_3
REMARK    3  A    between atoms: C_3  and  C_4
REMARK    4  A    between atoms: C_4  and  N_5
REMARK    5  A    between atoms: N_5  and  C_6
REMARK    6  A    between atoms: C_6  and  C_7
REMARK    7  A    between atoms: C_6  and  C_8
REMARK    8  A    between atoms: C_12  and  C_14
REMARK    9  A    between atoms: C_14  and  C_15
REMARK   10  A    between atoms: C_14  and  N_18
REMARK   11  A    between atoms: C_15  and  C_16
REMARK   12  A    between atoms: C_16  and  C_17
REMARK   13  A    between atoms: C_19  and  C_21
REMARK   14  A    between atoms: C_21  and  C_22
REMARK   15  A    between atoms: C_31  and  C_32
REMARK                            x       y       z     vdW  Elec       q    Type
REMARK                         _______ _______ _______ _____ _____    ______ ____
ROOT
ATOM      1  C   UNL     1       2.983   4.013  19.061  0.00  0.00    +0.000 A 
ATOM      2  S   UNL     1       2.493   5.618  18.696  0.00  0.00    +0.000 S 
ATOM      3  C   UNL     1       2.071   5.869  20.318  0.00  0.00    +0.000 A 
ATOM      4  N   UNL     1       1.582   7.063  20.773  0.00  0.00    +0.000 N 
ATOM      5  C   UNL     1       1.502   8.246  20.072  0.00  0.00    +0.000 C 
ATOM      6  O   UNL     1       1.976   8.451  18.957  0.00  0.00    +0.000 OA
ATOM      7  N   UNL     1       2.211   4.838  21.115  0.00  0.00    +0.000 NA
ATOM      8  C   UNL     1       2.768   3.771  20.413  0.00  0.00    +0.000 A 
ATOM      9  C   UNL     1       3.083   2.530  21.170  0.00  0.00    +0.000 C 
ATOM     10  H   UNL     1       1.234   7.024  21.716  0.00  0.00    +0.000 HD
ENDROOT
BRANCH   1  11
ATOM     11  C   UNL     1       3.562   3.162  17.960  0.00  0.00    +0.000 C 
ATOM     12  C   UNL     1       3.311   1.675  18.229  0.00  0.00    +0.000 C 
BRANCH  11  13
ATOM     13  N   UNL     1       4.988   3.486  17.796  0.00  0.00    +0.000 NA
ATOM     14  H   UNL     1       5.163   4.373  18.274  0.00  0.00    +0.000 HD
BRANCH  13  15
ATOM     15  C   UNL     1       5.363   3.636  16.390  0.00  0.00    +0.000 C 
BRANCH  15  16
ATOM     16  C   UNL     1       6.069   4.974  16.169  0.00  0.00    +0.000 C 
BRANCH  16  18
ATOM     17  C   UNL     1       6.041   3.969  13.855  0.00  0.00    +0.000 C 
ATOM     18  C   UNL     1       6.269   5.227  14.675  0.00  0.00    +0.000 C 
ENDBRANCH  16  18
ENDBRANCH  15  16
ENDBRANCH  13  15
ENDBRANCH  11  13
ENDBRANCH   1  11
BRANCH   5  19
ATOM     19  C   UNL     1       0.811   9.398  20.849  0.00  0.00    +0.000 C 
BRANCH  19  20
ATOM     20  N   UNL     1       0.148  10.340  19.926  0.00  0.00    +0.000 N 
ATOM     21  C   UNL     1       0.601  11.642  19.816  0.00  0.00    +0.000 C 
ATOM     22  O   UNL     1       1.527  12.071  20.498  0.00  0.00    +0.000 OA
ATOM     23  H   UNL     1      -0.561   9.989  19.295  0.00  0.00    +0.000 HD
BRANCH  21  24
ATOM     24  C   UNL     1      -0.119  12.494  18.783  0.00  0.00    +0.000 C 
BRANCH  24  25
ATOM     25  C   UNL     1      -1.616  12.282  18.743  0.00  0.00    +0.000 A 
ATOM     26  C   UNL     1      -2.218  11.657  17.641  0.00  0.00    +0.000 A 
ATOM     27  C   UNL     1      -3.588  11.402  17.637  0.00  0.00    +0.000 A 
ATOM     28  F   UNL     1      -4.138  10.784  16.582  0.00  0.00    +0.000 F 
ATOM     29  C   UNL     1      -4.393  11.757  18.712  0.00  0.00    +0.000 A 
ATOM     30  C   UNL     1      -3.803  12.381  19.799  0.00  0.00    +0.000 A 
ATOM     31  F   UNL     1      -4.560  12.723  20.850  0.00  0.00    +0.000 F 
ATOM     32  C   UNL     1      -2.433  12.643  19.827  0.00  0.00    +0.000 A 
ENDBRANCH  24  25
ENDBRANCH  21  24
ENDBRANCH  19  20
BRANCH  19  33
ATOM     33  C   UNL     1      -0.193   8.891  21.903  0.00  0.00    +0.000 C 
BRANCH  33  34
ATOM     34  C   UNL     1      -0.251   9.749  23.175  0.00  0.00    +0.000 C 
ATOM     35  C   UNL     1      -1.130  10.980  23.007  0.00  0.00    +0.000 C 
ENDBRANCH  33  34
ENDBRANCH  19  33
ENDBRANCH   5  19
TORSDOF 11
ENDMDL
MODEL 2
REMARK VINA RESULT:      -7.6      3.985      9.441
REMARK  Name = 
REMARK  15 active torsions:
REMARK  status: ('A' for Active; 'I' for Inactive)
REMARK    1  A    between atoms: C_1  and  C_2
REMARK    2  A    between atoms: C_2  and  C_3
REMARK    3  A    between atoms: C_3  and  C_4
REMARK    4  A    between atoms: C_4  and  N_5
REMARK    5  A    between atoms: N_5  and  C_6
REMARK    6  A    between atoms: C_6  and  C_7
REMARK    7  A    between atoms: C_6  and  C_8
REMARK    8  A    between atoms: C_12  and  C_14
REMARK    9  A    between atoms: C_14  and  C_15
REMARK   10  A    between atoms: C_14  and  N_18
REMARK   11  A    between atoms: C_15  and  C_16
REMARK   12  A    between atoms: C_16  and  C_17
REMARK   13  A    between atoms: C_19  and  C_21
REMARK   14  A    between atoms: C_21  and  C_22
REMARK   15  A    between atoms: C_31  and  C_32
REMARK                            x       y       z     vdW  Elec       q    Type
REMARK                         _______ _______ _______ _____ _____    ______ ____
ROOT
ATOM      1  C   UNL     1       0.915  10.917  19.715  0.00  0.00    +0.000 A 
ATOM      2  S   UNL     1       0.816   9.291  20.259  0.00  0.00    +0.000 S 
ATOM      3  C   UNL     1       1.824   8.795  18.991  0.00  0.00    +0.000 A 
ATOM      4  N   UNL     1       2.209   7.493  18.825  0.00  0.00    +0.000 N 
ATOM      5  C   UNL     1       1.992   6.448  19.696  0.00  0.00    +0.000 C 
ATOM      6  O   UNL     1       1.521   6.545  20.827  0.00  0.00    +0.000 OA
ATOM      7  N   UNL     1       2.195   9.730  18.151  0.00  0.00    +0.000 NA
ATOM      8  C   UNL     1       1.706  10.965  18.574  0.00  0.00    +0.000 A 
ATOM      9  C   UNL     1       2.092  12.170  17.792  0.00  0.00    +0.000 C 
ATOM     10  H   UNL     1       2.679   7.318  17.953  0.00  0.00    +0.000 HD
ENDROOT
BRANCH   1  11
ATOM     11  C   UNL     1       0.210  11.991  20.504  0.00  0.00    +0.000 C 
ATOM     12  C   UNL     1      -0.415  11.413  21.778  0.00  0.00    +0.000 C 
BRANCH  11  13
ATOM     13  N   UNL     1      -0.769  12.665  19.636  0.00  0.00    +0.000 NA
ATOM     14  H   UNL     1      -0.713  13.669  19.826  0.00  0.00    +0.000 HD
BRANCH  13  15
ATOM     15  C   UNL     1      -2.138  12.220  19.896  0.00  0.00    +0.000 C 
BRANCH  15  16
ATOM     16  C   UNL     1      -2.797  11.748  18.598  0.00  0.00    +0.000 C 
BRANCH  16  18
ATOM     17  C   UNL     1      -1.687  10.102  17.041  0.00  0.00    +0.000 C 
ATOM     18  C   UNL     1      -2.459  10.280  18.336  0.00  0.00    +0.000 C 
ENDBRANCH  16  18
ENDBRANCH  15  16
ENDBRANCH  13  15
ENDBRANCH  11  13
ENDBRANCH   1  11
BRANCH   5  19
ATOM     19  C   UNL     1       2.478   5.072  19.170  0.00  0.00    +0.000 C 
BRANCH  19  20
ATOM     20  N   UNL     1       3.719   5.211  18.383  0.00  0.00    +0.000 N 
ATOM     21  C   UNL     1       3.943   4.397  17.287  0.00  0.00    +0.000 C 
ATOM     22  O   UNL     1       3.155   3.516  16.956  0.00  0.00    +0.000 OA
ATOM     23  H   UNL     1       4.342   5.981  18.586  0.00  0.00    +0.000 HD
BRANCH  21  24
ATOM     24  C   UNL     1       5.223   4.683  16.519  0.00  0.00    +0.000 C 
BRANCH  24  25
ATOM     25  C   UNL     1       6.214   5.545  17.268  0.00  0.00    +0.000 A 
ATOM     26  C   UNL     1       7.001   4.999  18.293  0.00  0.00    +0.000 A 
ATOM     27  C   UNL     1       7.961   5.778  18.936  0.00  0.00    +0.000 A 
ATOM     28  F   UNL     1       8.715   5.230  19.899  0.00  0.00    +0.000 F 
ATOM     29  C   UNL     1       8.166   7.107  18.587  0.00  0.00    +0.000 A 
ATOM     30  C   UNL     1       7.387   7.651  17.579  0.00  0.00    +0.000 A 
ATOM     31  F   UNL     1       7.576   8.928  17.220  0.00  0.00    +0.000 F 
ATOM     32  C   UNL     1       6.422   6.889  16.919  0.00  0.00    +0.000 A 
ENDBRANCH  24  25
ENDBRANCH  21  24
ENDBRANCH  19  20
BRANCH  19  33
ATOM     33  C   UNL     1       2.675   4.037  20.295  0.00  0.00    +0.000 C 
BRANCH  33  34
ATOM     34  C   UNL     1       1.509   3.049  20.448  0.00  0.00    +0.000 C 
ATOM     35  C   UNL     1       1.418   2.468  21.852  0.00  0.00    +0.000 C 
ENDBRANCH  33  34
ENDBRANCH  19  33
ENDBRANCH   5  19
TORSDOF 11
ENDMDL
MODEL 3
REMARK VINA RESULT:      -7.5      3.159      9.136
REMARK  Name = 
REMARK  15 active torsions:
REMARK  status: ('A' for Active; 'I' for Inactive)
REMARK    1  A    between atoms: C_1  and  C_2
REMARK    2  A    between atoms: C_2  and  C_3
REMARK    3  A    between atoms: C_3  and  C_4
REMARK    4  A    between atoms: C_4  and  N_5
REMARK    5  A    between atoms: N_5  and  C_6
REMARK    6  A    between atoms: C_6  and  C_7
REMARK    7  A    between atoms: C_6  and  C_8
REMARK    8  A    between atoms: C_12  and  C_14
REMARK    9  A    between atoms: C_14  and  C_15
REMARK   10  A    between atoms: C_14  and  N_18
REMARK   11  A    between atoms: C_15  and  C_16
REMARK   12  A    between atoms: C_16  and  C_17
REMARK   13  A    between atoms: C_19  and  C_21
REMARK   14  A    between atoms: C_21  and  C_22
REMARK   15  A    between atoms: C_31  and  C_32
REMARK                            x       y       z     vdW  Elec       q    Type
REMARK                         _______ _______ _______ _____ _____    ______ ____
ROOT
ATOM      1  C   UNL     1       1.068   9.818  19.103  0.00  0.00    +0.000 A 
ATOM      2  S   UNL     1       2.213   9.375  17.904  0.00  0.00    +0.000 S 
ATOM      3  C   UNL     1       2.574   7.956  18.757  0.00  0.00    +0.000 A 
ATOM      4  N   UNL     1       3.481   7.038  18.306  0.00  0.00    +0.000 N 
ATOM      5  C   UNL     1       4.106   7.026  17.078  0.00  0.00    +0.000 C 
ATOM      6  O   UNL     1       3.851   7.774  16.138  0.00  0.00    +0.000 OA
ATOM      7  N   UNL     1       1.951   7.798  19.899  0.00  0.00    +0.000 NA
ATOM      8  C   UNL     1       1.054   8.847  20.098  0.00  0.00    +0.000 A 
ATOM      9  C   UNL     1       0.188   8.802  21.306  0.00  0.00    +0.000 C 
ATOM     10  H   UNL     1       3.706   6.326  18.980  0.00  0.00    +0.000 HD
ENDROOT
BRANCH   1  11
ATOM     11  C   UNL     1       0.273  11.085  18.916  0.00  0.00    +0.000 C 
ATOM     12  C   UNL     1       0.649  12.128  19.973  0.00  0.00    +0.000 C 
BRANCH  11  13
ATOM     13  N   UNL     1      -1.162  10.761  18.910  0.00  0.00    +0.000 NA
ATOM     14  H   UNL     1      -1.341  10.127  19.692  0.00  0.00    +0.000 HD
BRANCH  13  15
ATOM     15  C   UNL     1      -1.575  10.099  17.673  0.00  0.00    +0.000 C 
BRANCH  15  16
ATOM     16  C   UNL     1      -2.514  11.005  16.874  0.00  0.00    +0.000 C 
BRANCH  16  18
ATOM     17  C   UNL     1      -4.865  10.805  17.768  0.00  0.00    +0.000 C 
ATOM     18  C   UNL     1      -3.577  11.608  17.793  0.00  0.00    +0.000 C 
ENDBRANCH  16  18
ENDBRANCH  15  16
ENDBRANCH  13  15
ENDBRANCH  11  13
ENDBRANCH   1  11
BRANCH   5  19
ATOM     19  C   UNL     1       5.153   5.893  16.910  0.00  0.00    +0.000 C 
BRANCH  19  20
ATOM     20  N   UNL     1       4.726   4.665  17.608  0.00  0.00    +0.000 N 
ATOM     21  C   UNL     1       5.379   4.253  18.755  0.00  0.00    +0.000 C 
ATOM     22  O   UNL     1       6.347   4.857  19.208  0.00  0.00    +0.000 OA
ATOM     23  H   UNL     1       3.882   4.198  17.302  0.00  0.00    +0.000 HD
BRANCH  21  24
ATOM     24  C   UNL     1       4.802   3.013  19.420  0.00  0.00    +0.000 C 
BRANCH  24  25
ATOM     25  C   UNL     1       3.297   3.034  19.568  0.00  0.00    +0.000 A 
ATOM     26  C   UNL     1       2.665   4.074  20.265  0.00  0.00    +0.000 A 
ATOM     27  C   UNL     1       1.274   4.127  20.341  0.00  0.00    +0.000 A 
ATOM     28  F   UNL     1       0.690   5.141  20.995  0.00  0.00    +0.000 F 
ATOM     29  C   UNL     1       0.479   3.162  19.738  0.00  0.00    +0.000 A 
ATOM     30  C   UNL     1       1.100   2.129  19.053  0.00  0.00    +0.000 A 
ATOM     31  F   UNL     1       0.351   1.194  18.455  0.00  0.00    +0.000 F 
ATOM     32  C   UNL     1       2.491   2.058  18.960  0.00  0.00    +0.000 A 
ENDBRANCH  24  25
ENDBRANCH  21  24
ENDBRANCH  19  20
BRANCH  19  33
ATOM     33  C   UNL     1       5.468   5.584  15.433  0.00  0.00    +0.000 C 
BRANCH  33  34
ATOM     34  C   UNL     1       5.927   4.140  15.181  0.00  0.00    +0.000 C 
ATOM     35  C   UNL     1       6.205   3.866  13.710  0.00  0.00    +0.000 C 
ENDBRANCH  33  34
ENDBRANCH  19  33
ENDBRANCH   5  19
TORSDOF 11
ENDMDL
MODEL 4
REMARK VINA RESULT:      -7.5      4.062      9.305
REMARK  Name = 
REMARK  15 active torsions:
REMARK  status: ('A' for Active; 'I' for Inactive)
REMARK    1  A    between atoms: C_1  and  C_2
REMARK    2  A    between atoms: C_2  and  C_3
REMARK    3  A    between atoms: C_3  and  C_4
REMARK    4  A    between atoms: C_4  and  N_5
REMARK    5  A    between atoms: N_5  and  C_6
REMARK    6  A    between atoms: C_6  and  C_7
REMARK    7  A    between atoms: C_6  and  C_8
REMARK    8  A    between atoms: C_12  and  C_14
REMARK    9  A    between atoms: C_14  and  C_15
REMARK   10  A    between atoms: C_14  and  N_18
REMARK   11  A    between atoms: C_15  and  C_16
REMARK   12  A    between atoms: C_16  and  C_17
REMARK   13  A    between atoms: C_19  and  C_21
REMARK   14  A    between atoms: C_21  and  C_22
REMARK   15  A    between atoms: C_31  and  C_32
REMARK                            x       y       z     vdW  Elec       q    Type
REMARK                         _______ _______ _______ _____ _____    ______ ____
ROOT
ATOM      1  C   UNL     1       0.516  10.707  21.043  0.00  0.00    +0.000 A 
ATOM      2  S   UNL     1       1.422   9.700  19.987  0.00  0.00    +0.000 S 
ATOM      3  C   UNL     1       1.072   8.353  20.953  0.00  0.00    +0.000 A 
ATOM      4  N   UNL     1       1.511   7.095  20.646  0.00  0.00    +0.000 N 
ATOM      5  C   UNL     1       2.140   6.697  19.486  0.00  0.00    +0.000 C 
ATOM      6  O   UNL     1       2.295   7.390  18.484  0.00  0.00    +0.000 OA
ATOM      7  N   UNL     1       0.376   8.589  22.038  0.00  0.00    +0.000 NA
ATOM      8  C   UNL     1       0.019   9.936  22.087  0.00  0.00    +0.000 A 
ATOM      9  C   UNL     1      -0.850  10.384  23.208  0.00  0.00    +0.000 C 
ATOM     10  H   UNL     1       1.360   6.423  21.380  0.00  0.00    +0.000 HD
ENDROOT
BRANCH   1  11
ATOM     11  C   UNL     1       0.370  12.168  20.706  0.00  0.00    +0.000 C 
ATOM     12  C   UNL     1      -1.053  12.481  20.233  0.00  0.00    +0.000 C 
BRANCH  11  13
ATOM     13  N   UNL     1       1.399  12.544  19.724  0.00  0.00    +0.000 NA
ATOM     14  H   UNL     1       2.154  13.015  20.229  0.00  0.00    +0.000 HD
BRANCH  13  15
ATOM     15  C   UNL     1       0.884  13.458  18.705  0.00  0.00    +0.000 C 
BRANCH  15  16
ATOM     16  C   UNL     1       1.744  14.721  18.641  0.00  0.00    +0.000 C 
BRANCH  16  18
ATOM     17  C   UNL     1       3.799  15.665  17.521  0.00  0.00    +0.000 C 
ATOM     18  C   UNL     1       3.100  14.408  18.009  0.00  0.00    +0.000 C 
ENDBRANCH  16  18
ENDBRANCH  15  16
ENDBRANCH  13  15
ENDBRANCH  11  13
ENDBRANCH   1  11
BRANCH   5  19
ATOM     19  C   UNL     1       2.593   5.214  19.487  0.00  0.00    +0.000 C 
BRANCH  19  20
ATOM     20  N   UNL     1       3.853   5.041  18.737  0.00  0.00    +0.000 N 
ATOM     21  C   UNL     1       3.849   4.412  17.506  0.00  0.00    +0.000 C 
ATOM     22  O   UNL     1       2.827   3.943  17.015  0.00  0.00    +0.000 OA
ATOM     23  H   UNL     1       4.692   5.491  19.081  0.00  0.00    +0.000 HD
BRANCH  21  24
ATOM     24  C   UNL     1       5.196   4.357  16.801  0.00  0.00    +0.000 C 
BRANCH  24  25
ATOM     25  C   UNL     1       6.245   5.263  17.404  0.00  0.00    +0.000 A 
ATOM     26  C   UNL     1       6.372   6.592  16.974  0.00  0.00    +0.000 A 
ATOM     27  C   UNL     1       7.294   7.444  17.579  0.00  0.00    +0.000 A 
ATOM     28  F   UNL     1       7.384   8.716  17.165  0.00  0.00    +0.000 F 
ATOM     29  C   UNL     1       8.110   7.009  18.615  0.00  0.00    +0.000 A 
ATOM     30  C   UNL     1       7.992   5.695  19.039  0.00  0.00    +0.000 A 
ATOM     31  F   UNL     1       8.762   5.258  20.044  0.00  0.00    +0.000 F 
ATOM     32  C   UNL     1       7.073   4.825  18.451  0.00  0.00    +0.000 A 
ENDBRANCH  24  25
ENDBRANCH  21  24
ENDBRANCH  19  20
BRANCH  19  33
ATOM     33  C   UNL     1       2.737   4.633  20.908  0.00  0.00    +0.000 C 
BRANCH  33  34
ATOM     34  C   UNL     1       1.836   3.420  21.182  0.00  0.00    +0.000 C 
ATOM     35  C   UNL     1       0.826   3.182  20.069  0.00  0.00    +0.000 C 
ENDBRANCH  33  34
ENDBRANCH  19  33
ENDBRANCH   5  19
TORSDOF 11
ENDMDL
MODEL 5
REMARK VINA RESULT:      -7.5      3.416      9.034
REMARK  Name = 
REMARK  15 active torsions:
REMARK  status: ('A' for Active; 'I' for Inactive)
REMARK    1  A    between atoms: C_1  and  C_2
REMARK    2  A    between atoms: C_2  and  C_3
REMARK    3  A    between atoms: C_3  and  C_4
REMARK    4  A    between atoms: C_4  and  N_5
REMARK    5  A    between atoms: N_5  and  C_6
REMARK    6  A    between atoms: C_6  and  C_7
REMARK    7  A    between atoms: C_6  and  C_8
REMARK    8  A    between atoms: C_12  and  C_14
REMARK    9  A    between atoms: C_14  and  C_15
REMARK   10  A    between atoms: C_14  and  N_18
REMARK   11  A    between atoms: C_15  and  C_16
REMARK   12  A    between atoms: C_16  and  C_17
REMARK   13  A    between atoms: C_19  and  C_21
REMARK   14  A    between atoms: C_21  and  C_22
REMARK   15  A    between atoms: C_31  and  C_32
REMARK                            x       y       z     vdW  Elec       q    Type
REMARK                         _______ _______ _______ _____ _____    ______ ____
ROOT
ATOM      1  C   UNL     1       0.985   9.796  19.134  0.00  0.00    +0.000 A 
ATOM      2  S   UNL     1       2.154   9.377  17.947  0.00  0.00    +0.000 S 
ATOM      3  C   UNL     1       2.544   7.973  18.812  0.00  0.00    +0.000 A 
ATOM      4  N   UNL     1       3.480   7.077  18.374  0.00  0.00    +0.000 N 
ATOM      5  C   UNL     1       4.116   7.075  17.152  0.00  0.00    +0.000 C 
ATOM      6  O   UNL     1       3.850   7.812  16.206  0.00  0.00    +0.000 OA
ATOM      7  N   UNL     1       1.914   7.805  19.949  0.00  0.00    +0.000 NA
ATOM      8  C   UNL     1       0.989   8.830  20.133  0.00  0.00    +0.000 A 
ATOM      9  C   UNL     1       0.113   8.769  21.333  0.00  0.00    +0.000 C 
ATOM     10  H   UNL     1       3.717   6.375  19.055  0.00  0.00    +0.000 HD
ENDROOT
BRANCH   1  11
ATOM     11  C   UNL     1       0.160  11.041  18.932  0.00  0.00    +0.000 C 
ATOM     12  C   UNL     1      -1.193  10.703  18.297  0.00  0.00    +0.000 C 
BRANCH  11  13
ATOM     13  N   UNL     1       0.936  12.017  18.150  0.00  0.00    +0.000 NA
ATOM     14  H   UNL     1       1.612  11.496  17.586  0.00  0.00    +0.000 HD
BRANCH  13  15
ATOM     15  C   UNL     1       1.667  12.952  19.003  0.00  0.00    +0.000 C 
BRANCH  15  16
ATOM     16  C   UNL     1       2.628  13.796  18.163  0.00  0.00    +0.000 C 
BRANCH  16  18
ATOM     17  C   UNL     1       3.389  16.153  17.680  0.00  0.00    +0.000 C 
ATOM     18  C   UNL     1       2.385  15.285  18.417  0.00  0.00    +0.000 C 
ENDBRANCH  16  18
ENDBRANCH  15  16
ENDBRANCH  13  15
ENDBRANCH  11  13
ENDBRANCH   1  11
BRANCH   5  19
ATOM     19  C   UNL     1       5.195   5.970  17.001  0.00  0.00    +0.000 C 
BRANCH  19  20
ATOM     20  N   UNL     1       4.763   4.713  17.643  0.00  0.00    +0.000 N 
ATOM     21  C   UNL     1       5.388   4.269  18.794  0.00  0.00    +0.000 C 
ATOM     22  O   UNL     1       6.335   4.868  19.295  0.00  0.00    +0.000 OA
ATOM     23  H   UNL     1       3.934   4.247  17.297  0.00  0.00    +0.000 HD
BRANCH  21  24
ATOM     24  C   UNL     1       4.809   3.000  19.398  0.00  0.00    +0.000 C 
BRANCH  24  25
ATOM     25  C   UNL     1       3.305   3.021  19.556  0.00  0.00    +0.000 A 
ATOM     26  C   UNL     1       2.676   4.063  20.253  0.00  0.00    +0.000 A 
ATOM     27  C   UNL     1       1.286   4.115  20.338  0.00  0.00    +0.000 A 
ATOM     28  F   UNL     1       0.706   5.132  20.992  0.00  0.00    +0.000 F 
ATOM     29  C   UNL     1       0.488   3.147  19.743  0.00  0.00    +0.000 A 
ATOM     30  C   UNL     1       1.106   2.113  19.058  0.00  0.00    +0.000 A 
ATOM     31  F   UNL     1       0.354   1.174  18.468  0.00  0.00    +0.000 F 
ATOM     32  C   UNL     1       2.496   2.042  18.957  0.00  0.00    +0.000 A 
ENDBRANCH  24  25
ENDBRANCH  21  24
ENDBRANCH  19  20
BRANCH  19  33
ATOM     33  C   UNL     1       5.583   5.710  15.532  0.00  0.00    +0.000 C 
BRANCH  33  34
ATOM     34  C   UNL     1       5.390   4.254  15.082  0.00  0.00    +0.000 C 
ATOM     35  C   UNL     1       6.275   3.888  13.899  0.00  0.00    +0.000 C 
ENDBRANCH  33  34
ENDBRANCH  19  33
ENDBRANCH   5  19
TORSDOF 11
ENDMDL
MODEL 6
REMARK VINA RESULT:      -7.4      1.818      3.492
REMARK  Name = 
REMARK  15 active torsions:
REMARK  status: ('A' for Active; 'I' for Inactive)
REMARK    1  A    between atoms: C_1  and  C_2
REMARK    2  A    between atoms: C_2  and  C_3
REMARK    3  A    between atoms: C_3  and  C_4
REMARK    4  A    between atoms: C_4  and  N_5
REMARK    5  A    between atoms: N_5  and  C_6
REMARK    6  A    between atoms: C_6  and  C_7
REMARK    7  A    between atoms: C_6  and  C_8
REMARK    8  A    between atoms: C_12  and  C_14
REMARK    9  A    between atoms: C_14  and  C_15
REMARK   10  A    between atoms: C_14  and  N_18
REMARK   11  A    between atoms: C_15  and  C_16
REMARK   12  A    between atoms: C_16  and  C_17
REMARK   13  A    between atoms: C_19  and  C_21
REMARK   14  A    between atoms: C_21  and  C_22
REMARK   15  A    between atoms: C_31  and  C_32
REMARK                            x       y       z     vdW  Elec       q    Type
REMARK                         _______ _______ _______ _____ _____    ______ ____
ROOT
ATOM      1  C   UNL     1       4.055   5.471  18.217  0.00  0.00    +0.000 A 
ATOM      2  S   UNL     1       3.029   6.298  19.319  0.00  0.00    +0.000 S 
ATOM      3  C   UNL     1       2.977   7.637  18.282  0.00  0.00    +0.000 A 
ATOM      4  N   UNL     1       2.247   8.758  18.566  0.00  0.00    +0.000 N 
ATOM      5  C   UNL     1       1.353   8.924  19.602  0.00  0.00    +0.000 C 
ATOM      6  O   UNL     1       0.975   8.041  20.368  0.00  0.00    +0.000 OA
ATOM      7  N   UNL     1       3.705   7.552  17.196  0.00  0.00    +0.000 NA
ATOM      8  C   UNL     1       4.306   6.296  17.127  0.00  0.00    +0.000 A 
ATOM      9  C   UNL     1       5.111   5.976  15.918  0.00  0.00    +0.000 C 
ATOM     10  H   UNL     1       2.427   9.527  17.943  0.00  0.00    +0.000 HD
ENDROOT
BRANCH   1  11
ATOM     11  C   UNL     1       4.486   4.064  18.542  0.00  0.00    +0.000 C 
ATOM     12  C   UNL     1       3.801   3.055  17.616  0.00  0.00    +0.000 C 
BRANCH  11  13
ATOM     13  N   UNL     1       4.238   3.798  19.968  0.00  0.00    +0.000 NA
ATOM     14  H   UNL     1       5.146   3.685  20.425  0.00  0.00    +0.000 HD
BRANCH  13  15
ATOM     15  C   UNL     1       3.459   2.579  20.176  0.00  0.00    +0.000 C 
BRANCH  15  16
ATOM     16  C   UNL     1       2.427   2.791  21.286  0.00  0.00    +0.000 C 
BRANCH  16  18
ATOM     17  C   UNL     1       0.684   2.791  19.461  0.00  0.00    +0.000 C 
ATOM     18  C   UNL     1       1.179   3.473  20.724  0.00  0.00    +0.000 C 
ENDBRANCH  16  18
ENDBRANCH  15  16
ENDBRANCH  13  15
ENDBRANCH  11  13
ENDBRANCH   1  11
BRANCH   5  19
ATOM     19  C   UNL     1       0.755  10.352  19.701  0.00  0.00    +0.000 C 
BRANCH  19  20
ATOM     20  N   UNL     1      -0.590  10.409  19.097  0.00  0.00    +0.000 N 
ATOM     21  C   UNL     1      -0.998  11.538  18.410  0.00  0.00    +0.000 C 
ATOM     22  O   UNL     1      -0.289  12.535  18.313  0.00  0.00    +0.000 OA
ATOM     23  H   UNL     1      -1.160   9.572  19.092  0.00  0.00    +0.000 HD
BRANCH  21  24
ATOM     24  C   UNL     1      -2.377  11.448  17.775  0.00  0.00    +0.000 C 
BRANCH  24  25
ATOM     25  C   UNL     1      -3.512  11.799  18.711  0.00  0.00    +0.000 A 
ATOM     26  C   UNL     1      -4.829  11.426  18.404  0.00  0.00    +0.000 A 
ATOM     27  C   UNL     1      -5.863  11.691  19.301  0.00  0.00    +0.000 A 
ATOM     28  F   UNL     1      -7.111  11.308  18.996  0.00  0.00    +0.000 F 
ATOM     29  C   UNL     1      -5.625  12.327  20.512  0.00  0.00    +0.000 A 
ATOM     30  C   UNL     1      -4.326  12.702  20.816  0.00  0.00    +0.000 A 
ATOM     31  F   UNL     1      -4.073  13.308  21.984  0.00  0.00    +0.000 F 
ATOM     32  C   UNL     1      -3.274  12.444  19.935  0.00  0.00    +0.000 A 
ENDBRANCH  24  25
ENDBRANCH  21  24
ENDBRANCH  19  20
BRANCH  19  33
ATOM     33  C   UNL     1       0.710  10.883  21.148  0.00  0.00    +0.000 C 
BRANCH  33  34
ATOM     34  C   UNL     1      -0.626  10.635  21.864  0.00  0.00    +0.000 C 
ATOM     35  C   UNL     1      -0.458   9.844  23.153  0.00  0.00    +0.000 C 
ENDBRANCH  33  34
ENDBRANCH  19  33
ENDBRANCH   5  19
TORSDOF 11
ENDMDL
MODEL 7
REMARK VINA RESULT:      -7.3      2.032      3.730
REMARK  Name = 
REMARK  15 active torsions:
REMARK  status: ('A' for Active; 'I' for Inactive)
REMARK    1  A    between atoms: C_1  and  C_2
REMARK    2  A    between atoms: C_2  and  C_3
REMARK    3  A    between atoms: C_3  and  C_4
REMARK    4  A    between atoms: C_4  and  N_5
REMARK    5  A    between atoms: N_5  and  C_6
REMARK    6  A    between atoms: C_6  and  C_7
REMARK    7  A    between atoms: C_6  and  C_8
REMARK    8  A    between atoms: C_12  and  C_14
REMARK    9  A    between atoms: C_14  and  C_15
REMARK   10  A    between atoms: C_14  and  N_18
REMARK   11  A    between atoms: C_15  and  C_16
REMARK   12  A    between atoms: C_16  and  C_17
REMARK   13  A    between atoms: C_19  and  C_21
REMARK   14  A    between atoms: C_21  and  C_22
REMARK   15  A    between atoms: C_31  and  C_32
REMARK                            x       y       z     vdW  Elec       q    Type
REMARK                         _______ _______ _______ _____ _____    ______ ____
ROOT
ATOM      1  C   UNL     1       3.635   5.957  18.622  0.00  0.00    +0.000 A 
ATOM      2  S   UNL     1       2.558   6.829  19.635  0.00  0.00    +0.000 S 
ATOM      3  C   UNL     1       2.477   8.077  18.492  0.00  0.00    +0.000 A 
ATOM      4  N   UNL     1       1.700   9.189  18.671  0.00  0.00    +0.000 N 
ATOM      5  C   UNL     1       0.781   9.403  19.675  0.00  0.00    +0.000 C 
ATOM      6  O   UNL     1       0.420   8.572  20.504  0.00  0.00    +0.000 OA
ATOM      7  N   UNL     1       3.229   7.932  17.428  0.00  0.00    +0.000 NA
ATOM      8  C   UNL     1       3.877   6.700  17.472  0.00  0.00    +0.000 A 
ATOM      9  C   UNL     1       4.717   6.313  16.307  0.00  0.00    +0.000 C 
ATOM     10  H   UNL     1       1.863   9.911  17.990  0.00  0.00    +0.000 HD
ENDROOT
BRANCH   1  11
ATOM     11  C   UNL     1       4.111   4.598  19.068  0.00  0.00    +0.000 C 
ATOM     12  C   UNL     1       5.641   4.520  19.045  0.00  0.00    +0.000 C 
BRANCH  11  13
ATOM     13  N   UNL     1       3.469   3.564  18.241  0.00  0.00    +0.000 NA
ATOM     14  H   UNL     1       2.664   3.992  17.777  0.00  0.00    +0.000 HD
BRANCH  13  15
ATOM     15  C   UNL     1       2.997   2.433  19.038  0.00  0.00    +0.000 C 
BRANCH  15  16
ATOM     16  C   UNL     1       1.467   2.420  19.088  0.00  0.00    +0.000 C 
BRANCH  16  18
ATOM     17  C   UNL     1       1.948   3.022  21.491  0.00  0.00    +0.000 C 
ATOM     18  C   UNL     1       0.972   3.154  20.335  0.00  0.00    +0.000 C 
ENDBRANCH  16  18
ENDBRANCH  15  16
ENDBRANCH  13  15
ENDBRANCH  11  13
ENDBRANCH   1  11
BRANCH   5  19
ATOM     19  C   UNL     1       0.128  10.810  19.647  0.00  0.00    +0.000 C 
BRANCH  19  20
ATOM     20  N   UNL     1      -1.258  10.744  19.145  0.00  0.00    +0.000 N 
ATOM     21  C   UNL     1      -1.739  11.727  18.298  0.00  0.00    +0.000 C 
ATOM     22  O   UNL     1      -1.061  12.696  17.970  0.00  0.00    +0.000 OA
ATOM     23  H   UNL     1      -1.808   9.916  19.333  0.00  0.00    +0.000 HD
BRANCH  21  24
ATOM     24  C   UNL     1      -3.158  11.511  17.795  0.00  0.00    +0.000 C 
BRANCH  24  25
ATOM     25  C   UNL     1      -4.230  11.840  18.809  0.00  0.00    +0.000 A 
ATOM     26  C   UNL     1      -5.537  11.358  18.646  0.00  0.00    +0.000 A 
ATOM     27  C   UNL     1      -6.506  11.606  19.616  0.00  0.00    +0.000 A 
ATOM     28  F   UNL     1      -7.744  11.118  19.449  0.00  0.00    +0.000 F 
ATOM     29  C   UNL     1      -6.211  12.331  20.764  0.00  0.00    +0.000 A 
ATOM     30  C   UNL     1      -4.923  12.814  20.926  0.00  0.00    +0.000 A 
ATOM     31  F   UNL     1      -4.615  13.507  22.030  0.00  0.00    +0.000 F 
ATOM     32  C   UNL     1      -3.935  12.575  19.969  0.00  0.00    +0.000 A 
ENDBRANCH  24  25
ENDBRANCH  21  24
ENDBRANCH  19  20
BRANCH  19  33
ATOM     33  C   UNL     1       0.163  11.513  21.019  0.00  0.00    +0.000 C 
BRANCH  33  34
ATOM     34  C   UNL     1      -1.127  11.354  21.836  0.00  0.00    +0.000 C 
ATOM     35  C   UNL     1      -0.925  10.504  23.082  0.00  0.00    +0.000 C 
ENDBRANCH  33  34
ENDBRANCH  19  33
ENDBRANCH   5  19
TORSDOF 11
ENDMDL
MODEL 8
REMARK VINA RESULT:      -7.3      4.095     10.041
REMARK  Name = 
REMARK  15 active torsions:
REMARK  status: ('A' for Active; 'I' for Inactive)
REMARK    1  A    between atoms: C_1  and  C_2
REMARK    2  A    between atoms: C_2  and  C_3
REMARK    3  A    between atoms: C_3  and  C_4
REMARK    4  A    between atoms: C_4  and  N_5
REMARK    5  A    between atoms: N_5  and  C_6
REMARK    6  A    between atoms: C_6  and  C_7
REMARK    7  A    between atoms: C_6  and  C_8
REMARK    8  A    between atoms: C_12  and  C_14
REMARK    9  A    between atoms: C_14  and  C_15
REMARK   10  A    between atoms: C_14  and  N_18
REMARK   11  A    between atoms: C_15  and  C_16
REMARK   12  A    between atoms: C_16  and  C_17
REMARK   13  A    between atoms: C_19  and  C_21
REMARK   14  A    between atoms: C_21  and  C_22
REMARK   15  A    between atoms: C_31  and  C_32
REMARK                            x       y       z     vdW  Elec       q    Type
REMARK                         _______ _______ _______ _____ _____    ______ ____
ROOT
ATOM      1  C   UNL     1       0.488  10.380  20.825  0.00  0.00    +0.000 A 
ATOM      2  S   UNL     1       0.688   8.698  21.109  0.00  0.00    +0.000 S 
ATOM      3  C   UNL     1       1.483   8.531  19.622  0.00  0.00    +0.000 A 
ATOM      4  N   UNL     1       1.979   7.333  19.186  0.00  0.00    +0.000 N 
ATOM      5  C   UNL     1       2.058   6.159  19.902  0.00  0.00    +0.000 C 
ATOM      6  O   UNL     1       1.807   6.032  21.097  0.00  0.00    +0.000 OA
ATOM      7  N   UNL     1       1.572   9.616  18.892  0.00  0.00    +0.000 NA
ATOM      8  C   UNL     1       1.032  10.698  19.586  0.00  0.00    +0.000 A 
ATOM      9  C   UNL     1       1.116  12.041  18.953  0.00  0.00    +0.000 C 
ATOM     10  H   UNL     1       2.289   7.349  18.228  0.00  0.00    +0.000 HD
ENDROOT
BRANCH   1  11
ATOM     11  C   UNL     1      -0.173  11.222  21.885  0.00  0.00    +0.000 C 
ATOM     12  C   UNL     1      -0.618  10.360  23.071  0.00  0.00    +0.000 C 
BRANCH  11  13
ATOM     13  N   UNL     1      -1.277  11.985  21.280  0.00  0.00    +0.000 NA
ATOM     14  H   UNL     1      -0.874  12.621  20.589  0.00  0.00    +0.000 HD
BRANCH  13  15
ATOM     15  C   UNL     1      -2.008  12.777  22.268  0.00  0.00    +0.000 C 
BRANCH  15  16
ATOM     16  C   UNL     1      -3.516  12.618  22.066  0.00  0.00    +0.000 C 
BRANCH  16  18
ATOM     17  C   UNL     1      -4.213  12.473  24.487  0.00  0.00    +0.000 C 
ATOM     18  C   UNL     1      -4.278  13.290  23.208  0.00  0.00    +0.000 C 
ENDBRANCH  16  18
ENDBRANCH  15  16
ENDBRANCH  13  15
ENDBRANCH  11  13
ENDBRANCH   1  11
BRANCH   5  19
ATOM     19  C   UNL     1       2.592   4.953  19.085  0.00  0.00    +0.000 C 
BRANCH  19  20
ATOM     20  N   UNL     1       3.769   5.333  18.281  0.00  0.00    +0.000 N 
ATOM     21  C   UNL     1       4.078   4.637  17.126  0.00  0.00    +0.000 C 
ATOM     22  O   UNL     1       3.424   3.668  16.753  0.00  0.00    +0.000 OA
ATOM     23  H   UNL     1       4.274   6.176  18.522  0.00  0.00    +0.000 HD
BRANCH  21  24
ATOM     24  C   UNL     1       5.273   5.167  16.350  0.00  0.00    +0.000 C 
BRANCH  24  25
ATOM     25  C   UNL     1       6.280   5.910  17.198  0.00  0.00    +0.000 A 
ATOM     26  C   UNL     1       6.998   5.243  18.201  0.00  0.00    +0.000 A 
ATOM     27  C   UNL     1       7.974   5.914  18.935  0.00  0.00    +0.000 A 
ATOM     28  F   UNL     1       8.661   5.251  19.876  0.00  0.00    +0.000 F 
ATOM     29  C   UNL     1       8.263   7.252  18.700  0.00  0.00    +0.000 A 
ATOM     30  C   UNL     1       7.553   7.916  17.714  0.00  0.00    +0.000 A 
ATOM     31  F   UNL     1       7.824   9.204  17.464  0.00  0.00    +0.000 F 
ATOM     32  C   UNL     1       6.573   7.264  16.964  0.00  0.00    +0.000 A 
ENDBRANCH  24  25
ENDBRANCH  21  24
ENDBRANCH  19  20
BRANCH  19  33
ATOM     33  C   UNL     1       2.922   3.732  19.967  0.00  0.00    +0.000 C 
BRANCH  33  34
ATOM     34  C   UNL     1       1.728   2.802  20.221  0.00  0.00    +0.000 C 
ATOM     35  C   UNL     1       1.459   2.589  21.704  0.00  0.00    +0.000 C 
ENDBRANCH  33  34
ENDBRANCH  19  33
ENDBRANCH   5  19
TORSDOF 11
ENDMDL
MODEL 9
REMARK VINA RESULT:      -7.2      3.948      9.414
REMARK  Name = 
REMARK  15 active torsions:
REMARK  status: ('A' for Active; 'I' for Inactive)
REMARK    1  A    between atoms: C_1  and  C_2
REMARK    2  A    between atoms: C_2  and  C_3
REMARK    3  A    between atoms: C_3  and  C_4
REMARK    4  A    between atoms: C_4  and  N_5
REMARK    5  A    between atoms: N_5  and  C_6
REMARK    6  A    between atoms: C_6  and  C_7
REMARK    7  A    between atoms: C_6  and  C_8
REMARK    8  A    between atoms: C_12  and  C_14
REMARK    9  A    between atoms: C_14  and  C_15
REMARK   10  A    between atoms: C_14  and  N_18
REMARK   11  A    between atoms: C_15  and  C_16
REMARK   12  A    between atoms: C_16  and  C_17
REMARK   13  A    between atoms: C_19  and  C_21
REMARK   14  A    between atoms: C_21  and  C_22
REMARK   15  A    between atoms: C_31  and  C_32
REMARK                            x       y       z     vdW  Elec       q    Type
REMARK                         _______ _______ _______ _____ _____    ______ ____
ROOT
ATOM      1  C   UNL     1       0.230  10.900  20.560  0.00  0.00    +0.000 A 
ATOM      2  S   UNL     1       1.078   9.847  19.503  0.00  0.00    +0.000 S 
ATOM      3  C   UNL     1       0.935   8.587  20.627  0.00  0.00    +0.000 A 
ATOM      4  N   UNL     1       1.423   7.331  20.389  0.00  0.00    +0.000 N 
ATOM      5  C   UNL     1       1.942   6.855  19.205  0.00  0.00    +0.000 C 
ATOM      6  O   UNL     1       1.935   7.450  18.131  0.00  0.00    +0.000 OA
ATOM      7  N   UNL     1       0.351   8.890  21.760  0.00  0.00    +0.000 NA
ATOM      8  C   UNL     1      -0.091  10.212  21.724  0.00  0.00    +0.000 A 
ATOM      9  C   UNL     1      -0.857  10.721  22.893  0.00  0.00    +0.000 C 
ATOM     10  H   UNL     1       1.403   6.730  21.196  0.00  0.00    +0.000 HD
ENDROOT
BRANCH   1  11
ATOM     11  C   UNL     1      -0.055  12.309  20.107  0.00  0.00    +0.000 C 
ATOM     12  C   UNL     1       0.449  13.327  21.134  0.00  0.00    +0.000 C 
BRANCH  11  13
ATOM     13  N   UNL     1      -1.492  12.444  19.818  0.00  0.00    +0.000 NA
ATOM     14  H   UNL     1      -1.999  11.846  20.475  0.00  0.00    +0.000 HD
BRANCH  13  15
ATOM     15  C   UNL     1      -1.825  12.025  18.458  0.00  0.00    +0.000 C 
BRANCH  15  16
ATOM     16  C   UNL     1      -2.426  10.618  18.468  0.00  0.00    +0.000 C 
BRANCH  16  18
ATOM     17  C   UNL     1      -2.636  11.049  15.991  0.00  0.00    +0.000 C 
ATOM     18  C   UNL     1      -3.261  10.390  17.208  0.00  0.00    +0.000 C 
ENDBRANCH  16  18
ENDBRANCH  15  16
ENDBRANCH  13  15
ENDBRANCH  11  13
ENDBRANCH   1  11
BRANCH   5  19
ATOM     19  C   UNL     1       2.496   5.408  19.291  0.00  0.00    +0.000 C 
BRANCH  19  20
ATOM     20  N   UNL     1       3.794   5.292  18.600  0.00  0.00    +0.000 N 
ATOM     21  C   UNL     1       3.908   4.521  17.458  0.00  0.00    +0.000 C 
ATOM     22  O   UNL     1       2.964   3.880  17.006  0.00  0.00    +0.000 OA
ATOM     23  H   UNL     1       4.564   5.875  18.904  0.00  0.00    +0.000 HD
BRANCH  21  24
ATOM     24  C   UNL     1       5.278   4.536  16.798  0.00  0.00    +0.000 C 
BRANCH  24  25
ATOM     25  C   UNL     1       6.281   5.441  17.479  0.00  0.00    +0.000 A 
ATOM     26  C   UNL     1       7.083   4.957  18.522  0.00  0.00    +0.000 A 
ATOM     27  C   UNL     1       8.053   5.773  19.102  0.00  0.00    +0.000 A 
ATOM     28  F   UNL     1       8.823   5.283  20.084  0.00  0.00    +0.000 F 
ATOM     29  C   UNL     1       8.253   7.078  18.670  0.00  0.00    +0.000 A 
ATOM     30  C   UNL     1       7.458   7.562  17.644  0.00  0.00    +0.000 A 
ATOM     31  F   UNL     1       7.641   8.814  17.206  0.00  0.00    +0.000 F 
ATOM     32  C   UNL     1       6.483   6.762  17.046  0.00  0.00    +0.000 A 
ENDBRANCH  24  25
ENDBRANCH  21  24
ENDBRANCH  19  20
BRANCH  19  33
ATOM     33  C   UNL     1       2.619   4.900  20.742  0.00  0.00    +0.000 C 
BRANCH  33  34
ATOM     34  C   UNL     1       1.598   3.816  21.114  0.00  0.00    +0.000 C 
ATOM     35  C   UNL     1       2.257   2.558  21.661  0.00  0.00    +0.000 C 
ENDBRANCH  33  34
ENDBRANCH  19  33
ENDBRANCH   5  19
TORSDOF 11
ENDMDL
