MODEL 1
REMARK VINA RESULT:      -7.8      0.000      0.000
REMARK  Name = 
REMARK  5 active torsions:
REMARK  status: ('A' for Active; 'I' for Inactive)
REMARK    1  A    between atoms: C_1  and  O_2
REMARK    2  A    between atoms: O_2  and  C_3
REMARK    3  A    between atoms: C_6  and  C_7
REMARK    4  A    between atoms: C_22  and  C_23
REMARK    5  A    between atoms: C_22  and  C_24
REMARK                            x       y       z     vdW  Elec       q    Type
REMARK                         _______ _______ _______ _____ _____    ______ ____
ROOT
ATOM      1  C   UNL     1       4.534   3.595  17.398  0.00  0.00    +0.000 A 
ATOM      2  C   UNL     1       4.336   2.213  17.532  0.00  0.00    +0.000 A 
ATOM      3  C   UNL     1       3.439   1.701  18.471  0.00  0.00    +0.000 A 
ATOM      4  C   UNL     1       2.704   2.567  19.279  0.00  0.00    +0.000 A 
ATOM      5  C   UNL     1       2.856   3.962  19.170  0.00  0.00    +0.000 A 
ATOM      6  C   UNL     1       3.803   4.440  18.250  0.00  0.00    +0.000 A 
ATOM      7  N   UNL     1       2.108   4.835  19.999  0.00  0.00    +0.000 N 
ATOM      8  C   UNL     1       1.911   6.176  19.852  0.00  0.00    +0.000 A 
ATOM      9  N   UNL     1       1.771   7.017  20.863  0.00  0.00    +0.000 NA
ATOM     10  C   UNL     1       1.657   8.307  20.395  0.00  0.00    +0.000 A 
ATOM     11  C   UNL     1       1.649   8.448  19.029  0.00  0.00    +0.000 A 
ATOM     12  S   UNL     1       1.704   6.936  18.286  0.00  0.00    +0.000 S 
ATOM     13  C   UNL     1       1.575   9.707  18.333  0.00  0.00    +0.000 C 
ATOM     14  O   UNL     1       1.657   9.869  17.119  0.00  0.00    +0.000 OA
ATOM     15  N   UNL     1       1.415  10.801  19.172  0.00  0.00    +0.000 N 
ATOM     16  C   UNL     1       0.891  10.674  20.551  0.00  0.00    +0.000 C 
ATOM     17  C   UNL     1       1.167  11.970  21.322  0.00  0.00    +0.000 C 
ATOM     18  C   UNL     1      -0.635  10.459  20.473  0.00  0.00    +0.000 C 
ATOM     19  C   UNL     1       1.572   9.485  21.300  0.00  0.00    +0.000 C 
ATOM     20  C   UNL     1       1.711   4.181  21.242  0.00  0.00    +0.000 C 
ATOM     21  C   UNL     1       1.013   2.871  20.885  0.00  0.00    +0.000 C 
ATOM     22  O   UNL     1       1.877   1.959  20.195  0.00  0.00    +0.000 OA
ATOM     23  H   UNL     1       1.269  11.666  18.664  0.00  0.00    +0.000 HD
ENDROOT
BRANCH   1  27
ATOM     24  C   UNL     1       7.360   5.226  14.778  0.00  0.00    +0.000 A 
ATOM     25  C   UNL     1       6.410   4.404  14.215  0.00  0.00    +0.000 A 
ATOM     26  C   UNL     1       5.449   3.848  15.054  0.00  0.00    +0.000 A 
ATOM     27  C   UNL     1       5.481   4.142  16.418  0.00  0.00    +0.000 A 
ATOM     28  N   UNL     1       6.432   4.966  16.917  0.00  0.00    +0.000 NA
ATOM     29  N   UNL     1       7.374   5.514  16.098  0.00  0.00    +0.000 NA
BRANCH  24  31
ATOM     30  C   UNL     1       8.075   5.458  12.577  0.00  0.00    +0.000 C 
ATOM     31  O   UNL     1       8.334   5.741  13.950  0.00  0.00    +0.000 OA
ENDBRANCH  24  31
ENDBRANCH   1  27
TORSDOF 2
ENDMDL
MODEL 2
REMARK VINA RESULT:      -6.9      8.189     10.270
REMARK  Name = 
REMARK  5 active torsions:
REMARK  status: ('A' for Active; 'I' for Inactive)
REMARK    1  A    between atoms: C_1  and  O_2
REMARK    2  A    between atoms: O_2  and  C_3
REMARK    3  A    between atoms: C_6  and  C_7
REMARK    4  A    between atoms: C_22  and  C_23
REMARK    5  A    between atoms: C_22  and  C_24
REMARK                            x       y       z     vdW  Elec       q    Type
REMARK                         _______ _______ _______ _____ _____    ______ ____
ROOT
ATOM      1  C   UNL     1      -3.032  12.359  19.720  0.00  0.00    +0.000 A 
ATOM      2  C   UNL     1      -4.275  12.577  20.333  0.00  0.00    +0.000 A 
ATOM      3  C   UNL     1      -4.378  13.332  21.502  0.00  0.00    +0.000 A 
ATOM      4  C   UNL     1      -3.241  13.905  22.067  0.00  0.00    +0.000 A 
ATOM      5  C   UNL     1      -1.974  13.728  21.479  0.00  0.00    +0.000 A 
ATOM      6  C   UNL     1      -1.900  12.921  20.333  0.00  0.00    +0.000 A 
ATOM      7  N   UNL     1      -0.821  14.310  22.064  0.00  0.00    +0.000 N 
ATOM      8  C   UNL     1       0.410  14.485  21.506  0.00  0.00    +0.000 A 
ATOM      9  N   UNL     1       1.543  14.440  22.188  0.00  0.00    +0.000 NA
ATOM     10  C   UNL     1       2.616  14.584  21.337  0.00  0.00    +0.000 A 
ATOM     11  C   UNL     1       2.305  14.800  20.016  0.00  0.00    +0.000 A 
ATOM     12  S   UNL     1       0.635  14.909  19.820  0.00  0.00    +0.000 S 
ATOM     13  C   UNL     1       3.271  14.942  18.958  0.00  0.00    +0.000 C 
ATOM     14  O   UNL     1       3.023  15.044  17.760  0.00  0.00    +0.000 OA
ATOM     15  N   UNL     1       4.588  14.935  19.397  0.00  0.00    +0.000 N 
ATOM     16  C   UNL     1       4.959  15.242  20.797  0.00  0.00    +0.000 C 
ATOM     17  C   UNL     1       6.408  14.808  21.047  0.00  0.00    +0.000 C 
ATOM     18  C   UNL     1       4.855  16.767  21.004  0.00  0.00    +0.000 C 
ATOM     19  C   UNL     1       4.027  14.490  21.799  0.00  0.00    +0.000 C 
ATOM     20  C   UNL     1      -1.001  14.529  23.496  0.00  0.00    +0.000 C 
ATOM     21  C   UNL     1      -2.295  15.315  23.694  0.00  0.00    +0.000 C 
ATOM     22  O   UNL     1      -3.449  14.598  23.237  0.00  0.00    +0.000 OA
ATOM     23  H   UNL     1       5.250  15.130  18.655  0.00  0.00    +0.000 HD
ENDROOT
BRANCH   1  27
ATOM     24  C   UNL     1      -2.846  10.209  16.134  0.00  0.00    +0.000 A 
ATOM     25  C   UNL     1      -1.853   9.952  17.052  0.00  0.00    +0.000 A 
ATOM     26  C   UNL     1      -1.885  10.643  18.259  0.00  0.00    +0.000 A 
ATOM     27  C   UNL     1      -2.911  11.559  18.495  0.00  0.00    +0.000 A 
ATOM     28  N   UNL     1      -3.869  11.765  17.561  0.00  0.00    +0.000 NA
ATOM     29  N   UNL     1      -3.842  11.089  16.379  0.00  0.00    +0.000 NA
BRANCH  24  31
ATOM     30  C   UNL     1      -3.748  10.054  13.997  0.00  0.00    +0.000 C 
ATOM     31  O   UNL     1      -2.788   9.553  14.924  0.00  0.00    +0.000 OA
ENDBRANCH  24  31
ENDBRANCH   1  27
TORSDOF 2
ENDMDL
MODEL 3
REMARK VINA RESULT:      -6.7      7.691     10.334
REMARK  Name = 
REMARK  5 active torsions:
REMARK  status: ('A' for Active; 'I' for Inactive)
REMARK    1  A    between atoms: C_1  and  O_2
REMARK    2  A    between atoms: O_2  and  C_3
REMARK    3  A    between atoms: C_6  and  C_7
REMARK    4  A    between atoms: C_22  and  C_23
REMARK    5  A    between atoms: C_22  and  C_24
REMARK                            x       y       z     vdW  Elec       q    Type
REMARK                         _______ _______ _______ _____ _____    ______ ____
ROOT
ATOM      1  C   UNL     1       0.862  13.545  19.945  0.00  0.00    +0.000 A 
ATOM      2  C   UNL     1       1.909  12.620  19.817  0.00  0.00    +0.000 A 
ATOM      3  C   UNL     1       1.857  11.380  20.456  0.00  0.00    +0.000 A 
ATOM      4  C   UNL     1       0.743  11.033  21.218  0.00  0.00    +0.000 A 
ATOM      5  C   UNL     1      -0.339  11.922  21.363  0.00  0.00    +0.000 A 
ATOM      6  C   UNL     1      -0.231  13.178  20.748  0.00  0.00    +0.000 A 
ATOM      7  N   UNL     1      -1.466  11.562  22.144  0.00  0.00    +0.000 N 
ATOM      8  C   UNL     1      -2.696  12.150  22.171  0.00  0.00    +0.000 A 
ATOM      9  N   UNL     1      -3.459  12.218  23.250  0.00  0.00    +0.000 NA
ATOM     10  C   UNL     1      -4.605  12.929  22.976  0.00  0.00    +0.000 A 
ATOM     11  C   UNL     1      -4.750  13.353  21.678  0.00  0.00    +0.000 A 
ATOM     12  S   UNL     1      -3.470  12.792  20.735  0.00  0.00    +0.000 S 
ATOM     13  C   UNL     1      -5.852  14.140  21.188  0.00  0.00    +0.000 C 
ATOM     14  O   UNL     1      -5.962  14.608  20.058  0.00  0.00    +0.000 OA
ATOM     15  N   UNL     1      -6.839  14.370  22.135  0.00  0.00    +0.000 N 
ATOM     16  C   UNL     1      -7.000  13.520  23.337  0.00  0.00    +0.000 C 
ATOM     17  C   UNL     1      -7.917  14.227  24.342  0.00  0.00    +0.000 C 
ATOM     18  C   UNL     1      -7.662  12.194  22.910  0.00  0.00    +0.000 C 
ATOM     19  C   UNL     1      -5.621  13.247  24.016  0.00  0.00    +0.000 C 
ATOM     20  C   UNL     1      -1.119  10.572  23.159  0.00  0.00    +0.000 C 
ATOM     21  C   UNL     1      -0.416   9.409  22.463  0.00  0.00    +0.000 C 
ATOM     22  O   UNL     1       0.810   9.805  21.834  0.00  0.00    +0.000 OA
ATOM     23  H   UNL     1      -7.650  14.842  21.751  0.00  0.00    +0.000 HD
ENDROOT
BRANCH   1  27
ATOM     24  C   UNL     1       1.227  17.257  18.048  0.00  0.00    +0.000 A 
ATOM     25  C   UNL     1      -0.047  16.746  18.149  0.00  0.00    +0.000 A 
ATOM     26  C   UNL     1      -0.209  15.516  18.780  0.00  0.00    +0.000 A 
ATOM     27  C   UNL     1       0.912  14.855  19.283  0.00  0.00    +0.000 A 
ATOM     28  N   UNL     1       2.141  15.408  19.165  0.00  0.00    +0.000 NA
ATOM     29  N   UNL     1       2.303  16.613  18.550  0.00  0.00    +0.000 NA
BRANCH  24  31
ATOM     30  C   UNL     1       0.420  18.631  16.355  0.00  0.00    +0.000 C 
ATOM     31  O   UNL     1       1.388  18.455  17.386  0.00  0.00    +0.000 OA
ENDBRANCH  24  31
ENDBRANCH   1  27
TORSDOF 2
ENDMDL
MODEL 4
REMARK VINA RESULT:      -6.6      8.835     10.317
REMARK  Name = 
REMARK  5 active torsions:
REMARK  status: ('A' for Active; 'I' for Inactive)
REMARK    1  A    between atoms: C_1  and  O_2
REMARK    2  A    between atoms: O_2  and  C_3
REMARK    3  A    between atoms: C_6  and  C_7
REMARK    4  A    between atoms: C_22  and  C_23
REMARK    5  A    between atoms: C_22  and  C_24
REMARK                            x       y       z     vdW  Elec       q    Type
REMARK                         _______ _______ _______ _____ _____    ______ ____
ROOT
ATOM      1  C   UNL     1      -3.455  12.325  19.702  0.00  0.00    +0.000 A 
ATOM      2  C   UNL     1      -4.682  12.395  20.378  0.00  0.00    +0.000 A 
ATOM      3  C   UNL     1      -4.778  12.988  21.637  0.00  0.00    +0.000 A 
ATOM      4  C   UNL     1      -3.650  13.545  22.236  0.00  0.00    +0.000 A 
ATOM      5  C   UNL     1      -2.399  13.514  21.589  0.00  0.00    +0.000 A 
ATOM      6  C   UNL     1      -2.329  12.865  20.347  0.00  0.00    +0.000 A 
ATOM      7  N   UNL     1      -1.255  14.079  22.207  0.00  0.00    +0.000 N 
ATOM      8  C   UNL     1      -0.057  14.390  21.639  0.00  0.00    +0.000 A 
ATOM      9  N   UNL     1       1.103  14.320  22.272  0.00  0.00    +0.000 NA
ATOM     10  C   UNL     1       2.133  14.630  21.413  0.00  0.00    +0.000 A 
ATOM     11  C   UNL     1       1.761  14.996  20.142  0.00  0.00    +0.000 A 
ATOM     12  S   UNL     1       0.081  15.038  20.016  0.00  0.00    +0.000 S 
ATOM     13  C   UNL     1       2.677  15.324  19.081  0.00  0.00    +0.000 C 
ATOM     14  O   UNL     1       2.378  15.565  17.915  0.00  0.00    +0.000 OA
ATOM     15  N   UNL     1       4.008  15.333  19.473  0.00  0.00    +0.000 N 
ATOM     16  C   UNL     1       4.418  15.478  20.888  0.00  0.00    +0.000 C 
ATOM     17  C   UNL     1       5.895  15.096  21.033  0.00  0.00    +0.000 C 
ATOM     18  C   UNL     1       4.246  16.956  21.295  0.00  0.00    +0.000 C 
ATOM     19  C   UNL     1       3.564  14.555  21.814  0.00  0.00    +0.000 C 
ATOM     20  C   UNL     1      -1.390  14.102  23.661  0.00  0.00    +0.000 C 
ATOM     21  C   UNL     1      -2.713  14.785  24.001  0.00  0.00    +0.000 C 
ATOM     22  O   UNL     1      -3.846  14.071  23.491  0.00  0.00    +0.000 OA
ATOM     23  H   UNL     1       4.631  15.657  18.742  0.00  0.00    +0.000 HD
ENDROOT
BRANCH   1  27
ATOM     24  C   UNL     1      -2.942  10.438  16.003  0.00  0.00    +0.000 A 
ATOM     25  C   UNL     1      -4.172  11.015  16.228  0.00  0.00    +0.000 A 
ATOM     26  C   UNL     1      -4.377  11.658  17.445  0.00  0.00    +0.000 A 
ATOM     27  C   UNL     1      -3.342  11.696  18.380  0.00  0.00    +0.000 A 
ATOM     28  N   UNL     1      -2.149  11.120  18.103  0.00  0.00    +0.000 NA
ATOM     29  N   UNL     1      -1.944  10.491  16.911  0.00  0.00    +0.000 NA
BRANCH  24  31
ATOM     30  C   UNL     1      -3.818  10.004  13.893  0.00  0.00    +0.000 C 
ATOM     31  O   UNL     1      -2.757   9.766  14.814  0.00  0.00    +0.000 OA
ENDBRANCH  24  31
ENDBRANCH   1  27
TORSDOF 2
ENDMDL
MODEL 5
REMARK VINA RESULT:      -6.6      9.264     11.271
REMARK  Name = 
REMARK  5 active torsions:
REMARK  status: ('A' for Active; 'I' for Inactive)
REMARK    1  A    between atoms: C_1  and  O_2
REMARK    2  A    between atoms: O_2  and  C_3
REMARK    3  A    between atoms: C_6  and  C_7
REMARK    4  A    between atoms: C_22  and  C_23
REMARK    5  A    between atoms: C_22  and  C_24
REMARK                            x       y       z     vdW  Elec       q    Type
REMARK                         _______ _______ _______ _____ _____    ______ ____
ROOT
ATOM      1  C   UNL     1      -5.590  11.422  19.328  0.00  0.00    +0.000 A 
ATOM      2  C   UNL     1      -6.895  10.935  19.492  0.00  0.00    +0.000 A 
ATOM      3  C   UNL     1      -7.645  11.250  20.626  0.00  0.00    +0.000 A 
ATOM      4  C   UNL     1      -7.109  12.079  21.610  0.00  0.00    +0.000 A 
ATOM      5  C   UNL     1      -5.809  12.605  21.483  0.00  0.00    +0.000 A 
ATOM      6  C   UNL     1      -5.066  12.228  20.354  0.00  0.00    +0.000 A 
ATOM      7  N   UNL     1      -5.271  13.444  22.490  0.00  0.00    +0.000 N 
ATOM      8  C   UNL     1      -4.178  14.255  22.418  0.00  0.00    +0.000 A 
ATOM      9  N   UNL     1      -3.380  14.514  23.441  0.00  0.00    +0.000 NA
ATOM     10  C   UNL     1      -2.330  15.306  23.036  0.00  0.00    +0.000 A 
ATOM     11  C   UNL     1      -2.354  15.704  21.722  0.00  0.00    +0.000 A 
ATOM     12  S   UNL     1      -3.758  15.152  20.971  0.00  0.00    +0.000 S 
ATOM     13  C   UNL     1      -1.339  16.504  21.086  0.00  0.00    +0.000 C 
ATOM     14  O   UNL     1      -1.288  16.797  19.896  0.00  0.00    +0.000 OA
ATOM     15  N   UNL     1      -0.343  16.935  21.952  0.00  0.00    +0.000 N 
ATOM     16  C   UNL     1      -0.539  16.998  23.418  0.00  0.00    +0.000 C 
ATOM     17  C   UNL     1       0.821  17.162  24.107  0.00  0.00    +0.000 C 
ATOM     18  C   UNL     1      -1.409  18.230  23.740  0.00  0.00    +0.000 C 
ATOM     19  C   UNL     1      -1.220  15.696  23.947  0.00  0.00    +0.000 C 
ATOM     20  C   UNL     1      -5.895  13.192  23.785  0.00  0.00    +0.000 C 
ATOM     21  C   UNL     1      -7.409  13.285  23.606  0.00  0.00    +0.000 C 
ATOM     22  O   UNL     1      -7.917  12.296  22.702  0.00  0.00    +0.000 OA
ATOM     23  H   UNL     1       0.310  17.572  21.512  0.00  0.00    +0.000 HD
ENDROOT
BRANCH   1  27
ATOM     24  C   UNL     1      -3.388  10.664  15.851  0.00  0.00    +0.000 A 
ATOM     25  C   UNL     1      -3.094   9.878  16.943  0.00  0.00    +0.000 A 
ATOM     26  C   UNL     1      -3.811  10.096  18.116  0.00  0.00    +0.000 A 
ATOM     27  C   UNL     1      -4.790  11.090  18.142  0.00  0.00    +0.000 A 
ATOM     28  N   UNL     1      -5.045  11.827  17.036  0.00  0.00    +0.000 NA
ATOM     29  N   UNL     1      -4.347  11.615  15.886  0.00  0.00    +0.000 NA
BRANCH  24  31
ATOM     30  C   UNL     1      -3.439   9.960  13.636  0.00  0.00    +0.000 C 
ATOM     31  O   UNL     1      -2.648  10.472  14.705  0.00  0.00    +0.000 OA
ENDBRANCH  24  31
ENDBRANCH   1  27
TORSDOF 2
ENDMDL
MODEL 6
REMARK VINA RESULT:      -6.6      9.291     11.536
REMARK  Name = 
REMARK  5 active torsions:
REMARK  status: ('A' for Active; 'I' for Inactive)
REMARK    1  A    between atoms: C_1  and  O_2
REMARK    2  A    between atoms: O_2  and  C_3
REMARK    3  A    between atoms: C_6  and  C_7
REMARK    4  A    between atoms: C_22  and  C_23
REMARK    5  A    between atoms: C_22  and  C_24
REMARK                            x       y       z     vdW  Elec       q    Type
REMARK                         _______ _______ _______ _____ _____    ______ ____
ROOT
ATOM      1  C   UNL     1      -5.610  11.816  19.807  0.00  0.00    +0.000 A 
ATOM      2  C   UNL     1      -6.909  11.303  19.942  0.00  0.00    +0.000 A 
ATOM      3  C   UNL     1      -7.651  11.522  21.103  0.00  0.00    +0.000 A 
ATOM      4  C   UNL     1      -7.117  12.279  22.143  0.00  0.00    +0.000 A 
ATOM      5  C   UNL     1      -5.823  12.828  22.047  0.00  0.00    +0.000 A 
ATOM      6  C   UNL     1      -5.086  12.547  20.886  0.00  0.00    +0.000 A 
ATOM      7  N   UNL     1      -5.285  13.594  23.112  0.00  0.00    +0.000 N 
ATOM      8  C   UNL     1      -4.201  14.420  23.093  0.00  0.00    +0.000 A 
ATOM      9  N   UNL     1      -3.398  14.608  24.127  0.00  0.00    +0.000 NA
ATOM     10  C   UNL     1      -2.359  15.441  23.776  0.00  0.00    +0.000 A 
ATOM     11  C   UNL     1      -2.399  15.938  22.496  0.00  0.00    +0.000 A 
ATOM     12  S   UNL     1      -3.804  15.429  21.716  0.00  0.00    +0.000 S 
ATOM     13  C   UNL     1      -1.398  16.796  21.916  0.00  0.00    +0.000 C 
ATOM     14  O   UNL     1      -1.361  17.180  20.750  0.00  0.00    +0.000 OA
ATOM     15  N   UNL     1      -0.400  17.170  22.804  0.00  0.00    +0.000 N 
ATOM     16  C   UNL     1      -0.583  17.119  24.272  0.00  0.00    +0.000 C 
ATOM     17  C   UNL     1       0.781  17.244  24.961  0.00  0.00    +0.000 C 
ATOM     18  C   UNL     1      -1.464  18.312  24.694  0.00  0.00    +0.000 C 
ATOM     19  C   UNL     1      -1.245  15.772  24.705  0.00  0.00    +0.000 C 
ATOM     20  C   UNL     1      -5.895  13.235  24.388  0.00  0.00    +0.000 C 
ATOM     21  C   UNL     1      -7.411  13.325  24.229  0.00  0.00    +0.000 C 
ATOM     22  O   UNL     1      -7.916  12.402  23.255  0.00  0.00    +0.000 OA
ATOM     23  H   UNL     1       0.243  17.847  22.409  0.00  0.00    +0.000 HD
ENDROOT
BRANCH   1  27
ATOM     24  C   UNL     1      -3.171  11.128  16.476  0.00  0.00    +0.000 A 
ATOM     25  C   UNL     1      -4.528  11.141  16.246  0.00  0.00    +0.000 A 
ATOM     26  C   UNL     1      -5.371  11.374  17.328  0.00  0.00    +0.000 A 
ATOM     27  C   UNL     1      -4.817  11.585  18.592  0.00  0.00    +0.000 A 
ATOM     28  N   UNL     1      -3.475  11.572  18.760  0.00  0.00    +0.000 NA
ATOM     29  N   UNL     1      -2.646  11.346  17.702  0.00  0.00    +0.000 NA
BRANCH  24  31
ATOM     30  C   UNL     1      -3.004  10.108  14.393  0.00  0.00    +0.000 C 
ATOM     31  O   UNL     1      -2.342  10.857  15.409  0.00  0.00    +0.000 OA
ENDBRANCH  24  31
ENDBRANCH   1  27
TORSDOF 2
ENDMDL
MODEL 7
REMARK VINA RESULT:      -6.5      5.831     10.182
REMARK  Name = 
REMARK  5 active torsions:
REMARK  status: ('A' for Active; 'I' for Inactive)
REMARK    1  A    between atoms: C_1  and  O_2
REMARK    2  A    between atoms: O_2  and  C_3
REMARK    3  A    between atoms: C_6  and  C_7
REMARK    4  A    between atoms: C_22  and  C_23
REMARK    5  A    between atoms: C_22  and  C_24
REMARK                            x       y       z     vdW  Elec       q    Type
REMARK                         _______ _______ _______ _____ _____    ______ ____
ROOT
ATOM      1  C   UNL     1       1.086  12.819  18.984  0.00  0.00    +0.000 A 
ATOM      2  C   UNL     1      -0.201  13.365  18.866  0.00  0.00    +0.000 A 
ATOM      3  C   UNL     1      -0.405  14.744  18.920  0.00  0.00    +0.000 A 
ATOM      4  C   UNL     1       0.679  15.607  19.071  0.00  0.00    +0.000 A 
ATOM      5  C   UNL     1       1.991  15.106  19.177  0.00  0.00    +0.000 A 
ATOM      6  C   UNL     1       2.154  13.713  19.169  0.00  0.00    +0.000 A 
ATOM      7  N   UNL     1       3.088  15.991  19.335  0.00  0.00    +0.000 N 
ATOM      8  C   UNL     1       4.415  15.725  19.174  0.00  0.00    +0.000 A 
ATOM      9  N   UNL     1       5.375  16.307  19.874  0.00  0.00    +0.000 NA
ATOM     10  C   UNL     1       6.600  15.780  19.531  0.00  0.00    +0.000 A 
ATOM     11  C   UNL     1       6.585  14.840  18.529  0.00  0.00    +0.000 A 
ATOM     12  S   UNL     1       5.022  14.651  17.929  0.00  0.00    +0.000 S 
ATOM     13  C   UNL     1       7.746  14.140  18.043  0.00  0.00    +0.000 C 
ATOM     14  O   UNL     1       7.751  13.233  17.216  0.00  0.00    +0.000 OA
ATOM     15  N   UNL     1       8.936  14.563  18.618  0.00  0.00    +0.000 N 
ATOM     16  C   UNL     1       9.076  15.884  19.270  0.00  0.00    +0.000 C 
ATOM     17  C   UNL     1      10.364  15.908  20.103  0.00  0.00    +0.000 C 
ATOM     18  C   UNL     1       9.177  16.962  18.171  0.00  0.00    +0.000 C 
ATOM     19  C   UNL     1       7.863  16.175  20.210  0.00  0.00    +0.000 C 
ATOM     20  C   UNL     1       2.674  17.252  19.942  0.00  0.00    +0.000 C 
ATOM     21  C   UNL     1       1.507  17.807  19.129  0.00  0.00    +0.000 C 
ATOM     22  O   UNL     1       0.363  16.943  19.149  0.00  0.00    +0.000 OA
ATOM     23  H   UNL     1       9.750  14.129  18.199  0.00  0.00    +0.000 HD
ENDROOT
BRANCH   1  27
ATOM     24  C   UNL     1       1.882   8.721  18.688  0.00  0.00    +0.000 A 
ATOM     25  C   UNL     1       1.104   9.116  19.753  0.00  0.00    +0.000 A 
ATOM     26  C   UNL     1       0.812  10.471  19.881  0.00  0.00    +0.000 A 
ATOM     27  C   UNL     1       1.311  11.369  18.936  0.00  0.00    +0.000 A 
ATOM     28  N   UNL     1       2.063  10.924  17.902  0.00  0.00    +0.000 NA
ATOM     29  N   UNL     1       2.349   9.598  17.773  0.00  0.00    +0.000 NA
BRANCH  24  31
ATOM     30  C   UNL     1       3.355   7.169  17.778  0.00  0.00    +0.000 C 
ATOM     31  O   UNL     1       2.202   7.384  18.589  0.00  0.00    +0.000 OA
ENDBRANCH  24  31
ENDBRANCH   1  27
TORSDOF 2
ENDMDL
MODEL 8
REMARK VINA RESULT:      -6.5      4.976      9.581
REMARK  Name = 
REMARK  5 active torsions:
REMARK  status: ('A' for Active; 'I' for Inactive)
REMARK    1  A    between atoms: C_1  and  O_2
REMARK    2  A    between atoms: O_2  and  C_3
REMARK    3  A    between atoms: C_6  and  C_7
REMARK    4  A    between atoms: C_22  and  C_23
REMARK    5  A    between atoms: C_22  and  C_24
REMARK                            x       y       z     vdW  Elec       q    Type
REMARK                         _______ _______ _______ _____ _____    ______ ____
ROOT
ATOM      1  C   UNL     1       1.665  12.423  18.699  0.00  0.00    +0.000 A 
ATOM      2  C   UNL     1       2.737  13.181  18.205  0.00  0.00    +0.000 A 
ATOM      3  C   UNL     1       2.696  14.575  18.209  0.00  0.00    +0.000 A 
ATOM      4  C   UNL     1       1.587  15.240  18.730  0.00  0.00    +0.000 A 
ATOM      5  C   UNL     1       0.493  14.523  19.251  0.00  0.00    +0.000 A 
ATOM      6  C   UNL     1       0.548  13.122  19.185  0.00  0.00    +0.000 A 
ATOM      7  N   UNL     1      -0.633  15.207  19.774  0.00  0.00    +0.000 N 
ATOM      8  C   UNL     1      -1.632  14.712  20.557  0.00  0.00    +0.000 A 
ATOM      9  N   UNL     1      -2.884  15.136  20.514  0.00  0.00    +0.000 NA
ATOM     10  C   UNL     1      -3.667  14.396  21.371  0.00  0.00    +0.000 A 
ATOM     11  C   UNL     1      -3.007  13.447  22.114  0.00  0.00    +0.000 A 
ATOM     12  S   UNL     1      -1.351  13.517  21.809  0.00  0.00    +0.000 S 
ATOM     13  C   UNL     1      -3.637  12.544  23.041  0.00  0.00    +0.000 C 
ATOM     14  O   UNL     1      -3.088  11.629  23.648  0.00  0.00    +0.000 OA
ATOM     15  N   UNL     1      -4.997  12.769  23.204  0.00  0.00    +0.000 N 
ATOM     16  C   UNL     1      -5.633  14.062  22.867  0.00  0.00    +0.000 C 
ATOM     17  C   UNL     1      -7.155  13.884  22.815  0.00  0.00    +0.000 C 
ATOM     18  C   UNL     1      -5.290  15.077  23.977  0.00  0.00    +0.000 C 
ATOM     19  C   UNL     1      -5.139  14.583  21.480  0.00  0.00    +0.000 C 
ATOM     20  C   UNL     1      -0.771  16.536  19.187  0.00  0.00    +0.000 C 
ATOM     21  C   UNL     1       0.562  17.264  19.348  0.00  0.00    +0.000 C 
ATOM     22  O   UNL     1       1.632  16.613  18.652  0.00  0.00    +0.000 OA
ATOM     23  H   UNL     1      -5.406  12.189  23.928  0.00  0.00    +0.000 HD
ENDROOT
BRANCH   1  27
ATOM     24  C   UNL     1       1.900   8.249  18.507  0.00  0.00    +0.000 A 
ATOM     25  C   UNL     1       1.265   8.774  19.610  0.00  0.00    +0.000 A 
ATOM     26  C   UNL     1       1.161  10.159  19.705  0.00  0.00    +0.000 A 
ATOM     27  C   UNL     1       1.696  10.955  18.691  0.00  0.00    +0.000 A 
ATOM     28  N   UNL     1       2.302  10.385  17.623  0.00  0.00    +0.000 NA
ATOM     29  N   UNL     1       2.404   9.030  17.526  0.00  0.00    +0.000 NA
BRANCH  24  31
ATOM     30  C   UNL     1       2.866   6.371  19.479  0.00  0.00    +0.000 C 
ATOM     31  O   UNL     1       2.038   6.880  18.437  0.00  0.00    +0.000 OA
ENDBRANCH  24  31
ENDBRANCH   1  27
TORSDOF 2
ENDMDL
MODEL 9
REMARK VINA RESULT:      -6.5      5.218      9.422
REMARK  Name = 
REMARK  5 active torsions:
REMARK  status: ('A' for Active; 'I' for Inactive)
REMARK    1  A    between atoms: C_1  and  O_2
REMARK    2  A    between atoms: O_2  and  C_3
REMARK    3  A    between atoms: C_6  and  C_7
REMARK    4  A    between atoms: C_22  and  C_23
REMARK    5  A    between atoms: C_22  and  C_24
REMARK                            x       y       z     vdW  Elec       q    Type
REMARK                         _______ _______ _______ _____ _____    ______ ____
ROOT
ATOM      1  C   UNL     1       0.781  11.715  19.084  0.00  0.00    +0.000 A 
ATOM      2  C   UNL     1      -0.593  11.981  18.987  0.00  0.00    +0.000 A 
ATOM      3  C   UNL     1      -1.084  13.282  19.106  0.00  0.00    +0.000 A 
ATOM      4  C   UNL     1      -0.206  14.346  19.302  0.00  0.00    +0.000 A 
ATOM      5  C   UNL     1       1.183  14.130  19.390  0.00  0.00    +0.000 A 
ATOM      6  C   UNL     1       1.637  12.804  19.316  0.00  0.00    +0.000 A 
ATOM      7  N   UNL     1       2.069  15.218  19.594  0.00  0.00    +0.000 N 
ATOM      8  C   UNL     1       3.421  15.246  19.426  0.00  0.00    +0.000 A 
ATOM      9  N   UNL     1       4.241  15.985  20.157  0.00  0.00    +0.000 NA
ATOM     10  C   UNL     1       5.547  15.745  19.794  0.00  0.00    +0.000 A 
ATOM     11  C   UNL     1       5.726  14.872  18.749  0.00  0.00    +0.000 A 
ATOM     12  S   UNL     1       4.234  14.386  18.134  0.00  0.00    +0.000 S 
ATOM     13  C   UNL     1       7.006  14.457  18.235  0.00  0.00    +0.000 C 
ATOM     14  O   UNL     1       7.197  13.612  17.365  0.00  0.00    +0.000 OA
ATOM     15  N   UNL     1       8.083  15.094  18.834  0.00  0.00    +0.000 N 
ATOM     16  C   UNL     1       7.944  16.383  19.549  0.00  0.00    +0.000 C 
ATOM     17  C   UNL     1       9.203  16.639  20.387  0.00  0.00    +0.000 C 
ATOM     18  C   UNL     1       7.808  17.508  18.503  0.00  0.00    +0.000 C 
ATOM     19  C   UNL     1       6.703  16.366  20.496  0.00  0.00    +0.000 C 
ATOM     20  C   UNL     1       1.402  16.332  20.259  0.00  0.00    +0.000 C 
ATOM     21  C   UNL     1       0.139  16.666  19.469  0.00  0.00    +0.000 C 
ATOM     22  O   UNL     1      -0.796  15.580  19.443  0.00  0.00    +0.000 OA
ATOM     23  H   UNL     1       8.968  14.863  18.398  0.00  0.00    +0.000 HD
ENDROOT
BRANCH   1  27
ATOM     24  C   UNL     1       2.173   7.771  18.945  0.00  0.00    +0.000 A 
ATOM     25  C   UNL     1       2.354   8.522  17.805  0.00  0.00    +0.000 A 
ATOM     26  C   UNL     1       1.910   9.841  17.816  0.00  0.00    +0.000 A 
ATOM     27  C   UNL     1       1.307  10.349  18.968  0.00  0.00    +0.000 A 
ATOM     28  N   UNL     1       1.164   9.568  20.065  0.00  0.00    +0.000 NA
ATOM     29  N   UNL     1       1.599   8.277  20.058  0.00  0.00    +0.000 NA
BRANCH  24  31
ATOM     30  C   UNL     1       3.694   6.255  18.053  0.00  0.00    +0.000 C 
ATOM     31  O   UNL     1       2.577   6.453  18.916  0.00  0.00    +0.000 OA
ENDBRANCH  24  31
ENDBRANCH   1  27
TORSDOF 2
ENDMDL
