MODEL 1
REMARK VINA RESULT:      -8.6      0.000      0.000
REMARK  Name = 
REMARK  3 active torsions:
REMARK  status: ('A' for Active; 'I' for Inactive)
REMARK    1  A    between atoms: C_3  and  C_4
REMARK    2  A    between atoms: C_13  and  C_14
REMARK    3  A    between atoms: C_21  and  O_22
REMARK                            x       y       z     vdW  Elec       q    Type
REMARK                         _______ _______ _______ _____ _____    ______ ____
ROOT
ATOM      1  O   UNL     1       3.588   8.321  17.731  0.00  0.00    +0.000 OA
ATOM      2  C   UNL     1       3.495   7.129  18.004  0.00  0.00    +0.000 A 
ATOM      3  C   UNL     1       2.660   6.609  19.127  0.00  0.00    +0.000 A 
ATOM      4  C   UNL     1       2.654   5.276  19.356  0.00  0.00    +0.000 A 
ATOM      5  O   UNL     1       3.359   4.357  18.580  0.00  0.00    +0.000 OA
ATOM      6  C   UNL     1       4.093   4.795  17.516  0.00  0.00    +0.000 A 
ATOM      7  C   UNL     1       4.732   3.823  16.743  0.00  0.00    +0.000 A 
ATOM      8  C   UNL     1       5.512   4.221  15.661  0.00  0.00    +0.000 A 
ATOM      9  C   UNL     1       5.669   5.569  15.349  0.00  0.00    +0.000 A 
ATOM     10  C   UNL     1       5.018   6.536  16.117  0.00  0.00    +0.000 A 
ATOM     11  C   UNL     1       4.222   6.140  17.197  0.00  0.00    +0.000 A 
ENDROOT
BRANCH   3  12
ATOM     12  C   UNL     1       1.885   7.517  19.916  0.00  0.00    +0.000 A 
ATOM     13  C   UNL     1       1.776   7.642  21.302  0.00  0.00    +0.000 A 
ATOM     14  C   UNL     1       0.940   8.751  21.592  0.00  0.00    +0.000 A 
ATOM     15  C   UNL     1       0.487   9.400  22.753  0.00  0.00    +0.000 A 
ATOM     16  C   UNL     1      -0.340  10.524  22.610  0.00  0.00    +0.000 A 
ATOM     17  C   UNL     1      -0.718  10.988  21.346  0.00  0.00    +0.000 A 
ATOM     18  C   UNL     1      -0.284  10.346  20.183  0.00  0.00    +0.000 A 
ATOM     19  C   UNL     1       0.545   9.240  20.361  0.00  0.00    +0.000 A 
ATOM     20  O   UNL     1       1.085   8.499  19.368  0.00  0.00    +0.000 OA
ENDBRANCH   3  12
BRANCH   4  21
ATOM     21  C   UNL     1       1.851   4.593  20.435  0.00  0.00    +0.000 C 
ATOM     22  F   UNL     1       1.786   3.245  20.234  0.00  0.00    +0.000 F 
ATOM     23  F   UNL     1       2.389   4.748  21.672  0.00  0.00    +0.000 F 
ATOM     24  F   UNL     1       0.563   5.018  20.478  0.00  0.00    +0.000 F 
ENDBRANCH   4  21
BRANCH   8  25
ATOM     25  O   UNL     1       6.149   3.312  14.871  0.00  0.00    +0.000 OA
ATOM     26  H   UNL     1       5.675   3.236  14.025  0.00  0.00    +0.000 HD
ENDBRANCH   8  25
TORSDOF 3
ENDMDL
MODEL 2
REMARK VINA RESULT:      -8.5      1.525      6.869
REMARK  Name = 
REMARK  3 active torsions:
REMARK  status: ('A' for Active; 'I' for Inactive)
REMARK    1  A    between atoms: C_3  and  C_4
REMARK    2  A    between atoms: C_13  and  C_14
REMARK    3  A    between atoms: C_21  and  O_22
REMARK                            x       y       z     vdW  Elec       q    Type
REMARK                         _______ _______ _______ _____ _____    ______ ____
ROOT
ATOM      1  O   UNL     1       2.673   8.743  17.470  0.00  0.00    +0.000 OA
ATOM      2  C   UNL     1       2.327   8.153  18.487  0.00  0.00    +0.000 A 
ATOM      3  C   UNL     1       2.773   6.767  18.820  0.00  0.00    +0.000 A 
ATOM      4  C   UNL     1       2.306   6.200  19.955  0.00  0.00    +0.000 A 
ATOM      5  O   UNL     1       1.456   6.851  20.850  0.00  0.00    +0.000 OA
ATOM      6  C   UNL     1       1.069   8.136  20.599  0.00  0.00    +0.000 A 
ATOM      7  C   UNL     1       0.264   8.754  21.558  0.00  0.00    +0.000 A 
ATOM      8  C   UNL     1      -0.177  10.055  21.337  0.00  0.00    +0.000 A 
ATOM      9  C   UNL     1       0.166  10.739  20.174  0.00  0.00    +0.000 A 
ATOM     10  C   UNL     1       0.982  10.122  19.225  0.00  0.00    +0.000 A 
ATOM     11  C   UNL     1       1.439   8.818  19.449  0.00  0.00    +0.000 A 
ENDROOT
BRANCH   3  12
ATOM     12  C   UNL     1       3.682   6.084  17.951  0.00  0.00    +0.000 A 
ATOM     13  C   UNL     1       3.480   4.982  17.120  0.00  0.00    +0.000 A 
ATOM     14  C   UNL     1       4.675   4.735  16.397  0.00  0.00    +0.000 A 
ATOM     15  C   UNL     1       5.090   3.826  15.409  0.00  0.00    +0.000 A 
ATOM     16  C   UNL     1       6.399   3.931  14.913  0.00  0.00    +0.000 A 
ATOM     17  C   UNL     1       7.278   4.907  15.392  0.00  0.00    +0.000 A 
ATOM     18  C   UNL     1       6.882   5.810  16.383  0.00  0.00    +0.000 A 
ATOM     19  C   UNL     1       5.574   5.685  16.845  0.00  0.00    +0.000 A 
ATOM     20  O   UNL     1       4.995   6.472  17.779  0.00  0.00    +0.000 OA
ENDBRANCH   3  12
BRANCH   4  21
ATOM     21  C   UNL     1       2.674   4.821  20.442  0.00  0.00    +0.000 C 
ATOM     22  F   UNL     1       2.391   4.665  21.768  0.00  0.00    +0.000 F 
ATOM     23  F   UNL     1       1.988   3.836  19.808  0.00  0.00    +0.000 F 
ATOM     24  F   UNL     1       3.999   4.558  20.319  0.00  0.00    +0.000 F 
ENDBRANCH   4  21
BRANCH   8  25
ATOM     25  O   UNL     1      -0.958  10.706  22.245  0.00  0.00    +0.000 OA
ATOM     26  H   UNL     1      -1.141  10.113  22.993  0.00  0.00    +0.000 HD
ENDBRANCH   8  25
TORSDOF 3
ENDMDL
MODEL 3
REMARK VINA RESULT:      -8.4      0.573      1.191
REMARK  Name = 
REMARK  3 active torsions:
REMARK  status: ('A' for Active; 'I' for Inactive)
REMARK    1  A    between atoms: C_3  and  C_4
REMARK    2  A    between atoms: C_13  and  C_14
REMARK    3  A    between atoms: C_21  and  O_22
REMARK                            x       y       z     vdW  Elec       q    Type
REMARK                         _______ _______ _______ _____ _____    ______ ____
ROOT
ATOM      1  O   UNL     1       3.629   8.431  17.545  0.00  0.00    +0.000 OA
ATOM      2  C   UNL     1       3.506   7.261  17.890  0.00  0.00    +0.000 A 
ATOM      3  C   UNL     1       2.643   6.831  19.030  0.00  0.00    +0.000 A 
ATOM      4  C   UNL     1       2.604   5.516  19.343  0.00  0.00    +0.000 A 
ATOM      5  O   UNL     1       3.300   4.535  18.637  0.00  0.00    +0.000 OA
ATOM      6  C   UNL     1       4.059   4.889  17.559  0.00  0.00    +0.000 A 
ATOM      7  C   UNL     1       4.688   3.857  16.860  0.00  0.00    +0.000 A 
ATOM      8  C   UNL     1       5.493   4.169  15.768  0.00  0.00    +0.000 A 
ATOM      9  C   UNL     1       5.684   5.491  15.375  0.00  0.00    +0.000 A 
ATOM     10  C   UNL     1       5.043   6.518  16.069  0.00  0.00    +0.000 A 
ATOM     11  C   UNL     1       4.222   6.208  17.159  0.00  0.00    +0.000 A 
ENDROOT
BRANCH   3  12
ATOM     12  C   UNL     1       1.877   7.804  19.749  0.00  0.00    +0.000 A 
ATOM     13  C   UNL     1       1.034   8.812  19.281  0.00  0.00    +0.000 A 
ATOM     14  C   UNL     1       0.441   9.459  20.397  0.00  0.00    +0.000 A 
ATOM     15  C   UNL     1      -0.494  10.490  20.589  0.00  0.00    +0.000 A 
ATOM     16  C   UNL     1      -0.849  10.833  21.902  0.00  0.00    +0.000 A 
ATOM     17  C   UNL     1      -0.284  10.175  23.000  0.00  0.00    +0.000 A 
ATOM     18  C   UNL     1       0.656   9.157  22.823  0.00  0.00    +0.000 A 
ATOM     19  C   UNL     1       0.978   8.835  21.507  0.00  0.00    +0.000 A 
ATOM     20  O   UNL     1       1.844   7.868  21.126  0.00  0.00    +0.000 OA
ENDBRANCH   3  12
BRANCH   4  21
ATOM     21  C   UNL     1       1.771   4.919  20.449  0.00  0.00    +0.000 C 
ATOM     22  F   UNL     1       1.547   3.589  20.246  0.00  0.00    +0.000 F 
ATOM     23  F   UNL     1       2.368   5.004  21.665  0.00  0.00    +0.000 F 
ATOM     24  F   UNL     1       0.541   5.486  20.542  0.00  0.00    +0.000 F 
ENDBRANCH   4  21
BRANCH   8  25
ATOM     25  O   UNL     1       6.121   3.199  15.046  0.00  0.00    +0.000 OA
ATOM     26  H   UNL     1       5.483   2.499  14.827  0.00  0.00    +0.000 HD
ENDBRANCH   8  25
TORSDOF 3
ENDMDL
MODEL 4
REMARK VINA RESULT:      -8.3      1.493      6.861
REMARK  Name = 
REMARK  3 active torsions:
REMARK  status: ('A' for Active; 'I' for Inactive)
REMARK    1  A    between atoms: C_3  and  C_4
REMARK    2  A    between atoms: C_13  and  C_14
REMARK    3  A    between atoms: C_21  and  O_22
REMARK                            x       y       z     vdW  Elec       q    Type
REMARK                         _______ _______ _______ _____ _____    ______ ____
ROOT
ATOM      1  O   UNL     1       2.545   9.143  17.475  0.00  0.00    +0.000 OA
ATOM      2  C   UNL     1       2.238   8.498  18.471  0.00  0.00    +0.000 A 
ATOM      3  C   UNL     1       2.771   7.133  18.758  0.00  0.00    +0.000 A 
ATOM      4  C   UNL     1       2.342   6.500  19.873  0.00  0.00    +0.000 A 
ATOM      5  O   UNL     1       1.453   7.065  20.788  0.00  0.00    +0.000 OA
ATOM      6  C   UNL     1       0.985   8.330  20.580  0.00  0.00    +0.000 A 
ATOM      7  C   UNL     1       0.143   8.864  21.558  0.00  0.00    +0.000 A 
ATOM      8  C   UNL     1      -0.380  10.141  21.380  0.00  0.00    +0.000 A 
ATOM      9  C   UNL     1      -0.081  10.884  20.241  0.00  0.00    +0.000 A 
ATOM     10  C   UNL     1       0.771  10.353  19.273  0.00  0.00    +0.000 A 
ATOM     11  C   UNL     1       1.310   9.073  19.454  0.00  0.00    +0.000 A 
ENDROOT
BRANCH   3  12
ATOM     12  C   UNL     1       3.721   6.539  17.868  0.00  0.00    +0.000 A 
ATOM     13  C   UNL     1       4.993   6.969  17.488  0.00  0.00    +0.000 A 
ATOM     14  C   UNL     1       5.569   5.985  16.644  0.00  0.00    +0.000 A 
ATOM     15  C   UNL     1       6.799   5.810  15.987  0.00  0.00    +0.000 A 
ATOM     16  C   UNL     1       6.995   4.640  15.237  0.00  0.00    +0.000 A 
ATOM     17  C   UNL     1       5.992   3.671  15.133  0.00  0.00    +0.000 A 
ATOM     18  C   UNL     1       4.760   3.837  15.771  0.00  0.00    +0.000 A 
ATOM     19  C   UNL     1       4.604   5.004  16.516  0.00  0.00    +0.000 A 
ATOM     20  O   UNL     1       3.501   5.340  17.222  0.00  0.00    +0.000 OA
ENDBRANCH   3  12
BRANCH   4  21
ATOM     21  C   UNL     1       2.797   5.131  20.314  0.00  0.00    +0.000 C 
ATOM     22  F   UNL     1       2.235   4.147  19.554  0.00  0.00    +0.000 F 
ATOM     23  F   UNL     1       4.138   4.957  20.196  0.00  0.00    +0.000 F 
ATOM     24  F   UNL     1       2.446   4.849  21.594  0.00  0.00    +0.000 F 
ENDBRANCH   4  21
BRANCH   8  25
ATOM     25  O   UNL     1      -1.199  10.710  22.308  0.00  0.00    +0.000 OA
ATOM     26  H   UNL     1      -0.884  10.479  23.198  0.00  0.00    +0.000 HD
ENDBRANCH   8  25
TORSDOF 3
ENDMDL
MODEL 5
REMARK VINA RESULT:      -7.7      4.627      7.844
REMARK  Name = 
REMARK  3 active torsions:
REMARK  status: ('A' for Active; 'I' for Inactive)
REMARK    1  A    between atoms: C_3  and  C_4
REMARK    2  A    between atoms: C_13  and  C_14
REMARK    3  A    between atoms: C_21  and  O_22
REMARK                            x       y       z     vdW  Elec       q    Type
REMARK                         _______ _______ _______ _____ _____    ______ ____
ROOT
ATOM      1  O   UNL     1       2.847   3.020  16.309  0.00  0.00    +0.000 OA
ATOM      2  C   UNL     1       3.439   3.383  17.319  0.00  0.00    +0.000 A 
ATOM      3  C   UNL     1       4.787   4.024  17.291  0.00  0.00    +0.000 A 
ATOM      4  C   UNL     1       5.362   4.358  18.469  0.00  0.00    +0.000 A 
ATOM      5  O   UNL     1       4.749   4.167  19.707  0.00  0.00    +0.000 OA
ATOM      6  C   UNL     1       3.496   3.629  19.764  0.00  0.00    +0.000 A 
ATOM      7  C   UNL     1       2.912   3.513  21.028  0.00  0.00    +0.000 A 
ATOM      8  C   UNL     1       1.646   2.948  21.141  0.00  0.00    +0.000 A 
ATOM      9  C   UNL     1       0.963   2.491  20.017  0.00  0.00    +0.000 A 
ATOM     10  C   UNL     1       1.545   2.620  18.755  0.00  0.00    +0.000 A 
ATOM     11  C   UNL     1       2.813   3.200  18.635  0.00  0.00    +0.000 A 
ENDROOT
BRANCH   3  12
ATOM     12  C   UNL     1       5.428   4.279  16.036  0.00  0.00    +0.000 A 
ATOM     13  C   UNL     1       6.337   5.273  15.673  0.00  0.00    +0.000 A 
ATOM     14  C   UNL     1       6.740   5.048  14.332  0.00  0.00    +0.000 A 
ATOM     15  C   UNL     1       7.634   5.652  13.430  0.00  0.00    +0.000 A 
ATOM     16  C   UNL     1       7.771   5.091  12.151  0.00  0.00    +0.000 A 
ATOM     17  C   UNL     1       7.033   3.965  11.772  0.00  0.00    +0.000 A 
ATOM     18  C   UNL     1       6.133   3.363  12.654  0.00  0.00    +0.000 A 
ATOM     19  C   UNL     1       6.029   3.938  13.919  0.00  0.00    +0.000 A 
ATOM     20  O   UNL     1       5.236   3.493  14.919  0.00  0.00    +0.000 OA
ENDBRANCH   3  12
BRANCH   4  21
ATOM     21  C   UNL     1       6.706   5.027  18.611  0.00  0.00    +0.000 C 
ATOM     22  F   UNL     1       7.047   5.194  19.921  0.00  0.00    +0.000 F 
ATOM     23  F   UNL     1       7.716   4.305  18.064  0.00  0.00    +0.000 F 
ATOM     24  F   UNL     1       6.732   6.270  18.066  0.00  0.00    +0.000 F 
ENDBRANCH   4  21
BRANCH   8  25
ATOM     25  O   UNL     1       1.028   2.820  22.349  0.00  0.00    +0.000 OA
ATOM     26  H   UNL     1       1.211   1.936  22.710  0.00  0.00    +0.000 HD
ENDBRANCH   8  25
TORSDOF 3
ENDMDL
MODEL 6
REMARK VINA RESULT:      -7.5      4.323      6.806
REMARK  Name = 
REMARK  3 active torsions:
REMARK  status: ('A' for Active; 'I' for Inactive)
REMARK    1  A    between atoms: C_3  and  C_4
REMARK    2  A    between atoms: C_13  and  C_14
REMARK    3  A    between atoms: C_21  and  O_22
REMARK                            x       y       z     vdW  Elec       q    Type
REMARK                         _______ _______ _______ _____ _____    ______ ____
ROOT
ATOM      1  O   UNL     1       0.099   9.734  22.793  0.00  0.00    +0.000 OA
ATOM      2  C   UNL     1       0.133  10.096  21.623  0.00  0.00    +0.000 A 
ATOM      3  C   UNL     1      -0.506  11.355  21.137  0.00  0.00    +0.000 A 
ATOM      4  C   UNL     1      -0.432  11.642  19.817  0.00  0.00    +0.000 A 
ATOM      5  O   UNL     1       0.238  10.843  18.890  0.00  0.00    +0.000 OA
ATOM      6  C   UNL     1       0.874   9.711  19.310  0.00  0.00    +0.000 A 
ATOM      7  C   UNL     1       1.574   8.982  18.347  0.00  0.00    +0.000 A 
ATOM      8  C   UNL     1       2.219   7.807  18.721  0.00  0.00    +0.000 A 
ATOM      9  C   UNL     1       2.167   7.349  20.034  0.00  0.00    +0.000 A 
ATOM     10  C   UNL     1       1.477   8.087  20.997  0.00  0.00    +0.000 A 
ATOM     11  C   UNL     1       0.838   9.277  20.628  0.00  0.00    +0.000 A 
ENDROOT
BRANCH   3  12
ATOM     12  C   UNL     1      -1.162  12.224  22.066  0.00  0.00    +0.000 A 
ATOM     13  C   UNL     1      -2.457  12.180  22.582  0.00  0.00    +0.000 A 
ATOM     14  C   UNL     1      -2.600  13.223  23.533  0.00  0.00    +0.000 A 
ATOM     15  C   UNL     1      -3.612  13.670  24.400  0.00  0.00    +0.000 A 
ATOM     16  C   UNL     1      -3.341  14.765  25.234  0.00  0.00    +0.000 A 
ATOM     17  C   UNL     1      -2.099  15.408  25.204  0.00  0.00    +0.000 A 
ATOM     18  C   UNL     1      -1.088  14.981  24.339  0.00  0.00    +0.000 A 
ATOM     19  C   UNL     1      -1.387  13.885  23.532  0.00  0.00    +0.000 A 
ATOM     20  O   UNL     1      -0.541  13.309  22.650  0.00  0.00    +0.000 OA
ENDBRANCH   3  12
BRANCH   4  21
ATOM     21  C   UNL     1      -1.006  12.878  19.173  0.00  0.00    +0.000 C 
ATOM     22  F   UNL     1      -0.870  12.846  17.816  0.00  0.00    +0.000 F 
ATOM     23  F   UNL     1      -2.337  13.022  19.399  0.00  0.00    +0.000 F 
ATOM     24  F   UNL     1      -0.385  14.016  19.575  0.00  0.00    +0.000 F 
ENDBRANCH   4  21
BRANCH   8  25
ATOM     25  O   UNL     1       2.923   7.064  17.821  0.00  0.00    +0.000 OA
ATOM     26  H   UNL     1       3.875   7.191  17.975  0.00  0.00    +0.000 HD
ENDBRANCH   8  25
TORSDOF 3
ENDMDL
MODEL 7
REMARK VINA RESULT:      -7.5      2.772      4.283
REMARK  Name = 
REMARK  3 active torsions:
REMARK  status: ('A' for Active; 'I' for Inactive)
REMARK    1  A    between atoms: C_3  and  C_4
REMARK    2  A    between atoms: C_13  and  C_14
REMARK    3  A    between atoms: C_21  and  O_22
REMARK                            x       y       z     vdW  Elec       q    Type
REMARK                         _______ _______ _______ _____ _____    ______ ____
ROOT
ATOM      1  O   UNL     1       2.543   8.777  17.489  0.00  0.00    +0.000 OA
ATOM      2  C   UNL     1       2.159   8.290  18.547  0.00  0.00    +0.000 A 
ATOM      3  C   UNL     1       1.408   9.064  19.579  0.00  0.00    +0.000 A 
ATOM      4  C   UNL     1       1.058   8.433  20.723  0.00  0.00    +0.000 A 
ATOM      5  O   UNL     1       1.331   7.089  20.977  0.00  0.00    +0.000 OA
ATOM      6  C   UNL     1       1.972   6.340  20.033  0.00  0.00    +0.000 A 
ATOM      7  C   UNL     1       2.168   4.988  20.321  0.00  0.00    +0.000 A 
ATOM      8  C   UNL     1       2.840   4.188  19.401  0.00  0.00    +0.000 A 
ATOM      9  C   UNL     1       3.322   4.721  18.209  0.00  0.00    +0.000 A 
ATOM     10  C   UNL     1       3.113   6.069  17.919  0.00  0.00    +0.000 A 
ATOM     11  C   UNL     1       2.427   6.875  18.836  0.00  0.00    +0.000 A 
ENDROOT
BRANCH   3  12
ATOM     12  C   UNL     1       1.068  10.432  19.334  0.00  0.00    +0.000 A 
ATOM     13  C   UNL     1      -0.001  10.984  18.627  0.00  0.00    +0.000 A 
ATOM     14  C   UNL     1       0.061  12.397  18.744  0.00  0.00    +0.000 A 
ATOM     15  C   UNL     1      -0.719  13.482  18.310  0.00  0.00    +0.000 A 
ATOM     16  C   UNL     1      -0.317  14.778  18.668  0.00  0.00    +0.000 A 
ATOM     17  C   UNL     1       0.836  14.993  19.430  0.00  0.00    +0.000 A 
ATOM     18  C   UNL     1       1.627  13.924  19.858  0.00  0.00    +0.000 A 
ATOM     19  C   UNL     1       1.193  12.651  19.494  0.00  0.00    +0.000 A 
ATOM     20  O   UNL     1       1.803  11.491  19.828  0.00  0.00    +0.000 OA
ENDBRANCH   3  12
BRANCH   4  21
ATOM     21  C   UNL     1       0.283   9.066  21.851  0.00  0.00    +0.000 C 
ATOM     22  F   UNL     1      -0.674   8.223  22.337  0.00  0.00    +0.000 F 
ATOM     23  F   UNL     1       1.063   9.379  22.918  0.00  0.00    +0.000 F 
ATOM     24  F   UNL     1      -0.378  10.187  21.469  0.00  0.00    +0.000 F 
ENDBRANCH   4  21
BRANCH   8  25
ATOM     25  O   UNL     1       3.049   2.862  19.630  0.00  0.00    +0.000 OA
ATOM     26  H   UNL     1       2.425   2.342  19.095  0.00  0.00    +0.000 HD
ENDBRANCH   8  25
TORSDOF 3
ENDMDL
MODEL 8
REMARK VINA RESULT:      -7.4      1.776      7.044
REMARK  Name = 
REMARK  3 active torsions:
REMARK  status: ('A' for Active; 'I' for Inactive)
REMARK    1  A    between atoms: C_3  and  C_4
REMARK    2  A    between atoms: C_13  and  C_14
REMARK    3  A    between atoms: C_21  and  O_22
REMARK                            x       y       z     vdW  Elec       q    Type
REMARK                         _______ _______ _______ _____ _____    ______ ____
ROOT
ATOM      1  O   UNL     1       2.973   8.321  17.081  0.00  0.00    +0.000 OA
ATOM      2  C   UNL     1       2.867   7.548  18.027  0.00  0.00    +0.000 A 
ATOM      3  C   UNL     1       3.572   6.234  18.093  0.00  0.00    +0.000 A 
ATOM      4  C   UNL     1       3.359   5.446  19.172  0.00  0.00    +0.000 A 
ATOM      5  O   UNL     1       2.542   5.809  20.242  0.00  0.00    +0.000 OA
ATOM      6  C   UNL     1       1.921   7.026  20.236  0.00  0.00    +0.000 A 
ATOM      7  C   UNL     1       1.161   7.356  21.359  0.00  0.00    +0.000 A 
ATOM      8  C   UNL     1       0.489   8.574  21.390  0.00  0.00    +0.000 A 
ATOM      9  C   UNL     1       0.559   9.457  20.315  0.00  0.00    +0.000 A 
ATOM     10  C   UNL     1       1.330   9.128  19.200  0.00  0.00    +0.000 A 
ATOM     11  C   UNL     1       2.018   7.910  19.170  0.00  0.00    +0.000 A 
ENDROOT
BRANCH   3  12
ATOM     12  C   UNL     1       4.456   5.847  17.036  0.00  0.00    +0.000 A 
ATOM     13  C   UNL     1       5.781   6.208  16.789  0.00  0.00    +0.000 A 
ATOM     14  C   UNL     1       6.242   5.490  15.656  0.00  0.00    +0.000 A 
ATOM     15  C   UNL     1       7.453   5.383  14.951  0.00  0.00    +0.000 A 
ATOM     16  C   UNL     1       7.511   4.509  13.855  0.00  0.00    +0.000 A 
ATOM     17  C   UNL     1       6.393   3.766  13.461  0.00  0.00    +0.000 A 
ATOM     18  C   UNL     1       5.180   3.873  14.146  0.00  0.00    +0.000 A 
ATOM     19  C   UNL     1       5.160   4.740  15.235  0.00  0.00    +0.000 A 
ATOM     20  O   UNL     1       4.095   4.965  16.037  0.00  0.00    +0.000 OA
ENDBRANCH   3  12
BRANCH   4  21
ATOM     21  C   UNL     1       4.007   4.104  19.398  0.00  0.00    +0.000 C 
ATOM     22  F   UNL     1       3.460   3.457  20.467  0.00  0.00    +0.000 F 
ATOM     23  F   UNL     1       3.854   3.259  18.347  0.00  0.00    +0.000 F 
ATOM     24  F   UNL     1       5.333   4.202  19.671  0.00  0.00    +0.000 F 
ENDBRANCH   4  21
BRANCH   8  25
ATOM     25  O   UNL     1      -0.258   8.948  22.466  0.00  0.00    +0.000 OA
ATOM     26  H   UNL     1      -0.550   8.154  22.945  0.00  0.00    +0.000 HD
ENDBRANCH   8  25
TORSDOF 3
ENDMDL
MODEL 9
REMARK VINA RESULT:      -7.2      8.872      9.925
REMARK  Name = 
REMARK  3 active torsions:
REMARK  status: ('A' for Active; 'I' for Inactive)
REMARK    1  A    between atoms: C_3  and  C_4
REMARK    2  A    between atoms: C_13  and  C_14
REMARK    3  A    between atoms: C_21  and  O_22
REMARK                            x       y       z     vdW  Elec       q    Type
REMARK                         _______ _______ _______ _____ _____    ______ ____
ROOT
ATOM      1  O   UNL     1       9.641  10.888  21.264  0.00  0.00    +0.000 OA
ATOM      2  C   UNL     1       9.386  11.978  20.763  0.00  0.00    +0.000 A 
ATOM      3  C   UNL     1       8.501  12.990  21.412  0.00  0.00    +0.000 A 
ATOM      4  C   UNL     1       8.263  14.148  20.755  0.00  0.00    +0.000 A 
ATOM      5  O   UNL     1       8.828  14.463  19.519  0.00  0.00    +0.000 OA
ATOM      6  C   UNL     1       9.681  13.580  18.922  0.00  0.00    +0.000 A 
ATOM      7  C   UNL     1      10.258  13.974  17.713  0.00  0.00    +0.000 A 
ATOM      8  C   UNL     1      11.115  13.099  17.052  0.00  0.00    +0.000 A 
ATOM      9  C   UNL     1      11.394  11.840  17.577  0.00  0.00    +0.000 A 
ATOM     10  C   UNL     1      10.826  11.455  18.791  0.00  0.00    +0.000 A 
ATOM     11  C   UNL     1       9.973  12.337  19.466  0.00  0.00    +0.000 A 
ENDROOT
BRANCH   3  12
ATOM     12  C   UNL     1       7.941  12.722  22.702  0.00  0.00    +0.000 A 
ATOM     13  C   UNL     1       6.844  11.939  23.064  0.00  0.00    +0.000 A 
ATOM     14  C   UNL     1       6.745  11.929  24.480  0.00  0.00    +0.000 A 
ATOM     15  C   UNL     1       5.911  11.316  25.430  0.00  0.00    +0.000 A 
ATOM     16  C   UNL     1       6.166  11.548  26.790  0.00  0.00    +0.000 A 
ATOM     17  C   UNL     1       7.218  12.375  27.198  0.00  0.00    +0.000 A 
ATOM     18  C   UNL     1       8.048  12.999  26.263  0.00  0.00    +0.000 A 
ATOM     19  C   UNL     1       7.773  12.739  24.923  0.00  0.00    +0.000 A 
ATOM     20  O   UNL     1       8.470  13.227  23.872  0.00  0.00    +0.000 OA
ENDBRANCH   3  12
BRANCH   4  21
ATOM     21  C   UNL     1       7.411  15.276  21.280  0.00  0.00    +0.000 C 
ATOM     22  F   UNL     1       7.295  16.283  20.368  0.00  0.00    +0.000 F 
ATOM     23  F   UNL     1       6.139  14.891  21.558  0.00  0.00    +0.000 F 
ATOM     24  F   UNL     1       7.931  15.850  22.394  0.00  0.00    +0.000 F 
ENDBRANCH   4  21
BRANCH   8  25
ATOM     25  O   UNL     1      11.711  13.439  15.875  0.00  0.00    +0.000 OA
ATOM     26  H   UNL     1      12.368  14.137  16.038  0.00  0.00    +0.000 HD
ENDBRANCH   8  25
TORSDOF 3
ENDMDL
