MODEL 1
REMARK VINA RESULT:      -7.1      0.000      0.000
REMARK  Name = 
REMARK  11 active torsions:
REMARK  status: ('A' for Active; 'I' for Inactive)
REMARK    1  A    between atoms: C_1  and  C_2
REMARK    2  A    between atoms: C_2  and  C_3
REMARK    3  A    between atoms: C_2  and  C_4
REMARK    4  A    between atoms: C_2  and  C_5
REMARK    5  A    between atoms: C_8  and  C_9
REMARK    6  A    between atoms: N_11  and  C_12
REMARK    7  A    between atoms: N_11  and  C_19
REMARK    8  A    between atoms: C_12  and  C_13
REMARK    9  A    between atoms: C_22  and  C_23
REMARK   10  A    between atoms: C_23  and  C_24
REMARK   11  A    between atoms: C_24  and  O_26
REMARK                            x       y       z     vdW  Elec       q    Type
REMARK                         _______ _______ _______ _____ _____    ______ ____
ROOT
ATOM      1  C   UNL     1      -0.072  12.611  19.095  0.00  0.00    +0.000 C 
ATOM      2  O   UNL     1      -0.948  13.482  19.143  0.00  0.00    +0.000 OA
ATOM      3  N   UNL     1      -0.400  11.248  18.916  0.00  0.00    +0.000 N 
ENDROOT
BRANCH   1   7
ATOM      4  C   UNL     1       3.906  14.313  19.608  0.00  0.00    +0.000 A 
ATOM      5  C   UNL     1       3.356  14.039  18.347  0.00  0.00    +0.000 A 
ATOM      6  C   UNL     1       2.093  13.442  18.213  0.00  0.00    +0.000 A 
ATOM      7  C   UNL     1       1.342  13.076  19.336  0.00  0.00    +0.000 A 
ATOM      8  C   UNL     1       1.960  13.184  20.580  0.00  0.00    +0.000 A 
ATOM      9  C   UNL     1       3.207  13.821  20.721  0.00  0.00    +0.000 A 
BRANCH   4  11
ATOM     10  C   UNL     1       5.988  14.775  21.050  0.00  0.00    +0.000 C 
ATOM     11  C   UNL     1       5.178  15.165  19.794  0.00  0.00    +0.000 C 
ATOM     12  C   UNL     1       4.842  16.664  19.902  0.00  0.00    +0.000 C 
ATOM     13  C   UNL     1       6.106  14.963  18.573  0.00  0.00    +0.000 C 
ENDBRANCH   4  11
ENDBRANCH   1   7
BRANCH   3  14
ATOM     14  C   UNL     1       0.540  10.200  19.004  0.00  0.00    +0.000 A 
ATOM     15  C   UNL     1       1.311   9.814  17.905  0.00  0.00    +0.000 A 
ATOM     16  C   UNL     1       2.153   8.702  18.006  0.00  0.00    +0.000 A 
ATOM     17  C   UNL     1       2.221   7.969  19.203  0.00  0.00    +0.000 A 
ATOM     18  C   UNL     1       1.474   8.397  20.309  0.00  0.00    +0.000 A 
ATOM     19  C   UNL     1       0.662   9.525  20.220  0.00  0.00    +0.000 A 
BRANCH  17  20
ATOM     20  C   UNL     1       3.060   6.714  19.296  0.00  0.00    +0.000 C 
BRANCH  20  21
ATOM     21  C   UNL     1       2.375   5.503  19.888  0.00  0.00    +0.000 C 
ATOM     22  O   UNL     1       1.699   4.733  19.218  0.00  0.00    +0.000 OA
BRANCH  21  23
ATOM     23  O   UNL     1       2.484   5.365  21.229  0.00  0.00    +0.000 OA
ATOM     24  H   UNL     1       1.761   5.785  21.736  0.00  0.00    +0.000 HD
ENDBRANCH  21  23
ENDBRANCH  20  21
ENDBRANCH  17  20
ENDBRANCH   3  14
BRANCH   3  25
ATOM     25  C   UNL     1      -1.802  10.844  19.106  0.00  0.00    +0.000 C 
BRANCH  25  26
ATOM     26  C   UNL     1      -2.608  10.678  17.834  0.00  0.00    +0.000 A 
ATOM     27  C   UNL     1      -3.783  11.425  17.622  0.00  0.00    +0.000 A 
ATOM     28  C   UNL     1      -4.422  11.405  16.381  0.00  0.00    +0.000 A 
ATOM     29  C   UNL     1      -3.912  10.637  15.340  0.00  0.00    +0.000 A 
ATOM     30  C   UNL     1      -2.775   9.856  15.549  0.00  0.00    +0.000 A 
ATOM     31  C   UNL     1      -2.132   9.874  16.791  0.00  0.00    +0.000 A 
ENDBRANCH  25  26
ENDBRANCH   3  25
TORSDOF 8
ENDMDL
MODEL 2
REMARK VINA RESULT:      -7.0      0.748      1.216
REMARK  Name = 
REMARK  11 active torsions:
REMARK  status: ('A' for Active; 'I' for Inactive)
REMARK    1  A    between atoms: C_1  and  C_2
REMARK    2  A    between atoms: C_2  and  C_3
REMARK    3  A    between atoms: C_2  and  C_4
REMARK    4  A    between atoms: C_2  and  C_5
REMARK    5  A    between atoms: C_8  and  C_9
REMARK    6  A    between atoms: N_11  and  C_12
REMARK    7  A    between atoms: N_11  and  C_19
REMARK    8  A    between atoms: C_12  and  C_13
REMARK    9  A    between atoms: C_22  and  C_23
REMARK   10  A    between atoms: C_23  and  C_24
REMARK   11  A    between atoms: C_24  and  O_26
REMARK                            x       y       z     vdW  Elec       q    Type
REMARK                         _______ _______ _______ _____ _____    ______ ____
ROOT
ATOM      1  C   UNL     1      -0.088  12.628  19.064  0.00  0.00    +0.000 C 
ATOM      2  O   UNL     1      -0.959  13.506  19.093  0.00  0.00    +0.000 OA
ATOM      3  N   UNL     1      -0.426  11.264  18.915  0.00  0.00    +0.000 N 
ENDROOT
BRANCH   1   7
ATOM      4  C   UNL     1       3.902  14.312  19.538  0.00  0.00    +0.000 A 
ATOM      5  C   UNL     1       3.351  14.009  18.283  0.00  0.00    +0.000 A 
ATOM      6  C   UNL     1       2.084  13.418  18.163  0.00  0.00    +0.000 A 
ATOM      7  C   UNL     1       1.329  13.088  19.295  0.00  0.00    +0.000 A 
ATOM      8  C   UNL     1       1.946  13.223  20.536  0.00  0.00    +0.000 A 
ATOM      9  C   UNL     1       3.198  13.854  20.662  0.00  0.00    +0.000 A 
BRANCH   4  11
ATOM     10  C   UNL     1       6.239  14.873  18.617  0.00  0.00    +0.000 C 
ATOM     11  C   UNL     1       5.180  15.158  19.704  0.00  0.00    +0.000 C 
ATOM     12  C   UNL     1       5.841  14.917  21.074  0.00  0.00    +0.000 C 
ATOM     13  C   UNL     1       4.812  16.657  19.600  0.00  0.00    +0.000 C 
ENDBRANCH   4  11
ENDBRANCH   1   7
BRANCH   3  14
ATOM     14  C   UNL     1       0.506  10.211  19.026  0.00  0.00    +0.000 A 
ATOM     15  C   UNL     1       1.289   9.809  17.940  0.00  0.00    +0.000 A 
ATOM     16  C   UNL     1       2.122   8.693  18.065  0.00  0.00    +0.000 A 
ATOM     17  C   UNL     1       2.171   7.972  19.269  0.00  0.00    +0.000 A 
ATOM     18  C   UNL     1       1.412   8.416  20.361  0.00  0.00    +0.000 A 
ATOM     19  C   UNL     1       0.608   9.548  20.250  0.00  0.00    +0.000 A 
BRANCH  17  20
ATOM     20  C   UNL     1       3.001   6.713  19.386  0.00  0.00    +0.000 C 
BRANCH  20  21
ATOM     21  C   UNL     1       3.187   5.923  18.111  0.00  0.00    +0.000 C 
ATOM     22  O   UNL     1       4.154   6.076  17.375  0.00  0.00    +0.000 OA
BRANCH  21  23
ATOM     23  O   UNL     1       2.175   5.089  17.785  0.00  0.00    +0.000 OA
ATOM     24  H   UNL     1       2.358   4.146  17.966  0.00  0.00    +0.000 HD
ENDBRANCH  21  23
ENDBRANCH  20  21
ENDBRANCH  17  20
ENDBRANCH   3  14
BRANCH   3  25
ATOM     25  C   UNL     1      -1.831  10.874  19.113  0.00  0.00    +0.000 C 
BRANCH  25  26
ATOM     26  C   UNL     1      -2.642  10.697  17.846  0.00  0.00    +0.000 A 
ATOM     27  C   UNL     1      -3.823  11.435  17.636  0.00  0.00    +0.000 A 
ATOM     28  C   UNL     1      -4.467  11.406  16.399  0.00  0.00    +0.000 A 
ATOM     29  C   UNL     1      -3.957  10.637  15.358  0.00  0.00    +0.000 A 
ATOM     30  C   UNL     1      -2.814   9.864  15.565  0.00  0.00    +0.000 A 
ATOM     31  C   UNL     1      -2.165   9.892  16.804  0.00  0.00    +0.000 A 
ENDBRANCH  25  26
ENDBRANCH   3  25
TORSDOF 8
ENDMDL
MODEL 3
REMARK VINA RESULT:      -6.9      5.244      8.891
REMARK  Name = 
REMARK  11 active torsions:
REMARK  status: ('A' for Active; 'I' for Inactive)
REMARK    1  A    between atoms: C_1  and  C_2
REMARK    2  A    between atoms: C_2  and  C_3
REMARK    3  A    between atoms: C_2  and  C_4
REMARK    4  A    between atoms: C_2  and  C_5
REMARK    5  A    between atoms: C_8  and  C_9
REMARK    6  A    between atoms: N_11  and  C_12
REMARK    7  A    between atoms: N_11  and  C_19
REMARK    8  A    between atoms: C_12  and  C_13
REMARK    9  A    between atoms: C_22  and  C_23
REMARK   10  A    between atoms: C_23  and  C_24
REMARK   11  A    between atoms: C_24  and  O_26
REMARK                            x       y       z     vdW  Elec       q    Type
REMARK                         _______ _______ _______ _____ _____    ______ ____
ROOT
ATOM      1  C   UNL     1       4.118   5.266  17.280  0.00  0.00    +0.000 C 
ATOM      2  O   UNL     1       3.436   4.316  16.879  0.00  0.00    +0.000 OA
ATOM      3  N   UNL     1       5.473   5.407  16.906  0.00  0.00    +0.000 N 
ENDROOT
BRANCH   1   7
ATOM      4  C   UNL     1       1.867   7.970  19.850  0.00  0.00    +0.000 A 
ATOM      5  C   UNL     1       2.335   8.344  18.581  0.00  0.00    +0.000 A 
ATOM      6  C   UNL     1       3.102   7.470  17.797  0.00  0.00    +0.000 A 
ATOM      7  C   UNL     1       3.450   6.196  18.261  0.00  0.00    +0.000 A 
ATOM      8  C   UNL     1       3.139   5.892  19.585  0.00  0.00    +0.000 A 
ATOM      9  C   UNL     1       2.334   6.749  20.359  0.00  0.00    +0.000 A 
BRANCH   4  11
ATOM     10  C   UNL     1       1.472   9.581  21.819  0.00  0.00    +0.000 C 
ATOM     11  C   UNL     1       0.842   8.809  20.640  0.00  0.00    +0.000 C 
ATOM     12  C   UNL     1      -0.287   7.929  21.209  0.00  0.00    +0.000 C 
ATOM     13  C   UNL     1       0.210   9.858  19.694  0.00  0.00    +0.000 C 
ENDBRANCH   4  11
ENDBRANCH   1   7
BRANCH   3  14
ATOM     14  C   UNL     1       6.337   6.380  17.451  0.00  0.00    +0.000 A 
ATOM     15  C   UNL     1       6.287   7.715  17.040  0.00  0.00    +0.000 A 
ATOM     16  C   UNL     1       7.231   8.624  17.527  0.00  0.00    +0.000 A 
ATOM     17  C   UNL     1       8.231   8.202  18.419  0.00  0.00    +0.000 A 
ATOM     18  C   UNL     1       8.239   6.869  18.854  0.00  0.00    +0.000 A 
ATOM     19  C   UNL     1       7.278   5.971  18.396  0.00  0.00    +0.000 A 
BRANCH  17  20
ATOM     20  C   UNL     1       9.310   9.156  18.882  0.00  0.00    +0.000 C 
BRANCH  20  21
ATOM     21  C   UNL     1       8.929  10.618  18.915  0.00  0.00    +0.000 C 
ATOM     22  O   UNL     1       8.855  11.304  17.904  0.00  0.00    +0.000 OA
BRANCH  21  23
ATOM     23  O   UNL     1       8.755  11.151  20.146  0.00  0.00    +0.000 OA
ATOM     24  H   UNL     1       9.394  10.834  20.814  0.00  0.00    +0.000 HD
ENDBRANCH  21  23
ENDBRANCH  20  21
ENDBRANCH  17  20
ENDBRANCH   3  14
BRANCH   3  25
ATOM     25  C   UNL     1       6.146   4.250  16.296  0.00  0.00    +0.000 C 
BRANCH  25  26
ATOM     26  C   UNL     1       6.393   4.353  14.805  0.00  0.00    +0.000 A 
ATOM     27  C   UNL     1       7.438   5.150  14.300  0.00  0.00    +0.000 A 
ATOM     28  C   UNL     1       7.777   5.103  12.947  0.00  0.00    +0.000 A 
ATOM     29  C   UNL     1       7.077   4.275  12.076  0.00  0.00    +0.000 A 
ATOM     30  C   UNL     1       6.009   3.513  12.552  0.00  0.00    +0.000 A 
ATOM     31  C   UNL     1       5.668   3.558  13.908  0.00  0.00    +0.000 A 
ENDBRANCH  25  26
ENDBRANCH   3  25
TORSDOF 8
ENDMDL
MODEL 4
REMARK VINA RESULT:      -6.8      3.448      6.640
REMARK  Name = 
REMARK  11 active torsions:
REMARK  status: ('A' for Active; 'I' for Inactive)
REMARK    1  A    between atoms: C_1  and  C_2
REMARK    2  A    between atoms: C_2  and  C_3
REMARK    3  A    between atoms: C_2  and  C_4
REMARK    4  A    between atoms: C_2  and  C_5
REMARK    5  A    between atoms: C_8  and  C_9
REMARK    6  A    between atoms: N_11  and  C_12
REMARK    7  A    between atoms: N_11  and  C_19
REMARK    8  A    between atoms: C_12  and  C_13
REMARK    9  A    between atoms: C_22  and  C_23
REMARK   10  A    between atoms: C_23  and  C_24
REMARK   11  A    between atoms: C_24  and  O_26
REMARK                            x       y       z     vdW  Elec       q    Type
REMARK                         _______ _______ _______ _____ _____    ______ ____
ROOT
ATOM      1  C   UNL     1       0.784  11.415  20.080  0.00  0.00    +0.000 C 
ATOM      2  O   UNL     1       1.457  11.938  20.977  0.00  0.00    +0.000 OA
ATOM      3  N   UNL     1      -0.349  12.064  19.540  0.00  0.00    +0.000 N 
ENDROOT
BRANCH   1   7
ATOM      4  C   UNL     1       2.310   7.537  18.808  0.00  0.00    +0.000 A 
ATOM      5  C   UNL     1       2.119   8.606  17.919  0.00  0.00    +0.000 A 
ATOM      6  C   UNL     1       1.577   9.827  18.347  0.00  0.00    +0.000 A 
ATOM      7  C   UNL     1       1.184  10.019  19.677  0.00  0.00    +0.000 A 
ATOM      8  C   UNL     1       1.206   8.907  20.516  0.00  0.00    +0.000 A 
ATOM      9  C   UNL     1       1.789   7.694  20.101  0.00  0.00    +0.000 A 
BRANCH   4  11
ATOM     10  C   UNL     1       3.852   5.646  19.627  0.00  0.00    +0.000 C 
ATOM     11  C   UNL     1       3.103   6.271  18.429  0.00  0.00    +0.000 C 
ATOM     12  C   UNL     1       4.142   6.564  17.331  0.00  0.00    +0.000 C 
ATOM     13  C   UNL     1       2.122   5.200  17.896  0.00  0.00    +0.000 C 
ENDBRANCH   4  11
ENDBRANCH   1   7
BRANCH   3  14
ATOM     14  C   UNL     1      -1.238  11.455  18.629  0.00  0.00    +0.000 A 
ATOM     15  C   UNL     1      -1.831  10.219  18.901  0.00  0.00    +0.000 A 
ATOM     16  C   UNL     1      -2.621   9.602  17.926  0.00  0.00    +0.000 A 
ATOM     17  C   UNL     1      -2.814  10.214  16.676  0.00  0.00    +0.000 A 
ATOM     18  C   UNL     1      -2.248  11.474  16.437  0.00  0.00    +0.000 A 
ATOM     19  C   UNL     1      -1.490  12.105  17.420  0.00  0.00    +0.000 A 
BRANCH  17  20
ATOM     20  C   UNL     1      -3.593   9.515  15.583  0.00  0.00    +0.000 C 
BRANCH  20  21
ATOM     21  C   UNL     1      -3.413  10.066  14.187  0.00  0.00    +0.000 C 
ATOM     22  O   UNL     1      -4.278  10.719  13.618  0.00  0.00    +0.000 OA
BRANCH  21  23
ATOM     23  O   UNL     1      -2.262   9.724  13.566  0.00  0.00    +0.000 OA
ATOM     24  H   UNL     1      -2.316   9.729  12.590  0.00  0.00    +0.000 HD
ENDBRANCH  21  23
ENDBRANCH  20  21
ENDBRANCH  17  20
ENDBRANCH   3  14
BRANCH   3  25
ATOM     25  C   UNL     1      -0.900  13.216  20.271  0.00  0.00    +0.000 C 
BRANCH  25  26
ATOM     26  C   UNL     1      -2.014  12.895  21.246  0.00  0.00    +0.000 A 
ATOM     27  C   UNL     1      -1.758  12.157  22.417  0.00  0.00    +0.000 A 
ATOM     28  C   UNL     1      -2.740  12.018  23.398  0.00  0.00    +0.000 A 
ATOM     29  C   UNL     1      -3.993  12.598  23.226  0.00  0.00    +0.000 A 
ATOM     30  C   UNL     1      -4.277  13.294  22.050  0.00  0.00    +0.000 A 
ATOM     31  C   UNL     1      -3.294  13.436  21.065  0.00  0.00    +0.000 A 
ENDBRANCH  25  26
ENDBRANCH   3  25
TORSDOF 8
ENDMDL
MODEL 5
REMARK VINA RESULT:      -6.8      5.439      9.112
REMARK  Name = 
REMARK  11 active torsions:
REMARK  status: ('A' for Active; 'I' for Inactive)
REMARK    1  A    between atoms: C_1  and  C_2
REMARK    2  A    between atoms: C_2  and  C_3
REMARK    3  A    between atoms: C_2  and  C_4
REMARK    4  A    between atoms: C_2  and  C_5
REMARK    5  A    between atoms: C_8  and  C_9
REMARK    6  A    between atoms: N_11  and  C_12
REMARK    7  A    between atoms: N_11  and  C_19
REMARK    8  A    between atoms: C_12  and  C_13
REMARK    9  A    between atoms: C_22  and  C_23
REMARK   10  A    between atoms: C_23  and  C_24
REMARK   11  A    between atoms: C_24  and  O_26
REMARK                            x       y       z     vdW  Elec       q    Type
REMARK                         _______ _______ _______ _____ _____    ______ ____
ROOT
ATOM      1  C   UNL     1       4.352   5.106  17.109  0.00  0.00    +0.000 C 
ATOM      2  O   UNL     1       3.667   4.155  16.712  0.00  0.00    +0.000 OA
ATOM      3  N   UNL     1       5.692   5.268  16.695  0.00  0.00    +0.000 N 
ENDROOT
BRANCH   1   7
ATOM      4  C   UNL     1       2.143   7.712  19.813  0.00  0.00    +0.000 A 
ATOM      5  C   UNL     1       2.478   8.088  18.503  0.00  0.00    +0.000 A 
ATOM      6  C   UNL     1       3.235   7.249  17.672  0.00  0.00    +0.000 A 
ATOM      7  C   UNL     1       3.705   6.011  18.127  0.00  0.00    +0.000 A 
ATOM      8  C   UNL     1       3.526   5.717  19.477  0.00  0.00    +0.000 A 
ATOM      9  C   UNL     1       2.731   6.536  20.301  0.00  0.00    +0.000 A 
BRANCH   4  11
ATOM     10  C   UNL     1      -0.044   7.630  21.169  0.00  0.00    +0.000 C 
ATOM     11  C   UNL     1       1.132   8.499  20.671  0.00  0.00    +0.000 C 
ATOM     12  C   UNL     1       0.537   9.688  19.894  0.00  0.00    +0.000 C 
ATOM     13  C   UNL     1       1.853   9.051  21.924  0.00  0.00    +0.000 C 
ENDBRANCH   4  11
ENDBRANCH   1   7
BRANCH   3  14
ATOM     14  C   UNL     1       6.563   6.241  17.229  0.00  0.00    +0.000 A 
ATOM     15  C   UNL     1       7.435   5.945  18.280  0.00  0.00    +0.000 A 
ATOM     16  C   UNL     1       8.203   6.965  18.850  0.00  0.00    +0.000 A 
ATOM     17  C   UNL     1       8.097   8.283  18.377  0.00  0.00    +0.000 A 
ATOM     18  C   UNL     1       7.251   8.554  17.293  0.00  0.00    +0.000 A 
ATOM     19  C   UNL     1       6.511   7.532  16.702  0.00  0.00    +0.000 A 
BRANCH  17  20
ATOM     20  C   UNL     1       8.856   9.409  19.043  0.00  0.00    +0.000 C 
BRANCH  20  21
ATOM     21  C   UNL     1       9.090  10.640  18.197  0.00  0.00    +0.000 C 
ATOM     22  O   UNL     1       8.210  11.458  17.964  0.00  0.00    +0.000 OA
BRANCH  21  23
ATOM     23  O   UNL     1      10.318  10.744  17.641  0.00  0.00    +0.000 OA
ATOM     24  H   UNL     1      10.613   9.941  17.167  0.00  0.00    +0.000 HD
ENDBRANCH  21  23
ENDBRANCH  20  21
ENDBRANCH  17  20
ENDBRANCH   3  14
BRANCH   3  25
ATOM     25  C   UNL     1       6.358   4.128  16.043  0.00  0.00    +0.000 C 
BRANCH  25  26
ATOM     26  C   UNL     1       6.534   4.249  14.544  0.00  0.00    +0.000 A 
ATOM     27  C   UNL     1       7.528   5.085  13.999  0.00  0.00    +0.000 A 
ATOM     28  C   UNL     1       7.807   5.057  12.632  0.00  0.00    +0.000 A 
ATOM     29  C   UNL     1       7.097   4.211  11.786  0.00  0.00    +0.000 A 
ATOM     30  C   UNL     1       6.079   3.411  12.304  0.00  0.00    +0.000 A 
ATOM     31  C   UNL     1       5.797   3.436  13.674  0.00  0.00    +0.000 A 
ENDBRANCH  25  26
ENDBRANCH   3  25
TORSDOF 8
ENDMDL
MODEL 6
REMARK VINA RESULT:      -6.8      4.303      7.736
REMARK  Name = 
REMARK  11 active torsions:
REMARK  status: ('A' for Active; 'I' for Inactive)
REMARK    1  A    between atoms: C_1  and  C_2
REMARK    2  A    between atoms: C_2  and  C_3
REMARK    3  A    between atoms: C_2  and  C_4
REMARK    4  A    between atoms: C_2  and  C_5
REMARK    5  A    between atoms: C_8  and  C_9
REMARK    6  A    between atoms: N_11  and  C_12
REMARK    7  A    between atoms: N_11  and  C_19
REMARK    8  A    between atoms: C_12  and  C_13
REMARK    9  A    between atoms: C_22  and  C_23
REMARK   10  A    between atoms: C_23  and  C_24
REMARK   11  A    between atoms: C_24  and  O_26
REMARK                            x       y       z     vdW  Elec       q    Type
REMARK                         _______ _______ _______ _____ _____    ______ ____
ROOT
ATOM      1  C   UNL     1       6.836   5.565  17.472  0.00  0.00    +0.000 C 
ATOM      2  O   UNL     1       7.702   4.809  17.017  0.00  0.00    +0.000 OA
ATOM      3  N   UNL     1       5.489   5.153  17.587  0.00  0.00    +0.000 N 
ENDROOT
BRANCH   1   7
ATOM      4  C   UNL     1       8.516   9.489  18.344  0.00  0.00    +0.000 A 
ATOM      5  C   UNL     1       8.788   8.357  19.127  0.00  0.00    +0.000 A 
ATOM      6  C   UNL     1       8.191   7.117  18.854  0.00  0.00    +0.000 A 
ATOM      7  C   UNL     1       7.283   6.967  17.800  0.00  0.00    +0.000 A 
ATOM      8  C   UNL     1       6.878   8.123  17.136  0.00  0.00    +0.000 A 
ATOM      9  C   UNL     1       7.505   9.359  17.380  0.00  0.00    +0.000 A 
BRANCH   4  11
ATOM     10  C   UNL     1      10.671  10.758  17.733  0.00  0.00    +0.000 C 
ATOM     11  C   UNL     1       9.316  10.801  18.471  0.00  0.00    +0.000 C 
ATOM     12  C   UNL     1       9.598  11.148  19.945  0.00  0.00    +0.000 C 
ATOM     13  C   UNL     1       8.495  11.956  17.850  0.00  0.00    +0.000 C 
ENDBRANCH   4  11
ENDBRANCH   1   7
BRANCH   3  14
ATOM     14  C   UNL     1       4.437   6.018  17.955  0.00  0.00    +0.000 A 
ATOM     15  C   UNL     1       3.946   6.989  17.078  0.00  0.00    +0.000 A 
ATOM     16  C   UNL     1       2.977   7.894  17.520  0.00  0.00    +0.000 A 
ATOM     17  C   UNL     1       2.500   7.837  18.840  0.00  0.00    +0.000 A 
ATOM     18  C   UNL     1       2.970   6.829  19.693  0.00  0.00    +0.000 A 
ATOM     19  C   UNL     1       3.911   5.905  19.242  0.00  0.00    +0.000 A 
BRANCH  17  20
ATOM     20  C   UNL     1       1.517   8.865  19.354  0.00  0.00    +0.000 C 
BRANCH  20  21
ATOM     21  C   UNL     1       1.201  10.006  18.415  0.00  0.00    +0.000 C 
ATOM     22  O   UNL     1       1.859  11.038  18.385  0.00  0.00    +0.000 OA
BRANCH  21  23
ATOM     23  O   UNL     1       0.090   9.854  17.660  0.00  0.00    +0.000 OA
ATOM     24  H   UNL     1      -0.199  10.667  17.202  0.00  0.00    +0.000 HD
ENDBRANCH  21  23
ENDBRANCH  20  21
ENDBRANCH  17  20
ENDBRANCH   3  14
BRANCH   3  25
ATOM     25  C   UNL     1       5.073   3.938  16.868  0.00  0.00    +0.000 C 
BRANCH  25  26
ATOM     26  C   UNL     1       3.888   3.205  17.462  0.00  0.00    +0.000 A 
ATOM     27  C   UNL     1       4.067   2.255  18.485  0.00  0.00    +0.000 A 
ATOM     28  C   UNL     1       2.967   1.716  19.154  0.00  0.00    +0.000 A 
ATOM     29  C   UNL     1       1.676   2.102  18.808  0.00  0.00    +0.000 A 
ATOM     30  C   UNL     1       1.480   3.008  17.765  0.00  0.00    +0.000 A 
ATOM     31  C   UNL     1       2.582   3.551  17.094  0.00  0.00    +0.000 A 
ENDBRANCH  25  26
ENDBRANCH   3  25
TORSDOF 8
ENDMDL
MODEL 7
REMARK VINA RESULT:      -6.6      3.359      6.633
REMARK  Name = 
REMARK  11 active torsions:
REMARK  status: ('A' for Active; 'I' for Inactive)
REMARK    1  A    between atoms: C_1  and  C_2
REMARK    2  A    between atoms: C_2  and  C_3
REMARK    3  A    between atoms: C_2  and  C_4
REMARK    4  A    between atoms: C_2  and  C_5
REMARK    5  A    between atoms: C_8  and  C_9
REMARK    6  A    between atoms: N_11  and  C_12
REMARK    7  A    between atoms: N_11  and  C_19
REMARK    8  A    between atoms: C_12  and  C_13
REMARK    9  A    between atoms: C_22  and  C_23
REMARK   10  A    between atoms: C_23  and  C_24
REMARK   11  A    between atoms: C_24  and  O_26
REMARK                            x       y       z     vdW  Elec       q    Type
REMARK                         _______ _______ _______ _____ _____    ______ ____
ROOT
ATOM      1  C   UNL     1       1.008  11.462  19.918  0.00  0.00    +0.000 C 
ATOM      2  O   UNL     1       1.768  11.998  20.733  0.00  0.00    +0.000 OA
ATOM      3  N   UNL     1      -0.139  12.131  19.435  0.00  0.00    +0.000 N 
ENDROOT
BRANCH   1   7
ATOM      4  C   UNL     1       2.297   7.462  18.770  0.00  0.00    +0.000 A 
ATOM      5  C   UNL     1       2.200   8.520  17.853  0.00  0.00    +0.000 A 
ATOM      6  C   UNL     1       1.732   9.784  18.241  0.00  0.00    +0.000 A 
ATOM      7  C   UNL     1       1.321  10.033  19.556  0.00  0.00    +0.000 A 
ATOM      8  C   UNL     1       1.249   8.942  20.419  0.00  0.00    +0.000 A 
ATOM      9  C   UNL     1       1.758   7.683  20.046  0.00  0.00    +0.000 A 
BRANCH   4  11
ATOM     10  C   UNL     1       2.058   5.059  17.879  0.00  0.00    +0.000 C 
ATOM     11  C   UNL     1       3.012   6.136  18.440  0.00  0.00    +0.000 C 
ATOM     12  C   UNL     1       3.706   5.545  19.682  0.00  0.00    +0.000 C 
ATOM     13  C   UNL     1       4.089   6.397  17.361  0.00  0.00    +0.000 C 
ENDBRANCH   4  11
ENDBRANCH   1   7
BRANCH   3  14
ATOM     14  C   UNL     1      -1.119  11.518  18.626  0.00  0.00    +0.000 A 
ATOM     15  C   UNL     1      -1.687  10.289  18.971  0.00  0.00    +0.000 A 
ATOM     16  C   UNL     1      -2.575   9.666  18.088  0.00  0.00    +0.000 A 
ATOM     17  C   UNL     1      -2.892  10.264  16.857  0.00  0.00    +0.000 A 
ATOM     18  C   UNL     1      -2.346  11.518  16.547  0.00  0.00    +0.000 A 
ATOM     19  C   UNL     1      -1.489  12.156  17.441  0.00  0.00    +0.000 A 
BRANCH  17  20
ATOM     20  C   UNL     1      -3.781   9.559  15.858  0.00  0.00    +0.000 C 
BRANCH  20  21
ATOM     21  C   UNL     1      -3.506   9.857  14.402  0.00  0.00    +0.000 C 
ATOM     22  O   UNL     1      -2.373   9.900  13.939  0.00  0.00    +0.000 OA
BRANCH  21  23
ATOM     23  O   UNL     1      -4.589  10.159  13.651  0.00  0.00    +0.000 OA
ATOM     24  H   UNL     1      -4.378  10.441  12.739  0.00  0.00    +0.000 HD
ENDBRANCH  21  23
ENDBRANCH  20  21
ENDBRANCH  17  20
ENDBRANCH   3  14
BRANCH   3  25
ATOM     25  C   UNL     1      -0.587  13.339  20.147  0.00  0.00    +0.000 C 
BRANCH  25  26
ATOM     26  C   UNL     1      -1.621  13.109  21.229  0.00  0.00    +0.000 A 
ATOM     27  C   UNL     1      -2.917  13.646  21.115  0.00  0.00    +0.000 A 
ATOM     28  C   UNL     1      -3.918  13.286  22.018  0.00  0.00    +0.000 A 
ATOM     29  C   UNL     1      -3.644  12.398  23.053  0.00  0.00    +0.000 A 
ATOM     30  C   UNL     1      -2.353  11.892  23.207  0.00  0.00    +0.000 A 
ATOM     31  C   UNL     1      -1.348  12.251  22.302  0.00  0.00    +0.000 A 
ENDBRANCH  25  26
ENDBRANCH   3  25
TORSDOF 8
ENDMDL
MODEL 8
REMARK VINA RESULT:      -6.6      4.709      7.485
REMARK  Name = 
REMARK  11 active torsions:
REMARK  status: ('A' for Active; 'I' for Inactive)
REMARK    1  A    between atoms: C_1  and  C_2
REMARK    2  A    between atoms: C_2  and  C_3
REMARK    3  A    between atoms: C_2  and  C_4
REMARK    4  A    between atoms: C_2  and  C_5
REMARK    5  A    between atoms: C_8  and  C_9
REMARK    6  A    between atoms: N_11  and  C_12
REMARK    7  A    between atoms: N_11  and  C_19
REMARK    8  A    between atoms: C_12  and  C_13
REMARK    9  A    between atoms: C_22  and  C_23
REMARK   10  A    between atoms: C_23  and  C_24
REMARK   11  A    between atoms: C_24  and  O_26
REMARK                            x       y       z     vdW  Elec       q    Type
REMARK                         _______ _______ _______ _____ _____    ______ ____
ROOT
ATOM      1  C   UNL     1       6.655   5.810  17.216  0.00  0.00    +0.000 C 
ATOM      2  O   UNL     1       7.430   5.113  16.550  0.00  0.00    +0.000 OA
ATOM      3  N   UNL     1       5.328   5.396  17.469  0.00  0.00    +0.000 N 
ENDROOT
BRANCH   1   7
ATOM      4  C   UNL     1       8.546   9.564  18.364  0.00  0.00    +0.000 A 
ATOM      5  C   UNL     1       8.802   8.353  19.025  0.00  0.00    +0.000 A 
ATOM      6  C   UNL     1       8.140   7.169  18.667  0.00  0.00    +0.000 A 
ATOM      7  C   UNL     1       7.178   7.156  17.650  0.00  0.00    +0.000 A 
ATOM      8  C   UNL     1       6.796   8.385  17.117  0.00  0.00    +0.000 A 
ATOM      9  C   UNL     1       7.488   9.567  17.443  0.00  0.00    +0.000 A 
BRANCH   4  11
ATOM     10  C   UNL     1       9.813  11.043  20.047  0.00  0.00    +0.000 C 
ATOM     11  C   UNL     1       9.408  10.825  18.573  0.00  0.00    +0.000 C 
ATOM     12  C   UNL     1       8.674  12.094  18.099  0.00  0.00    +0.000 C 
ATOM     13  C   UNL     1      10.715  10.686  17.757  0.00  0.00    +0.000 C 
ENDBRANCH   4  11
ENDBRANCH   1   7
BRANCH   3  14
ATOM     14  C   UNL     1       4.360   6.214  18.089  0.00  0.00    +0.000 A 
ATOM     15  C   UNL     1       3.913   5.961  19.389  0.00  0.00    +0.000 A 
ATOM     16  C   UNL     1       2.877   6.731  19.926  0.00  0.00    +0.000 A 
ATOM     17  C   UNL     1       2.278   7.748  19.164  0.00  0.00    +0.000 A 
ATOM     18  C   UNL     1       2.769   8.016  17.878  0.00  0.00    +0.000 A 
ATOM     19  C   UNL     1       3.825   7.273  17.356  0.00  0.00    +0.000 A 
BRANCH  17  20
ATOM     20  C   UNL     1       1.099   8.528  19.701  0.00  0.00    +0.000 C 
BRANCH  20  21
ATOM     21  C   UNL     1       0.829   8.382  21.181  0.00  0.00    +0.000 C 
ATOM     22  O   UNL     1      -0.238   7.975  21.622  0.00  0.00    +0.000 OA
BRANCH  21  23
ATOM     23  O   UNL     1       1.815   8.810  22.001  0.00  0.00    +0.000 OA
ATOM     24  H   UNL     1       1.500   9.306  22.783  0.00  0.00    +0.000 HD
ENDBRANCH  21  23
ENDBRANCH  20  21
ENDBRANCH  17  20
ENDBRANCH   3  14
BRANCH   3  25
ATOM     25  C   UNL     1       4.786   4.286  16.670  0.00  0.00    +0.000 C 
BRANCH  25  26
ATOM     26  C   UNL     1       3.677   3.492  17.330  0.00  0.00    +0.000 A 
ATOM     27  C   UNL     1       3.972   2.410  18.181  0.00  0.00    +0.000 A 
ATOM     28  C   UNL     1       2.965   1.797  18.926  0.00  0.00    +0.000 A 
ATOM     29  C   UNL     1       1.650   2.240  18.829  0.00  0.00    +0.000 A 
ATOM     30  C   UNL     1       1.334   3.282  17.956  0.00  0.00    +0.000 A 
ATOM     31  C   UNL     1       2.342   3.899  17.208  0.00  0.00    +0.000 A 
ENDBRANCH  25  26
ENDBRANCH   3  25
TORSDOF 8
ENDMDL
MODEL 9
REMARK VINA RESULT:      -6.6      2.654      6.950
REMARK  Name = 
REMARK  11 active torsions:
REMARK  status: ('A' for Active; 'I' for Inactive)
REMARK    1  A    between atoms: C_1  and  C_2
REMARK    2  A    between atoms: C_2  and  C_3
REMARK    3  A    between atoms: C_2  and  C_4
REMARK    4  A    between atoms: C_2  and  C_5
REMARK    5  A    between atoms: C_8  and  C_9
REMARK    6  A    between atoms: N_11  and  C_12
REMARK    7  A    between atoms: N_11  and  C_19
REMARK    8  A    between atoms: C_12  and  C_13
REMARK    9  A    between atoms: C_22  and  C_23
REMARK   10  A    between atoms: C_23  and  C_24
REMARK   11  A    between atoms: C_24  and  O_26
REMARK                            x       y       z     vdW  Elec       q    Type
REMARK                         _______ _______ _______ _____ _____    ______ ____
ROOT
ATOM      1  C   UNL     1      -0.562  10.610  19.344  0.00  0.00    +0.000 C 
ATOM      2  O   UNL     1      -1.693  10.123  19.237  0.00  0.00    +0.000 OA
ATOM      3  N   UNL     1      -0.377  11.985  19.614  0.00  0.00    +0.000 N 
ENDROOT
BRANCH   1   7
ATOM      4  C   UNL     1       2.516   7.603  18.657  0.00  0.00    +0.000 A 
ATOM      5  C   UNL     1       1.962   7.846  19.924  0.00  0.00    +0.000 A 
ATOM      6  C   UNL     1       1.009   8.856  20.125  0.00  0.00    +0.000 A 
ATOM      7  C   UNL     1       0.592   9.678  19.072  0.00  0.00    +0.000 A 
ATOM      8  C   UNL     1       1.268   9.557  17.860  0.00  0.00    +0.000 A 
ATOM      9  C   UNL     1       2.192   8.517  17.643  0.00  0.00    +0.000 A 
BRANCH   4  11
ATOM     10  C   UNL     1       4.089   5.800  19.604  0.00  0.00    +0.000 C 
ATOM     11  C   UNL     1       3.387   6.368  18.352  0.00  0.00    +0.000 C 
ATOM     12  C   UNL     1       4.476   6.690  17.312  0.00  0.00    +0.000 C 
ATOM     13  C   UNL     1       2.490   5.244  17.783  0.00  0.00    +0.000 C 
ENDBRANCH   4  11
ENDBRANCH   1   7
BRANCH   3  14
ATOM     14  C   UNL     1       0.882  12.622  19.596  0.00  0.00    +0.000 A 
ATOM     15  C   UNL     1       1.648  12.762  20.756  0.00  0.00    +0.000 A 
ATOM     16  C   UNL     1       2.839  13.493  20.714  0.00  0.00    +0.000 A 
ATOM     17  C   UNL     1       3.265  14.092  19.517  0.00  0.00    +0.000 A 
ATOM     18  C   UNL     1       2.507  13.903  18.352  0.00  0.00    +0.000 A 
ATOM     19  C   UNL     1       1.338  13.146  18.385  0.00  0.00    +0.000 A 
BRANCH  17  20
ATOM     20  C   UNL     1       4.504  14.957  19.480  0.00  0.00    +0.000 C 
BRANCH  20  21
ATOM     21  C   UNL     1       4.270  16.440  19.298  0.00  0.00    +0.000 C 
ATOM     22  O   UNL     1       4.914  17.118  18.508  0.00  0.00    +0.000 OA
BRANCH  21  23
ATOM     23  O   UNL     1       3.356  16.995  20.124  0.00  0.00    +0.000 OA
ATOM     24  H   UNL     1       2.789  16.347  20.588  0.00  0.00    +0.000 HD
ENDBRANCH  21  23
ENDBRANCH  20  21
ENDBRANCH  17  20
ENDBRANCH   3  14
BRANCH   3  25
ATOM     25  C   UNL     1      -1.531  12.883  19.452  0.00  0.00    +0.000 C 
BRANCH  25  26
ATOM     26  C   UNL     1      -2.461  12.966  20.645  0.00  0.00    +0.000 A 
ATOM     27  C   UNL     1      -3.857  12.884  20.478  0.00  0.00    +0.000 A 
ATOM     28  C   UNL     1      -4.699  12.780  21.585  0.00  0.00    +0.000 A 
ATOM     29  C   UNL     1      -4.171  12.767  22.872  0.00  0.00    +0.000 A 
ATOM     30  C   UNL     1      -2.794  12.894  23.055  0.00  0.00    +0.000 A 
ATOM     31  C   UNL     1      -1.946  12.999  21.947  0.00  0.00    +0.000 A 
ENDBRANCH  25  26
ENDBRANCH   3  25
TORSDOF 8
ENDMDL
