MODEL 1
REMARK VINA RESULT:      -7.4      0.000      0.000
REMARK  Name = 
REMARK  6 active torsions:
REMARK  status: ('A' for Active; 'I' for Inactive)
REMARK    1  A    between atoms: C_1  and  C_2
REMARK    2  A    between atoms: C_2  and  C_17
REMARK    3  A    between atoms: N_3  and  N_4
REMARK    4  A    between atoms: N_4  and  C_5
REMARK    5  A    between atoms: C_5  and  N_7
REMARK    6  A    between atoms: N_7  and  C_8
REMARK                            x       y       z     vdW  Elec       q    Type
REMARK                         _______ _______ _______ _____ _____    ______ ____
ROOT
ATOM      1  C   UNL     1       3.996   3.863  18.065  0.00  0.00    +0.000 C 
ATOM      2  S   UNL     1       2.561   3.196  17.521  0.00  0.00    +0.000 S 
ENDROOT
BRANCH   1   3
ATOM      3  N   UNL     1       5.256   3.542  17.601  0.00  0.00    +0.000 N 
ATOM      4  H   UNL     1       5.887   3.013  18.189  0.00  0.00    +0.000 HD
BRANCH   3   7
ATOM      5  C   UNL     1       6.953   5.675  16.701  0.00  0.00    +0.000 C 
ATOM      6  C   UNL     1       6.361   4.563  15.853  0.00  0.00    +0.000 C 
ATOM      7  N   UNL     1       5.539   3.650  16.275  0.00  0.00    +0.000 NA
BRANCH   6   8
ATOM      8  C   UNL     1       6.730   4.570  14.405  0.00  0.00    +0.000 A 
ATOM      9  C   UNL     1       6.072   3.726  13.512  0.00  0.00    +0.000 A 
ATOM     10  C   UNL     1       6.445   3.765  12.171  0.00  0.00    +0.000 A 
ATOM     11  C   UNL     1       7.444   4.640  11.772  0.00  0.00    +0.000 A 
ATOM     12  C   UNL     1       8.045   5.441  12.728  0.00  0.00    +0.000 A 
ATOM     13  N   UNL     1       7.717   5.423  14.039  0.00  0.00    +0.000 NA
ENDBRANCH   6   8
ENDBRANCH   3   7
ENDBRANCH   1   3
BRANCH   1  14
ATOM     14  N   UNL     1       3.954   4.872  18.994  0.00  0.00    +0.000 N 
ATOM     15  H   UNL     1       4.671   4.832  19.717  0.00  0.00    +0.000 HD
BRANCH  14  16
ATOM     16  C   UNL     1       3.255   6.098  18.879  0.00  0.00    +0.000 A 
ATOM     17  C   UNL     1       3.505   6.934  17.784  0.00  0.00    +0.000 A 
ATOM     18  C   UNL     1       2.902   8.187  17.701  0.00  0.00    +0.000 A 
ATOM     19  C   UNL     1       2.033   8.613  18.707  0.00  0.00    +0.000 A 
ATOM     20 CL   UNL     1       1.358  10.196  18.536  0.00  0.00    +0.000 Cl
ATOM     21  C   UNL     1       1.749   7.779  19.802  0.00  0.00    +0.000 A 
ATOM     22 CL   UNL     1       0.620   8.295  21.016  0.00  0.00    +0.000 Cl
ATOM     23  C   UNL     1       2.381   6.524  19.895  0.00  0.00    +0.000 A 
ATOM     24 CL   UNL     1       2.033   5.437  21.208  0.00  0.00    +0.000 Cl
ENDBRANCH  14  16
ENDBRANCH   1  14
TORSDOF 5
ENDMDL
MODEL 2
REMARK VINA RESULT:      -7.4      2.777      3.659
REMARK  Name = 
REMARK  6 active torsions:
REMARK  status: ('A' for Active; 'I' for Inactive)
REMARK    1  A    between atoms: C_1  and  C_2
REMARK    2  A    between atoms: C_2  and  C_17
REMARK    3  A    between atoms: N_3  and  N_4
REMARK    4  A    between atoms: N_4  and  C_5
REMARK    5  A    between atoms: C_5  and  N_7
REMARK    6  A    between atoms: N_7  and  C_8
REMARK                            x       y       z     vdW  Elec       q    Type
REMARK                         _______ _______ _______ _____ _____    ______ ____
ROOT
ATOM      1  C   UNL     1       7.093   5.410  18.569  0.00  0.00    +0.000 C 
ATOM      2  S   UNL     1       7.806   6.916  18.421  0.00  0.00    +0.000 S 
ENDROOT
BRANCH   1   3
ATOM      3  N   UNL     1       7.432   4.288  17.840  0.00  0.00    +0.000 N 
ATOM      4  H   UNL     1       7.292   3.368  18.240  0.00  0.00    +0.000 HD
BRANCH   3   7
ATOM      5  C   UNL     1       5.308   3.644  16.020  0.00  0.00    +0.000 C 
ATOM      6  C   UNL     1       6.685   4.170  15.661  0.00  0.00    +0.000 C 
ATOM      7  N   UNL     1       7.651   4.387  16.502  0.00  0.00    +0.000 NA
BRANCH   6   8
ATOM      8  C   UNL     1       6.945   4.403  14.208  0.00  0.00    +0.000 A 
ATOM      9  C   UNL     1       6.293   3.630  13.249  0.00  0.00    +0.000 A 
ATOM     10  C   UNL     1       6.562   3.882  11.906  0.00  0.00    +0.000 A 
ATOM     11  C   UNL     1       7.457   4.888  11.571  0.00  0.00    +0.000 A 
ATOM     12  C   UNL     1       8.060   5.604  12.591  0.00  0.00    +0.000 A 
ATOM     13  N   UNL     1       7.831   5.382  13.905  0.00  0.00    +0.000 NA
ENDBRANCH   6   8
ENDBRANCH   3   7
ENDBRANCH   1   3
BRANCH   1  14
ATOM     14  N   UNL     1       6.141   5.213  19.537  0.00  0.00    +0.000 N 
ATOM     15  H   UNL     1       6.221   5.810  20.360  0.00  0.00    +0.000 HD
BRANCH  14  16
ATOM     16  C   UNL     1       4.912   4.524  19.387  0.00  0.00    +0.000 A 
ATOM     17  C   UNL     1       4.788   3.220  19.880  0.00  0.00    +0.000 A 
ATOM     18  C   UNL     1       3.623   2.489  19.656  0.00  0.00    +0.000 A 
ATOM     19  C   UNL     1       2.566   3.060  18.948  0.00  0.00    +0.000 A 
ATOM     20 CL   UNL     1       1.174   2.067  18.690  0.00  0.00    +0.000 Cl
ATOM     21  C   UNL     1       2.660   4.377  18.466  0.00  0.00    +0.000 A 
ATOM     22 CL   UNL     1       1.314   5.097  17.638  0.00  0.00    +0.000 Cl
ATOM     23  C   UNL     1       3.849   5.102  18.671  0.00  0.00    +0.000 A 
ATOM     24 CL   UNL     1       4.002   6.749  18.131  0.00  0.00    +0.000 Cl
ENDBRANCH  14  16
ENDBRANCH   1  14
TORSDOF 5
ENDMDL
MODEL 3
REMARK VINA RESULT:      -7.2      1.399      2.035
REMARK  Name = 
REMARK  6 active torsions:
REMARK  status: ('A' for Active; 'I' for Inactive)
REMARK    1  A    between atoms: C_1  and  C_2
REMARK    2  A    between atoms: C_2  and  C_17
REMARK    3  A    between atoms: N_3  and  N_4
REMARK    4  A    between atoms: N_4  and  C_5
REMARK    5  A    between atoms: C_5  and  N_7
REMARK    6  A    between atoms: N_7  and  C_8
REMARK                            x       y       z     vdW  Elec       q    Type
REMARK                         _______ _______ _______ _____ _____    ______ ____
ROOT
ATOM      1  C   UNL     1       4.337   3.773  19.012  0.00  0.00    +0.000 C 
ATOM      2  S   UNL     1       4.119   2.519  20.098  0.00  0.00    +0.000 S 
ENDROOT
BRANCH   1   3
ATOM      3  N   UNL     1       5.539   4.136  18.438  0.00  0.00    +0.000 N 
ATOM      4  H   UNL     1       6.366   4.219  19.017  0.00  0.00    +0.000 HD
BRANCH   3   7
ATOM      5  C   UNL     1       7.252   6.038  17.140  0.00  0.00    +0.000 C 
ATOM      6  C   UNL     1       6.518   4.882  16.487  0.00  0.00    +0.000 C 
ATOM      7  N   UNL     1       5.693   4.078  17.088  0.00  0.00    +0.000 NA
BRANCH   6   8
ATOM      8  C   UNL     1       6.738   4.703  15.020  0.00  0.00    +0.000 A 
ATOM      9  C   UNL     1       5.912   3.853  14.288  0.00  0.00    +0.000 A 
ATOM     10  C   UNL     1       6.150   3.717  12.923  0.00  0.00    +0.000 A 
ATOM     11  C   UNL     1       7.188   4.431  12.342  0.00  0.00    +0.000 A 
ATOM     12  C   UNL     1       7.959   5.252  13.148  0.00  0.00    +0.000 A 
ATOM     13  N   UNL     1       7.764   5.401  14.477  0.00  0.00    +0.000 NA
ENDBRANCH   6   8
ENDBRANCH   3   7
ENDBRANCH   1   3
BRANCH   1  14
ATOM     14  N   UNL     1       3.242   4.472  18.569  0.00  0.00    +0.000 N 
ATOM     15  H   UNL     1       2.615   3.960  17.950  0.00  0.00    +0.000 HD
BRANCH  14  16
ATOM     16  C   UNL     1       2.731   5.675  19.115  0.00  0.00    +0.000 A 
ATOM     17  C   UNL     1       2.081   5.648  20.355  0.00  0.00    +0.000 A 
ATOM     18  C   UNL     1       1.485   6.800  20.864  0.00  0.00    +0.000 A 
ATOM     19  C   UNL     1       1.544   7.993  20.144  0.00  0.00    +0.000 A 
ATOM     20 CL   UNL     1       0.748   9.363  20.838  0.00  0.00    +0.000 Cl
ATOM     21  C   UNL     1       2.213   8.048  18.910  0.00  0.00    +0.000 A 
ATOM     22 CL   UNL     1       2.331   9.553  18.052  0.00  0.00    +0.000 Cl
ATOM     23  C   UNL     1       2.791   6.876  18.386  0.00  0.00    +0.000 A 
ATOM     24 CL   UNL     1       3.665   6.898  16.883  0.00  0.00    +0.000 Cl
ENDBRANCH  14  16
ENDBRANCH   1  14
TORSDOF 5
ENDMDL
MODEL 4
REMARK VINA RESULT:      -7.1      1.534      1.644
REMARK  Name = 
REMARK  6 active torsions:
REMARK  status: ('A' for Active; 'I' for Inactive)
REMARK    1  A    between atoms: C_1  and  C_2
REMARK    2  A    between atoms: C_2  and  C_17
REMARK    3  A    between atoms: N_3  and  N_4
REMARK    4  A    between atoms: N_4  and  C_5
REMARK    5  A    between atoms: C_5  and  N_7
REMARK    6  A    between atoms: N_7  and  C_8
REMARK                            x       y       z     vdW  Elec       q    Type
REMARK                         _______ _______ _______ _____ _____    ______ ____
ROOT
ATOM      1  C   UNL     1       4.631   6.004  18.276  0.00  0.00    +0.000 C 
ATOM      2  S   UNL     1       4.978   4.834  19.421  0.00  0.00    +0.000 S 
ENDROOT
BRANCH   1   3
ATOM      3  N   UNL     1       5.564   6.691  17.524  0.00  0.00    +0.000 N 
ATOM      4  H   UNL     1       6.224   7.306  17.983  0.00  0.00    +0.000 HD
BRANCH   3   7
ATOM      5  C   UNL     1       7.468   4.606  17.006  0.00  0.00    +0.000 C 
ATOM      6  C   UNL     1       6.611   5.330  15.984  0.00  0.00    +0.000 C 
ATOM      7  N   UNL     1       5.807   6.319  16.239  0.00  0.00    +0.000 NA
BRANCH   6   8
ATOM      8  C   UNL     1       6.758   4.886  14.565  0.00  0.00    +0.000 A 
ATOM      9  C   UNL     1       5.941   3.876  14.060  0.00  0.00    +0.000 A 
ATOM     10  C   UNL     1       6.110   3.494  12.732  0.00  0.00    +0.000 A 
ATOM     11  C   UNL     1       7.073   4.129  11.961  0.00  0.00    +0.000 A 
ATOM     12  C   UNL     1       7.842   5.121  12.547  0.00  0.00    +0.000 A 
ATOM     13  N   UNL     1       7.713   5.511  13.835  0.00  0.00    +0.000 NA
ENDBRANCH   6   8
ENDBRANCH   3   7
ENDBRANCH   1   3
BRANCH   1  14
ATOM     14  N   UNL     1       3.321   6.278  17.975  0.00  0.00    +0.000 N 
ATOM     15  H   UNL     1       2.781   5.493  17.612  0.00  0.00    +0.000 HD
BRANCH  14  16
ATOM     16  C   UNL     1       2.573   7.403  18.401  0.00  0.00    +0.000 A 
ATOM     17  C   UNL     1       2.568   8.564  17.619  0.00  0.00    +0.000 A 
ATOM     18  C   UNL     1       1.920   9.713  18.066  0.00  0.00    +0.000 A 
ATOM     19  C   UNL     1       1.261   9.709  19.296  0.00  0.00    +0.000 A 
ATOM     20 CL   UNL     1       0.514  11.191  19.785  0.00  0.00    +0.000 Cl
ATOM     21  C   UNL     1       1.232   8.547  20.085  0.00  0.00    +0.000 A 
ATOM     22 CL   UNL     1       0.358   8.537  21.585  0.00  0.00    +0.000 Cl
ATOM     23  C   UNL     1       1.910   7.396  19.642  0.00  0.00    +0.000 A 
ATOM     24 CL   UNL     1       1.872   5.919  20.560  0.00  0.00    +0.000 Cl
ENDBRANCH  14  16
ENDBRANCH   1  14
TORSDOF 5
ENDMDL
MODEL 5
REMARK VINA RESULT:      -6.9      2.818      3.813
REMARK  Name = 
REMARK  6 active torsions:
REMARK  status: ('A' for Active; 'I' for Inactive)
REMARK    1  A    between atoms: C_1  and  C_2
REMARK    2  A    between atoms: C_2  and  C_17
REMARK    3  A    between atoms: N_3  and  N_4
REMARK    4  A    between atoms: N_4  and  C_5
REMARK    5  A    between atoms: C_5  and  N_7
REMARK    6  A    between atoms: N_7  and  C_8
REMARK                            x       y       z     vdW  Elec       q    Type
REMARK                         _______ _______ _______ _____ _____    ______ ____
ROOT
ATOM      1  C   UNL     1       7.046   5.500  18.491  0.00  0.00    +0.000 C 
ATOM      2  S   UNL     1       7.808   6.979  18.315  0.00  0.00    +0.000 S 
ENDROOT
BRANCH   1   3
ATOM      3  N   UNL     1       7.371   4.345  17.809  0.00  0.00    +0.000 N 
ATOM      4  H   UNL     1       7.232   3.444  18.251  0.00  0.00    +0.000 HD
BRANCH   3   7
ATOM      5  C   UNL     1       5.235   3.594  16.045  0.00  0.00    +0.000 C 
ATOM      6  C   UNL     1       6.603   4.118  15.646  0.00  0.00    +0.000 C 
ATOM      7  N   UNL     1       7.575   4.384  16.465  0.00  0.00    +0.000 NA
BRANCH   6   8
ATOM      8  C   UNL     1       6.844   4.285  14.181  0.00  0.00    +0.000 A 
ATOM      9  C   UNL     1       7.691   5.293  13.723  0.00  0.00    +0.000 A 
ATOM     10  C   UNL     1       7.890   5.412  12.350  0.00  0.00    +0.000 A 
ATOM     11  C   UNL     1       7.250   4.528  11.493  0.00  0.00    +0.000 A 
ATOM     12  C   UNL     1       6.425   3.559  12.037  0.00  0.00    +0.000 A 
ATOM     13  N   UNL     1       6.200   3.419  13.363  0.00  0.00    +0.000 NA
ENDBRANCH   6   8
ENDBRANCH   3   7
ENDBRANCH   1   3
BRANCH   1  14
ATOM     14  N   UNL     1       6.062   5.363  19.438  0.00  0.00    +0.000 N 
ATOM     15  H   UNL     1       6.084   6.045  20.195  0.00  0.00    +0.000 HD
BRANCH  14  16
ATOM     16  C   UNL     1       4.869   4.609  19.314  0.00  0.00    +0.000 A 
ATOM     17  C   UNL     1       4.819   3.309  19.832  0.00  0.00    +0.000 A 
ATOM     18  C   UNL     1       3.692   2.514  19.635  0.00  0.00    +0.000 A 
ATOM     19  C   UNL     1       2.598   3.017  18.930  0.00  0.00    +0.000 A 
ATOM     20 CL   UNL     1       1.257   1.948  18.706  0.00  0.00    +0.000 Cl
ATOM     21  C   UNL     1       2.618   4.328  18.424  0.00  0.00    +0.000 A 
ATOM     22 CL   UNL     1       1.227   4.962  17.600  0.00  0.00    +0.000 Cl
ATOM     23  C   UNL     1       3.769   5.118  18.601  0.00  0.00    +0.000 A 
ATOM     24 CL   UNL     1       3.830   6.760  18.032  0.00  0.00    +0.000 Cl
ENDBRANCH  14  16
ENDBRANCH   1  14
TORSDOF 5
ENDMDL
MODEL 6
REMARK VINA RESULT:      -6.8      0.696      1.081
REMARK  Name = 
REMARK  6 active torsions:
REMARK  status: ('A' for Active; 'I' for Inactive)
REMARK    1  A    between atoms: C_1  and  C_2
REMARK    2  A    between atoms: C_2  and  C_17
REMARK    3  A    between atoms: N_3  and  N_4
REMARK    4  A    between atoms: N_4  and  C_5
REMARK    5  A    between atoms: C_5  and  N_7
REMARK    6  A    between atoms: N_7  and  C_8
REMARK                            x       y       z     vdW  Elec       q    Type
REMARK                         _______ _______ _______ _____ _____    ______ ____
ROOT
ATOM      1  C   UNL     1       4.265   3.598  18.255  0.00  0.00    +0.000 C 
ATOM      2  S   UNL     1       3.041   2.557  17.787  0.00  0.00    +0.000 S 
ENDROOT
BRANCH   1   3
ATOM      3  N   UNL     1       5.543   3.619  17.732  0.00  0.00    +0.000 N 
ATOM      4  H   UNL     1       6.330   3.371  18.319  0.00  0.00    +0.000 HD
BRANCH   3   7
ATOM      5  C   UNL     1       7.107   5.741  16.596  0.00  0.00    +0.000 C 
ATOM      6  C   UNL     1       6.487   4.571  15.855  0.00  0.00    +0.000 C 
ATOM      7  N   UNL     1       5.725   3.662  16.385  0.00  0.00    +0.000 NA
BRANCH   6   8
ATOM      8  C   UNL     1       6.747   4.508  14.385  0.00  0.00    +0.000 A 
ATOM      9  C   UNL     1       7.665   5.377  13.799  0.00  0.00    +0.000 A 
ATOM     10  C   UNL     1       7.878   5.283  12.426  0.00  0.00    +0.000 A 
ATOM     11  C   UNL     1       7.182   4.332  11.696  0.00  0.00    +0.000 A 
ATOM     12  C   UNL     1       6.287   3.510  12.361  0.00  0.00    +0.000 A 
ATOM     13  N   UNL     1       6.046   3.580  13.689  0.00  0.00    +0.000 NA
ENDBRANCH   6   8
ENDBRANCH   3   7
ENDBRANCH   1   3
BRANCH   1  14
ATOM     14  N   UNL     1       3.994   4.577  19.178  0.00  0.00    +0.000 N 
ATOM     15  H   UNL     1       4.489   4.492  20.065  0.00  0.00    +0.000 HD
BRANCH  14  16
ATOM     16  C   UNL     1       3.376   5.826  18.927  0.00  0.00    +0.000 A 
ATOM     17  C   UNL     1       3.740   6.559  17.791  0.00  0.00    +0.000 A 
ATOM     18  C   UNL     1       3.217   7.833  17.577  0.00  0.00    +0.000 A 
ATOM     19  C   UNL     1       2.315   8.381  18.490  0.00  0.00    +0.000 A 
ATOM     20 CL   UNL     1       1.745   9.980  18.160  0.00  0.00    +0.000 Cl
ATOM     21  C   UNL     1       1.917   7.651  19.623  0.00  0.00    +0.000 A 
ATOM     22 CL   UNL     1       0.749   8.319  20.721  0.00  0.00    +0.000 Cl
ATOM     23  C   UNL     1       2.468   6.375  19.850  0.00  0.00    +0.000 A 
ATOM     24 CL   UNL     1       1.979   5.414  21.214  0.00  0.00    +0.000 Cl
ENDBRANCH  14  16
ENDBRANCH   1  14
TORSDOF 5
ENDMDL
MODEL 7
REMARK VINA RESULT:      -6.7      2.879      3.935
REMARK  Name = 
REMARK  6 active torsions:
REMARK  status: ('A' for Active; 'I' for Inactive)
REMARK    1  A    between atoms: C_1  and  C_2
REMARK    2  A    between atoms: C_2  and  C_17
REMARK    3  A    between atoms: N_3  and  N_4
REMARK    4  A    between atoms: N_4  and  C_5
REMARK    5  A    between atoms: C_5  and  N_7
REMARK    6  A    between atoms: N_7  and  C_8
REMARK                            x       y       z     vdW  Elec       q    Type
REMARK                         _______ _______ _______ _____ _____    ______ ____
ROOT
ATOM      1  C   UNL     1       3.417   7.183  17.588  0.00  0.00    +0.000 C 
ATOM      2  S   UNL     1       2.915   8.767  17.787  0.00  0.00    +0.000 S 
ENDROOT
BRANCH   1   3
ATOM      3  N   UNL     1       4.725   6.773  17.421  0.00  0.00    +0.000 N 
ATOM      4  H   UNL     1       5.285   6.540  18.231  0.00  0.00    +0.000 HD
BRANCH   3   7
ATOM      5  C   UNL     1       6.796   4.794  17.238  0.00  0.00    +0.000 C 
ATOM      6  C   UNL     1       6.048   5.437  16.084  0.00  0.00    +0.000 C 
ATOM      7  N   UNL     1       5.163   6.381  16.194  0.00  0.00    +0.000 NA
BRANCH   6   8
ATOM      8  C   UNL     1       6.413   4.964  14.714  0.00  0.00    +0.000 A 
ATOM      9  C   UNL     1       5.610   4.031  14.060  0.00  0.00    +0.000 A 
ATOM     10  C   UNL     1       5.986   3.619  12.784  0.00  0.00    +0.000 A 
ATOM     11  C   UNL     1       7.131   4.151  12.210  0.00  0.00    +0.000 A 
ATOM     12  C   UNL     1       7.869   5.071  12.935  0.00  0.00    +0.000 A 
ATOM     13  N   UNL     1       7.542   5.487  14.179  0.00  0.00    +0.000 NA
ENDBRANCH   6   8
ENDBRANCH   3   7
ENDBRANCH   1   3
BRANCH   1  14
ATOM     14  N   UNL     1       2.492   6.173  17.669  0.00  0.00    +0.000 N 
ATOM     15  H   UNL     1       1.949   6.007  16.822  0.00  0.00    +0.000 HD
BRANCH  14  16
ATOM     16  C   UNL     1       2.434   5.157  18.654  0.00  0.00    +0.000 A 
ATOM     17  C   UNL     1       2.046   5.485  19.959  0.00  0.00    +0.000 A 
ATOM     18  C   UNL     1       2.077   4.523  20.966  0.00  0.00    +0.000 A 
ATOM     19  C   UNL     1       2.484   3.220  20.676  0.00  0.00    +0.000 A 
ATOM     20 CL   UNL     1       2.522   2.103  21.995  0.00  0.00    +0.000 Cl
ATOM     21  C   UNL     1       2.852   2.864  19.367  0.00  0.00    +0.000 A 
ATOM     22 CL   UNL     1       3.299   1.226  19.006  0.00  0.00    +0.000 Cl
ATOM     23  C   UNL     1       2.846   3.846  18.358  0.00  0.00    +0.000 A 
ATOM     24 CL   UNL     1       3.254   3.449  16.714  0.00  0.00    +0.000 Cl
ENDBRANCH  14  16
ENDBRANCH   1  14
TORSDOF 5
ENDMDL
MODEL 8
REMARK VINA RESULT:      -6.7      1.243      1.528
REMARK  Name = 
REMARK  6 active torsions:
REMARK  status: ('A' for Active; 'I' for Inactive)
REMARK    1  A    between atoms: C_1  and  C_2
REMARK    2  A    between atoms: C_2  and  C_17
REMARK    3  A    between atoms: N_3  and  N_4
REMARK    4  A    between atoms: N_4  and  C_5
REMARK    5  A    between atoms: C_5  and  N_7
REMARK    6  A    between atoms: N_7  and  C_8
REMARK                            x       y       z     vdW  Elec       q    Type
REMARK                         _______ _______ _______ _____ _____    ______ ____
ROOT
ATOM      1  C   UNL     1       3.368   5.479  18.483  0.00  0.00    +0.000 C 
ATOM      2  S   UNL     1       2.133   4.558  17.828  0.00  0.00    +0.000 S 
ENDROOT
BRANCH   1   3
ATOM      3  N   UNL     1       4.696   5.417  18.113  0.00  0.00    +0.000 N 
ATOM      4  H   UNL     1       5.404   5.230  18.813  0.00  0.00    +0.000 HD
BRANCH   3   7
ATOM      5  C   UNL     1       7.411   4.802  17.412  0.00  0.00    +0.000 C 
ATOM      6  C   UNL     1       6.236   4.945  16.462  0.00  0.00    +0.000 C 
ATOM      7  N   UNL     1       5.031   5.293  16.801  0.00  0.00    +0.000 NA
BRANCH   6   8
ATOM      8  C   UNL     1       6.525   4.711  15.014  0.00  0.00    +0.000 A 
ATOM      9  C   UNL     1       5.724   3.844  14.273  0.00  0.00    +0.000 A 
ATOM     10  C   UNL     1       6.028   3.656  12.927  0.00  0.00    +0.000 A 
ATOM     11  C   UNL     1       7.102   4.336  12.373  0.00  0.00    +0.000 A 
ATOM     12  C   UNL     1       7.844   5.176  13.186  0.00  0.00    +0.000 A 
ATOM     13  N   UNL     1       7.587   5.376  14.498  0.00  0.00    +0.000 NA
ENDBRANCH   6   8
ENDBRANCH   3   7
ENDBRANCH   1   3
BRANCH   1  14
ATOM     14  N   UNL     1       3.063   6.442  19.412  0.00  0.00    +0.000 N 
ATOM     15  H   UNL     1       3.593   6.395  20.282  0.00  0.00    +0.000 HD
BRANCH  14  16
ATOM     16  C   UNL     1       2.354   7.646  19.180  0.00  0.00    +0.000 A 
ATOM     17  C   UNL     1       2.589   8.369  18.004  0.00  0.00    +0.000 A 
ATOM     18  C   UNL     1       1.977   9.603  17.800  0.00  0.00    +0.000 A 
ATOM     19  C   UNL     1       1.113  10.122  18.766  0.00  0.00    +0.000 A 
ATOM     20 CL   UNL     1       0.425  11.676  18.443  0.00  0.00    +0.000 Cl
ATOM     21  C   UNL     1       0.843   9.401  19.941  0.00  0.00    +0.000 A 
ATOM     22 CL   UNL     1      -0.279  10.030  21.107  0.00  0.00    +0.000 Cl
ATOM     23  C   UNL     1       1.485   8.167  20.156  0.00  0.00    +0.000 A 
ATOM     24 CL   UNL     1       1.155   7.215  21.574  0.00  0.00    +0.000 Cl
ENDBRANCH  14  16
ENDBRANCH   1  14
TORSDOF 5
ENDMDL
MODEL 9
REMARK VINA RESULT:      -6.6      2.319      3.823
REMARK  Name = 
REMARK  6 active torsions:
REMARK  status: ('A' for Active; 'I' for Inactive)
REMARK    1  A    between atoms: C_1  and  C_2
REMARK    2  A    between atoms: C_2  and  C_17
REMARK    3  A    between atoms: N_3  and  N_4
REMARK    4  A    between atoms: N_4  and  C_5
REMARK    5  A    between atoms: C_5  and  N_7
REMARK    6  A    between atoms: N_7  and  C_8
REMARK                            x       y       z     vdW  Elec       q    Type
REMARK                         _______ _______ _______ _____ _____    ______ ____
ROOT
ATOM      1  C   UNL     1       6.704   6.205  16.610  0.00  0.00    +0.000 C 
ATOM      2  S   UNL     1       7.418   7.278  17.678  0.00  0.00    +0.000 S 
ENDROOT
BRANCH   1   3
ATOM      3  N   UNL     1       7.362   5.503  15.620  0.00  0.00    +0.000 N 
ATOM      4  H   UNL     1       8.363   5.363  15.685  0.00  0.00    +0.000 HD
BRANCH   3   7
ATOM      5  C   UNL     1       8.152   5.450  12.861  0.00  0.00    +0.000 C 
ATOM      6  C   UNL     1       7.036   4.646  13.503  0.00  0.00    +0.000 C 
ATOM      7  N   UNL     1       6.655   4.743  14.742  0.00  0.00    +0.000 NA
BRANCH   6   8
ATOM      8  C   UNL     1       6.294   3.710  12.605  0.00  0.00    +0.000 A 
ATOM      9  C   UNL     1       4.927   3.878  12.396  0.00  0.00    +0.000 A 
ATOM     10  C   UNL     1       4.275   2.985  11.550  0.00  0.00    +0.000 A 
ATOM     11  C   UNL     1       5.003   1.971  10.944  0.00  0.00    +0.000 A 
ATOM     12  C   UNL     1       6.359   1.880  11.211  0.00  0.00    +0.000 A 
ATOM     13  N   UNL     1       7.023   2.721  12.034  0.00  0.00    +0.000 NA
ENDBRANCH   6   8
ENDBRANCH   3   7
ENDBRANCH   1   3
BRANCH   1  14
ATOM     14  N   UNL     1       5.370   5.914  16.746  0.00  0.00    +0.000 N 
ATOM     15  H   UNL     1       4.827   5.930  15.883  0.00  0.00    +0.000 HD
BRANCH  14  16
ATOM     16  C   UNL     1       4.749   5.297  17.859  0.00  0.00    +0.000 A 
ATOM     17  C   UNL     1       5.171   4.026  18.266  0.00  0.00    +0.000 A 
ATOM     18  C   UNL     1       4.509   3.359  19.296  0.00  0.00    +0.000 A 
ATOM     19  C   UNL     1       3.427   3.963  19.937  0.00  0.00    +0.000 A 
ATOM     20 CL   UNL     1       2.648   3.048  21.180  0.00  0.00    +0.000 Cl
ATOM     21  C   UNL     1       3.005   5.250  19.561  0.00  0.00    +0.000 A 
ATOM     22 CL   UNL     1       1.695   6.015  20.407  0.00  0.00    +0.000 Cl
ATOM     23  C   UNL     1       3.658   5.908  18.502  0.00  0.00    +0.000 A 
ATOM     24 CL   UNL     1       3.201   7.517  18.025  0.00  0.00    +0.000 Cl
ENDBRANCH  14  16
ENDBRANCH   1  14
TORSDOF 5
ENDMDL
