MODEL 1
REMARK VINA RESULT:      -7.3      0.000      0.000
REMARK  Name = 
REMARK  4 active torsions:
REMARK  status: ('A' for Active; 'I' for Inactive)
REMARK    1  A    between atoms: C_1  and  C_2
REMARK    2  A    between atoms: C_5  and  N_6
REMARK    3  A    between atoms: N_6  and  C_7
REMARK    4  A    between atoms: C_7  and  C_8
REMARK                            x       y       z     vdW  Elec       q    Type
REMARK                         _______ _______ _______ _____ _____    ______ ____
ROOT
ATOM      1  C   UNL     1       1.992   2.936  21.551  0.00  0.00    +0.000 C 
ATOM      2  C   UNL     1       2.591   3.391  20.252  0.00  0.00    +0.000 A 
ATOM      3  N   UNL     1       3.180   2.429  19.507  0.00  0.00    +0.000 NA
ATOM      4  N   UNL     1       3.767   2.749  18.310  0.00  0.00    +0.000 NA
ATOM      5  C   UNL     1       3.766   4.015  17.848  0.00  0.00    +0.000 A 
ATOM      6  C   UNL     1       3.168   5.053  18.603  0.00  0.00    +0.000 A 
ATOM      7  C   UNL     1       3.132   6.406  18.177  0.00  0.00    +0.000 A 
ATOM      8  C   UNL     1       2.486   7.398  18.913  0.00  0.00    +0.000 A 
ATOM      9  C   UNL     1       1.885   7.076  20.118  0.00  0.00    +0.000 A 
ATOM     10  C   UNL     1       1.931   5.762  20.579  0.00  0.00    +0.000 A 
ATOM     11  C   UNL     1       2.553   4.730  19.834  0.00  0.00    +0.000 A 
ENDROOT
BRANCH   5  12
ATOM     12  N   UNL     1       4.446   4.331  16.655  0.00  0.00    +0.000 N 
ATOM     13  H   UNL     1       4.019   3.852  15.871  0.00  0.00    +0.000 HD
BRANCH  12  14
ATOM     14  C   UNL     1       5.878   4.050  16.631  0.00  0.00    +0.000 C 
BRANCH  14  15
ATOM     15  C   UNL     1       6.621   5.079  17.421  0.00  0.00    +0.000 A 
ATOM     16  C   UNL     1       6.973   6.390  17.169  0.00  0.00    +0.000 A 
ATOM     17  C   UNL     1       7.771   6.806  18.261  0.00  0.00    +0.000 A 
ATOM     18  C   UNL     1       7.857   5.726  19.108  0.00  0.00    +0.000 A 
ATOM     19  O   UNL     1       7.163   4.671  18.607  0.00  0.00    +0.000 OA
ENDBRANCH  14  15
ENDBRANCH  12  14
ENDBRANCH   5  12
TORSDOF 3
ENDMDL
MODEL 2
REMARK VINA RESULT:      -7.1      2.388      3.909
REMARK  Name = 
REMARK  4 active torsions:
REMARK  status: ('A' for Active; 'I' for Inactive)
REMARK    1  A    between atoms: C_1  and  C_2
REMARK    2  A    between atoms: C_5  and  N_6
REMARK    3  A    between atoms: N_6  and  C_7
REMARK    4  A    between atoms: C_7  and  C_8
REMARK                            x       y       z     vdW  Elec       q    Type
REMARK                         _______ _______ _______ _____ _____    ______ ____
ROOT
ATOM      1  C   UNL     1       1.835   7.482  18.186  0.00  0.00    +0.000 C 
ATOM      2  C   UNL     1       2.968   6.504  18.068  0.00  0.00    +0.000 A 
ATOM      3  N   UNL     1       4.204   7.043  17.981  0.00  0.00    +0.000 NA
ATOM      4  N   UNL     1       5.302   6.231  17.858  0.00  0.00    +0.000 NA
ATOM      5  C   UNL     1       5.178   4.890  17.828  0.00  0.00    +0.000 A 
ATOM      6  C   UNL     1       3.899   4.285  17.907  0.00  0.00    +0.000 A 
ATOM      7  C   UNL     1       3.697   2.881  17.881  0.00  0.00    +0.000 A 
ATOM      8  C   UNL     1       2.432   2.312  18.019  0.00  0.00    +0.000 A 
ATOM      9  C   UNL     1       1.323   3.130  18.151  0.00  0.00    +0.000 A 
ATOM     10  C   UNL     1       1.486   4.514  18.149  0.00  0.00    +0.000 A 
ATOM     11  C   UNL     1       2.764   5.116  18.043  0.00  0.00    +0.000 A 
ENDROOT
BRANCH   5  12
ATOM     12  N   UNL     1       6.312   4.080  17.620  0.00  0.00    +0.000 N 
ATOM     13  H   UNL     1       6.722   3.816  18.508  0.00  0.00    +0.000 HD
BRANCH  12  14
ATOM     14  C   UNL     1       7.369   4.647  16.787  0.00  0.00    +0.000 C 
BRANCH  14  15
ATOM     15  C   UNL     1       7.007   4.528  15.341  0.00  0.00    +0.000 A 
ATOM     16  C   UNL     1       6.117   3.728  14.654  0.00  0.00    +0.000 A 
ATOM     17  C   UNL     1       6.311   4.003  13.279  0.00  0.00    +0.000 A 
ATOM     18  C   UNL     1       7.306   4.950  13.214  0.00  0.00    +0.000 A 
ATOM     19  O   UNL     1       7.738   5.274  14.460  0.00  0.00    +0.000 OA
ENDBRANCH  14  15
ENDBRANCH  12  14
ENDBRANCH   5  12
TORSDOF 3
ENDMDL
MODEL 3
REMARK VINA RESULT:      -7.0      2.392      5.656
REMARK  Name = 
REMARK  4 active torsions:
REMARK  status: ('A' for Active; 'I' for Inactive)
REMARK    1  A    between atoms: C_1  and  C_2
REMARK    2  A    between atoms: C_5  and  N_6
REMARK    3  A    between atoms: N_6  and  C_7
REMARK    4  A    between atoms: C_7  and  C_8
REMARK                            x       y       z     vdW  Elec       q    Type
REMARK                         _______ _______ _______ _____ _____    ______ ____
ROOT
ATOM      1  C   UNL     1       7.922   7.072  18.200  0.00  0.00    +0.000 C 
ATOM      2  C   UNL     1       6.961   5.924  18.090  0.00  0.00    +0.000 A 
ATOM      3  N   UNL     1       6.372   5.538  19.244  0.00  0.00    +0.000 NA
ATOM      4  N   UNL     1       5.488   4.490  19.248  0.00  0.00    +0.000 NA
ATOM      5  C   UNL     1       5.184   3.829  18.114  0.00  0.00    +0.000 A 
ATOM      6  C   UNL     1       5.787   4.196  16.886  0.00  0.00    +0.000 A 
ATOM      7  C   UNL     1       5.512   3.545  15.656  0.00  0.00    +0.000 A 
ATOM      8  C   UNL     1       6.076   3.964  14.452  0.00  0.00    +0.000 A 
ATOM      9  C   UNL     1       6.963   5.028  14.445  0.00  0.00    +0.000 A 
ATOM     10  C   UNL     1       7.277   5.669  15.642  0.00  0.00    +0.000 A 
ATOM     11  C   UNL     1       6.692   5.282  16.872  0.00  0.00    +0.000 A 
ENDROOT
BRANCH   5  12
ATOM     12  N   UNL     1       4.335   2.705  18.157  0.00  0.00    +0.000 N 
ATOM     13  H   UNL     1       4.552   2.073  17.396  0.00  0.00    +0.000 HD
BRANCH  12  14
ATOM     14  C   UNL     1       2.900   2.975  18.123  0.00  0.00    +0.000 C 
BRANCH  14  15
ATOM     15  C   UNL     1       2.321   2.862  19.497  0.00  0.00    +0.000 A 
ATOM     16  C   UNL     1       1.075   3.136  20.022  0.00  0.00    +0.000 A 
ATOM     17  C   UNL     1       1.174   2.932  21.418  0.00  0.00    +0.000 A 
ATOM     18  C   UNL     1       2.473   2.548  21.658  0.00  0.00    +0.000 A 
ATOM     19  O   UNL     1       3.179   2.504  20.499  0.00  0.00    +0.000 OA
ENDBRANCH  14  15
ENDBRANCH  12  14
ENDBRANCH   5  12
TORSDOF 3
ENDMDL
MODEL 4
REMARK VINA RESULT:      -7.0      1.817      2.581
REMARK  Name = 
REMARK  4 active torsions:
REMARK  status: ('A' for Active; 'I' for Inactive)
REMARK    1  A    between atoms: C_1  and  C_2
REMARK    2  A    between atoms: C_5  and  N_6
REMARK    3  A    between atoms: N_6  and  C_7
REMARK    4  A    between atoms: C_7  and  C_8
REMARK                            x       y       z     vdW  Elec       q    Type
REMARK                         _______ _______ _______ _____ _____    ______ ____
ROOT
ATOM      1  C   UNL     1       1.796   3.085  19.901  0.00  0.00    +0.000 C 
ATOM      2  C   UNL     1       3.098   3.706  19.486  0.00  0.00    +0.000 A 
ATOM      3  N   UNL     1       4.205   2.970  19.732  0.00  0.00    +0.000 NA
ATOM      4  N   UNL     1       5.442   3.458  19.400  0.00  0.00    +0.000 NA
ATOM      5  C   UNL     1       5.584   4.666  18.821  0.00  0.00    +0.000 A 
ATOM      6  C   UNL     1       4.450   5.472  18.555  0.00  0.00    +0.000 A 
ATOM      7  C   UNL     1       4.527   6.753  17.949  0.00  0.00    +0.000 A 
ATOM      8  C   UNL     1       3.390   7.500  17.647  0.00  0.00    +0.000 A 
ATOM      9  C   UNL     1       2.138   7.005  17.974  0.00  0.00    +0.000 A 
ATOM     10  C   UNL     1       2.032   5.765  18.598  0.00  0.00    +0.000 A 
ATOM     11  C   UNL     1       3.170   4.973  18.887  0.00  0.00    +0.000 A 
ENDROOT
BRANCH   5  12
ATOM     12  N   UNL     1       6.871   5.179  18.563  0.00  0.00    +0.000 N 
ATOM     13  H   UNL     1       6.807   6.135  18.232  0.00  0.00    +0.000 HD
BRANCH  12  14
ATOM     14  C   UNL     1       7.689   4.428  17.615  0.00  0.00    +0.000 C 
BRANCH  14  15
ATOM     15  C   UNL     1       7.070   4.464  16.255  0.00  0.00    +0.000 A 
ATOM     16  C   UNL     1       6.036   3.763  15.670  0.00  0.00    +0.000 A 
ATOM     17  C   UNL     1       5.993   4.169  14.315  0.00  0.00    +0.000 A 
ATOM     18  C   UNL     1       7.002   5.090  14.158  0.00  0.00    +0.000 A 
ATOM     19  O   UNL     1       7.664   5.276  15.329  0.00  0.00    +0.000 OA
ENDBRANCH  14  15
ENDBRANCH  12  14
ENDBRANCH   5  12
TORSDOF 3
ENDMDL
MODEL 5
REMARK VINA RESULT:      -7.0      2.227      5.367
REMARK  Name = 
REMARK  4 active torsions:
REMARK  status: ('A' for Active; 'I' for Inactive)
REMARK    1  A    between atoms: C_1  and  C_2
REMARK    2  A    between atoms: C_5  and  N_6
REMARK    3  A    between atoms: N_6  and  C_7
REMARK    4  A    between atoms: C_7  and  C_8
REMARK                            x       y       z     vdW  Elec       q    Type
REMARK                         _______ _______ _______ _____ _____    ______ ____
ROOT
ATOM      1  C   UNL     1       7.879   5.811  19.199  0.00  0.00    +0.000 C 
ATOM      2  C   UNL     1       6.524   5.426  18.679  0.00  0.00    +0.000 A 
ATOM      3  N   UNL     1       5.515   5.470  19.578  0.00  0.00    +0.000 NA
ATOM      4  N   UNL     1       4.243   5.124  19.201  0.00  0.00    +0.000 NA
ATOM      5  C   UNL     1       3.969   4.742  17.938  0.00  0.00    +0.000 A 
ATOM      6  C   UNL     1       5.000   4.672  16.970  0.00  0.00    +0.000 A 
ATOM      7  C   UNL     1       4.782   4.278  15.624  0.00  0.00    +0.000 A 
ATOM      8  C   UNL     1       5.804   4.275  14.677  0.00  0.00    +0.000 A 
ATOM      9  C   UNL     1       7.089   4.632  15.054  0.00  0.00    +0.000 A 
ATOM     10  C   UNL     1       7.341   4.994  16.376  0.00  0.00    +0.000 A 
ATOM     11  C   UNL     1       6.312   5.036  17.348  0.00  0.00    +0.000 A 
ENDROOT
BRANCH   5  12
ATOM     12  N   UNL     1       2.671   4.314  17.596  0.00  0.00    +0.000 N 
ATOM     13  H   UNL     1       1.979   4.935  18.000  0.00  0.00    +0.000 HD
BRANCH  12  14
ATOM     14  C   UNL     1       2.320   2.946  17.967  0.00  0.00    +0.000 C 
BRANCH  14  15
ATOM     15  C   UNL     1       2.028   2.867  19.431  0.00  0.00    +0.000 A 
ATOM     16  C   UNL     1       0.977   3.306  20.209  0.00  0.00    +0.000 A 
ATOM     17  C   UNL     1       1.330   3.032  21.552  0.00  0.00    +0.000 A 
ATOM     18  C   UNL     1       2.573   2.445  21.509  0.00  0.00    +0.000 A 
ATOM     19  O   UNL     1       3.008   2.341  20.226  0.00  0.00    +0.000 OA
ENDBRANCH  14  15
ENDBRANCH  12  14
ENDBRANCH   5  12
TORSDOF 3
ENDMDL
MODEL 6
REMARK VINA RESULT:      -6.9      1.055      1.234
REMARK  Name = 
REMARK  4 active torsions:
REMARK  status: ('A' for Active; 'I' for Inactive)
REMARK    1  A    between atoms: C_1  and  C_2
REMARK    2  A    between atoms: C_5  and  N_6
REMARK    3  A    between atoms: N_6  and  C_7
REMARK    4  A    between atoms: C_7  and  C_8
REMARK                            x       y       z     vdW  Elec       q    Type
REMARK                         _______ _______ _______ _____ _____    ______ ____
ROOT
ATOM      1  C   UNL     1       1.920   2.882  19.777  0.00  0.00    +0.000 C 
ATOM      2  C   UNL     1       2.807   3.440  18.701  0.00  0.00    +0.000 A 
ATOM      3  N   UNL     1       3.488   2.531  17.970  0.00  0.00    +0.000 NA
ATOM      4  N   UNL     1       4.333   2.944  16.973  0.00  0.00    +0.000 NA
ATOM      5  C   UNL     1       4.499   4.253  16.696  0.00  0.00    +0.000 A 
ATOM      6  C   UNL     1       3.810   5.238  17.446  0.00  0.00    +0.000 A 
ATOM      7  C   UNL     1       3.938   6.631  17.208  0.00  0.00    +0.000 A 
ATOM      8  C   UNL     1       3.204   7.575  17.924  0.00  0.00    +0.000 A 
ATOM      9  C   UNL     1       2.344   7.159  18.926  0.00  0.00    +0.000 A 
ATOM     10  C   UNL     1       2.220   5.799  19.204  0.00  0.00    +0.000 A 
ATOM     11  C   UNL     1       2.930   4.819  18.470  0.00  0.00    +0.000 A 
ENDROOT
BRANCH   5  12
ATOM     12  N   UNL     1       5.432   4.656  15.721  0.00  0.00    +0.000 N 
ATOM     13  H   UNL     1       5.234   4.202  14.837  0.00  0.00    +0.000 HD
BRANCH  12  14
ATOM     14  C   UNL     1       6.839   4.429  16.038  0.00  0.00    +0.000 C 
BRANCH  14  15
ATOM     15  C   UNL     1       7.251   5.277  17.198  0.00  0.00    +0.000 A 
ATOM     16  C   UNL     1       7.494   6.628  17.340  0.00  0.00    +0.000 A 
ATOM     17  C   UNL     1       7.962   6.814  18.663  0.00  0.00    +0.000 A 
ATOM     18  C   UNL     1       7.977   5.567  19.243  0.00  0.00    +0.000 A 
ATOM     19  O   UNL     1       7.549   4.626  18.362  0.00  0.00    +0.000 OA
ENDBRANCH  14  15
ENDBRANCH  12  14
ENDBRANCH   5  12
TORSDOF 3
ENDMDL
MODEL 7
REMARK VINA RESULT:      -6.9      2.549      5.713
REMARK  Name = 
REMARK  4 active torsions:
REMARK  status: ('A' for Active; 'I' for Inactive)
REMARK    1  A    between atoms: C_1  and  C_2
REMARK    2  A    between atoms: C_5  and  N_6
REMARK    3  A    between atoms: N_6  and  C_7
REMARK    4  A    between atoms: C_7  and  C_8
REMARK                            x       y       z     vdW  Elec       q    Type
REMARK                         _______ _______ _______ _____ _____    ______ ____
ROOT
ATOM      1  C   UNL     1       8.064   6.909  18.535  0.00  0.00    +0.000 C 
ATOM      2  C   UNL     1       7.058   5.809  18.359  0.00  0.00    +0.000 A 
ATOM      3  N   UNL     1       6.471   5.363  19.492  0.00  0.00    +0.000 NA
ATOM      4  N   UNL     1       5.548   4.351  19.436  0.00  0.00    +0.000 NA
ATOM      5  C   UNL     1       5.201   3.787  18.262  0.00  0.00    +0.000 A 
ATOM      6  C   UNL     1       5.800   4.220  17.053  0.00  0.00    +0.000 A 
ATOM      7  C   UNL     1       5.482   3.670  15.784  0.00  0.00    +0.000 A 
ATOM      8  C   UNL     1       6.044   4.155  14.605  0.00  0.00    +0.000 A 
ATOM      9  C   UNL     1       6.971   5.182  14.659  0.00  0.00    +0.000 A 
ATOM     10  C   UNL     1       7.327   5.722  15.893  0.00  0.00    +0.000 A 
ATOM     11  C   UNL     1       6.746   5.268  17.103  0.00  0.00    +0.000 A 
ENDROOT
BRANCH   5  12
ATOM     12  N   UNL     1       4.310   2.696  18.239  0.00  0.00    +0.000 N 
ATOM     13  H   UNL     1       3.400   2.994  17.907  0.00  0.00    +0.000 HD
BRANCH  12  14
ATOM     14  C   UNL     1       4.120   1.987  19.501  0.00  0.00    +0.000 C 
BRANCH  14  15
ATOM     15  C   UNL     1       2.884   2.474  20.186  0.00  0.00    +0.000 A 
ATOM     16  C   UNL     1       2.539   2.627  21.514  0.00  0.00    +0.000 A 
ATOM     17  C   UNL     1       1.181   3.027  21.530  0.00  0.00    +0.000 A 
ATOM     18  C   UNL     1       0.784   3.090  20.215  0.00  0.00    +0.000 A 
ATOM     19  O   UNL     1       1.809   2.755  19.390  0.00  0.00    +0.000 OA
ENDBRANCH  14  15
ENDBRANCH  12  14
ENDBRANCH   5  12
TORSDOF 3
ENDMDL
MODEL 8
REMARK VINA RESULT:      -6.9      2.314      3.706
REMARK  Name = 
REMARK  4 active torsions:
REMARK  status: ('A' for Active; 'I' for Inactive)
REMARK    1  A    between atoms: C_1  and  C_2
REMARK    2  A    between atoms: C_5  and  N_6
REMARK    3  A    between atoms: N_6  and  C_7
REMARK    4  A    between atoms: C_7  and  C_8
REMARK                            x       y       z     vdW  Elec       q    Type
REMARK                         _______ _______ _______ _____ _____    ______ ____
ROOT
ATOM      1  C   UNL     1       1.821   7.120  20.338  0.00  0.00    +0.000 C 
ATOM      2  C   UNL     1       2.507   6.254  19.321  0.00  0.00    +0.000 A 
ATOM      3  N   UNL     1       3.472   6.858  18.592  0.00  0.00    +0.000 NA
ATOM      4  N   UNL     1       4.148   6.153  17.629  0.00  0.00    +0.000 NA
ATOM      5  C   UNL     1       3.874   4.855  17.393  0.00  0.00    +0.000 A 
ATOM      6  C   UNL     1       2.864   4.189  18.130  0.00  0.00    +0.000 A 
ATOM      7  C   UNL     1       2.525   2.825  17.933  0.00  0.00    +0.000 A 
ATOM      8  C   UNL     1       1.566   2.180  18.712  0.00  0.00    +0.000 A 
ATOM      9  C   UNL     1       0.888   2.888  19.690  0.00  0.00    +0.000 A 
ATOM     10  C   UNL     1       1.177   4.237  19.886  0.00  0.00    +0.000 A 
ATOM     11  C   UNL     1       2.169   4.906  19.130  0.00  0.00    +0.000 A 
ENDROOT
BRANCH   5  12
ATOM     12  N   UNL     1       4.526   4.175  16.345  0.00  0.00    +0.000 N 
ATOM     13  H   UNL     1       4.351   3.179  16.412  0.00  0.00    +0.000 HD
BRANCH  12  14
ATOM     14  C   UNL     1       5.969   4.374  16.242  0.00  0.00    +0.000 C 
BRANCH  14  15
ATOM     15  C   UNL     1       6.380   4.435  14.805  0.00  0.00    +0.000 A 
ATOM     16  C   UNL     1       5.962   3.765  13.674  0.00  0.00    +0.000 A 
ATOM     17  C   UNL     1       6.814   4.180  12.624  0.00  0.00    +0.000 A 
ATOM     18  C   UNL     1       7.699   5.075  13.180  0.00  0.00    +0.000 A 
ATOM     19  O   UNL     1       7.446   5.236  14.504  0.00  0.00    +0.000 OA
ENDBRANCH  14  15
ENDBRANCH  12  14
ENDBRANCH   5  12
TORSDOF 3
ENDMDL
MODEL 9
REMARK VINA RESULT:      -6.8      2.035      3.684
REMARK  Name = 
REMARK  4 active torsions:
REMARK  status: ('A' for Active; 'I' for Inactive)
REMARK    1  A    between atoms: C_1  and  C_2
REMARK    2  A    between atoms: C_5  and  N_6
REMARK    3  A    between atoms: N_6  and  C_7
REMARK    4  A    between atoms: C_7  and  C_8
REMARK                            x       y       z     vdW  Elec       q    Type
REMARK                         _______ _______ _______ _____ _____    ______ ____
ROOT
ATOM      1  C   UNL     1       1.962   8.146  18.562  0.00  0.00    +0.000 C 
ATOM      2  C   UNL     1       2.980   7.052  18.417  0.00  0.00    +0.000 A 
ATOM      3  N   UNL     1       3.976   7.289  17.535  0.00  0.00    +0.000 NA
ATOM      4  N   UNL     1       4.946   6.344  17.324  0.00  0.00    +0.000 NA
ATOM      5  C   UNL     1       4.936   5.172  17.988  0.00  0.00    +0.000 A 
ATOM      6  C   UNL     1       3.904   4.881  18.914  0.00  0.00    +0.000 A 
ATOM      7  C   UNL     1       3.831   3.668  19.646  0.00  0.00    +0.000 A 
ATOM      8  C   UNL     1       2.837   3.433  20.594  0.00  0.00    +0.000 A 
ATOM      9  C   UNL     1       1.859   4.390  20.814  0.00  0.00    +0.000 A 
ATOM     10  C   UNL     1       1.886   5.578  20.088  0.00  0.00    +0.000 A 
ATOM     11  C   UNL     1       2.904   5.854  19.143  0.00  0.00    +0.000 A 
ENDROOT
BRANCH   5  12
ATOM     12  N   UNL     1       5.898   4.185  17.695  0.00  0.00    +0.000 N 
ATOM     13  H   UNL     1       6.201   3.727  18.547  0.00  0.00    +0.000 HD
BRANCH  12  14
ATOM     14  C   UNL     1       7.088   4.634  16.977  0.00  0.00    +0.000 C 
BRANCH  14  15
ATOM     15  C   UNL     1       6.873   4.522  15.502  0.00  0.00    +0.000 A 
ATOM     16  C   UNL     1       6.058   3.726  14.724  0.00  0.00    +0.000 A 
ATOM     17  C   UNL     1       6.389   4.009  13.377  0.00  0.00    +0.000 A 
ATOM     18  C   UNL     1       7.384   4.957  13.418  0.00  0.00    +0.000 A 
ATOM     19  O   UNL     1       7.687   5.276  14.703  0.00  0.00    +0.000 OA
ENDBRANCH  14  15
ENDBRANCH  12  14
ENDBRANCH   5  12
TORSDOF 3
ENDMDL
