MODEL 1
REMARK VINA RESULT:      -8.5      0.000      0.000
REMARK  Name = 
REMARK  8 active torsions:
REMARK  status: ('A' for Active; 'I' for Inactive)
REMARK    1  A    between atoms: C_1  and  C_2
REMARK    2  A    between atoms: C_2  and  O_3
REMARK    3  A    between atoms: O_3  and  C_4
REMARK    4  A    between atoms: C_9  and  O_10
REMARK    5  A    between atoms: O_10  and  C_11
REMARK    6  A    between atoms: C_16  and  C_17
REMARK    7  A    between atoms: N_18  and  O_19
REMARK    8  A    between atoms: C_23  and  C_24
REMARK                            x       y       z     vdW  Elec       q    Type
REMARK                         _______ _______ _______ _____ _____    ______ ____
ROOT
ATOM      1  C   UNL     1       2.899   4.841  17.748  0.00  0.00    +0.000 A 
ATOM      2  N   UNL     1       1.591   4.468  17.831  0.00  0.00    +0.000 NA
ATOM      3  C   UNL     1       1.322   3.151  17.925  0.00  0.00    +0.000 A 
ATOM      4  C   UNL     1       2.298   2.176  17.989  0.00  0.00    +0.000 A 
ATOM      5  C   UNL     1       3.632   2.575  17.982  0.00  0.00    +0.000 A 
ATOM      6  C   UNL     1       3.956   3.937  17.906  0.00  0.00    +0.000 A 
ENDROOT
BRANCH   6   7
ATOM      7  C   UNL     1       5.406   4.346  17.951  0.00  0.00    +0.000 C 
ATOM      8  N   UNL     1       5.902   4.551  19.144  0.00  0.00    +0.000 NA
ATOM      9  N   UNL     1       6.152   4.527  16.746  0.00  0.00    +0.000 N 
ATOM     10  C   UNL     1       7.220   5.375  16.519  0.00  0.00    +0.000 A 
ATOM     11  N   UNL     1       7.598   5.407  15.261  0.00  0.00    +0.000 NA
ATOM     12  C   UNL     1       6.771   4.536  14.610  0.00  0.00    +0.000 A 
ATOM     13  C   UNL     1       6.890   4.329  13.149  0.00  0.00    +0.000 C 
ATOM     14  C   UNL     1       5.892   3.963  15.503  0.00  0.00    +0.000 A 
BRANCH   8  15
ATOM     15  O   UNL     1       7.275   4.787  19.183  0.00  0.00    +0.000 OA
ATOM     16  H   UNL     1       7.416   5.348  18.397  0.00  0.00    +0.000 HD
ENDBRANCH   8  15
ENDBRANCH   6   7
BRANCH   1  17
ATOM     17  O   UNL     1       3.181   6.187  17.568  0.00  0.00    +0.000 OA
BRANCH  17  23
ATOM     18  C   UNL     1       2.340   6.989  19.767  0.00  0.00    +0.000 A 
ATOM     19  C   UNL     1       1.704   8.033  20.459  0.00  0.00    +0.000 A 
ATOM     20  C   UNL     1       1.201   9.141  19.772  0.00  0.00    +0.000 A 
ATOM     21  C   UNL     1       1.359   9.231  18.395  0.00  0.00    +0.000 A 
ATOM     22  C   UNL     1       2.062   8.238  17.710  0.00  0.00    +0.000 A 
ATOM     23  C   UNL     1       2.582   7.127  18.388  0.00  0.00    +0.000 A 
BRANCH  18  24
ATOM     24  O   UNL     1       2.706   5.813  20.371  0.00  0.00    +0.000 OA
BRANCH  24  26
ATOM     25  C   UNL     1       2.222   3.768  21.488  0.00  0.00    +0.000 C 
ATOM     26  C   UNL     1       1.689   5.138  21.101  0.00  0.00    +0.000 C 
ENDBRANCH  24  26
ENDBRANCH  18  24
ENDBRANCH  17  23
ENDBRANCH   1  17
TORSDOF 6
ENDMDL
MODEL 2
REMARK VINA RESULT:      -8.4      1.147      1.877
REMARK  Name = 
REMARK  8 active torsions:
REMARK  status: ('A' for Active; 'I' for Inactive)
REMARK    1  A    between atoms: C_1  and  C_2
REMARK    2  A    between atoms: C_2  and  O_3
REMARK    3  A    between atoms: O_3  and  C_4
REMARK    4  A    between atoms: C_9  and  O_10
REMARK    5  A    between atoms: O_10  and  C_11
REMARK    6  A    between atoms: C_16  and  C_17
REMARK    7  A    between atoms: N_18  and  O_19
REMARK    8  A    between atoms: C_23  and  C_24
REMARK                            x       y       z     vdW  Elec       q    Type
REMARK                         _______ _______ _______ _____ _____    ______ ____
ROOT
ATOM      1  C   UNL     1       2.845   4.697  19.300  0.00  0.00    +0.000 A 
ATOM      2  N   UNL     1       1.596   4.158  19.373  0.00  0.00    +0.000 NA
ATOM      3  C   UNL     1       1.363   3.027  18.677  0.00  0.00    +0.000 A 
ATOM      4  C   UNL     1       2.330   2.372  17.941  0.00  0.00    +0.000 A 
ATOM      5  C   UNL     1       3.622   2.891  17.937  0.00  0.00    +0.000 A 
ATOM      6  C   UNL     1       3.913   4.054  18.665  0.00  0.00    +0.000 A 
ENDROOT
BRANCH   6   7
ATOM      7  C   UNL     1       5.330   4.567  18.685  0.00  0.00    +0.000 C 
ATOM      8  N   UNL     1       5.826   4.821  19.869  0.00  0.00    +0.000 NA
ATOM      9  N   UNL     1       6.046   4.786  17.468  0.00  0.00    +0.000 N 
ATOM     10  C   UNL     1       7.046   5.706  17.217  0.00  0.00    +0.000 A 
ATOM     11  N   UNL     1       7.405   5.750  15.954  0.00  0.00    +0.000 NA
ATOM     12  C   UNL     1       6.635   4.813  15.324  0.00  0.00    +0.000 A 
ATOM     13  C   UNL     1       6.750   4.598  13.864  0.00  0.00    +0.000 C 
ATOM     14  C   UNL     1       5.811   4.190  16.236  0.00  0.00    +0.000 A 
BRANCH   8  15
ATOM     15  O   UNL     1       7.178   5.155  19.886  0.00  0.00    +0.000 OA
ATOM     16  H   UNL     1       7.587   4.412  19.404  0.00  0.00    +0.000 HD
ENDBRANCH   8  15
ENDBRANCH   6   7
BRANCH   1  17
ATOM     17  O   UNL     1       3.070   5.905  19.945  0.00  0.00    +0.000 OA
BRANCH  17  23
ATOM     18  C   UNL     1       1.765   8.021  20.004  0.00  0.00    +0.000 A 
ATOM     19  C   UNL     1       1.364   9.161  19.287  0.00  0.00    +0.000 A 
ATOM     20  C   UNL     1       1.683   9.302  17.934  0.00  0.00    +0.000 A 
ATOM     21  C   UNL     1       2.433   8.322  17.295  0.00  0.00    +0.000 A 
ATOM     22  C   UNL     1       2.906   7.226  18.020  0.00  0.00    +0.000 A 
ATOM     23  C   UNL     1       2.604   7.079  19.381  0.00  0.00    +0.000 A 
BRANCH  18  24
ATOM     24  O   UNL     1       1.343   7.762  21.282  0.00  0.00    +0.000 OA
BRANCH  24  26
ATOM     25  C   UNL     1      -0.336   9.002  22.425  0.00  0.00    +0.000 C 
ATOM     26  C   UNL     1       1.149   8.893  22.122  0.00  0.00    +0.000 C 
ENDBRANCH  24  26
ENDBRANCH  18  24
ENDBRANCH  17  23
ENDBRANCH   1  17
TORSDOF 6
ENDMDL
MODEL 3
REMARK VINA RESULT:      -7.4      1.097      2.568
REMARK  Name = 
REMARK  8 active torsions:
REMARK  status: ('A' for Active; 'I' for Inactive)
REMARK    1  A    between atoms: C_1  and  C_2
REMARK    2  A    between atoms: C_2  and  O_3
REMARK    3  A    between atoms: O_3  and  C_4
REMARK    4  A    between atoms: C_9  and  O_10
REMARK    5  A    between atoms: O_10  and  C_11
REMARK    6  A    between atoms: C_16  and  C_17
REMARK    7  A    between atoms: N_18  and  O_19
REMARK    8  A    between atoms: C_23  and  C_24
REMARK                            x       y       z     vdW  Elec       q    Type
REMARK                         _______ _______ _______ _____ _____    ______ ____
ROOT
ATOM      1  C   UNL     1       2.802   4.860  18.218  0.00  0.00    +0.000 A 
ATOM      2  N   UNL     1       1.552   4.318  18.206  0.00  0.00    +0.000 NA
ATOM      3  C   UNL     1       1.455   2.975  18.133  0.00  0.00    +0.000 A 
ATOM      4  C   UNL     1       2.547   2.131  18.115  0.00  0.00    +0.000 A 
ATOM      5  C   UNL     1       3.818   2.693  18.205  0.00  0.00    +0.000 A 
ATOM      6  C   UNL     1       3.964   4.084  18.305  0.00  0.00    +0.000 A 
ENDROOT
BRANCH   6   7
ATOM      7  C   UNL     1       5.348   4.664  18.453  0.00  0.00    +0.000 C 
ATOM      8  N   UNL     1       5.729   4.920  19.677  0.00  0.00    +0.000 NA
ATOM      9  N   UNL     1       6.151   4.939  17.303  0.00  0.00    +0.000 N 
ATOM     10  C   UNL     1       7.123   5.910  17.151  0.00  0.00    +0.000 A 
ATOM     11  N   UNL     1       7.583   5.994  15.923  0.00  0.00    +0.000 NA
ATOM     12  C   UNL     1       6.916   5.034  15.218  0.00  0.00    +0.000 A 
ATOM     13  C   UNL     1       7.163   4.851  13.769  0.00  0.00    +0.000 C 
ATOM     14  C   UNL     1       6.050   4.355  16.047  0.00  0.00    +0.000 A 
BRANCH   8  15
ATOM     15  O   UNL     1       7.058   5.318  19.813  0.00  0.00    +0.000 OA
ATOM     16  H   UNL     1       7.530   4.679  19.248  0.00  0.00    +0.000 HD
ENDBRANCH   8  15
ENDBRANCH   6   7
BRANCH   1  17
ATOM     17  O   UNL     1       2.912   6.242  18.210  0.00  0.00    +0.000 OA
BRANCH  17  23
ATOM     18  C   UNL     1       1.900   8.353  19.049  0.00  0.00    +0.000 A 
ATOM     19  C   UNL     1       1.206   8.974  20.102  0.00  0.00    +0.000 A 
ATOM     20  C   UNL     1       0.949   8.284  21.290  0.00  0.00    +0.000 A 
ATOM     21  C   UNL     1       1.353   6.962  21.423  0.00  0.00    +0.000 A 
ATOM     22  C   UNL     1       1.970   6.313  20.352  0.00  0.00    +0.000 A 
ATOM     23  C   UNL     1       2.223   6.988  19.150  0.00  0.00    +0.000 A 
BRANCH  18  24
ATOM     24  O   UNL     1       2.315   9.033  17.932  0.00  0.00    +0.000 OA
BRANCH  24  26
ATOM     25  C   UNL     1       2.526  11.404  17.930  0.00  0.00    +0.000 C 
ATOM     26  C   UNL     1       1.610  10.230  17.626  0.00  0.00    +0.000 C 
ENDBRANCH  24  26
ENDBRANCH  18  24
ENDBRANCH  17  23
ENDBRANCH   1  17
TORSDOF 6
ENDMDL
MODEL 4
REMARK VINA RESULT:      -7.3      1.822      2.478
REMARK  Name = 
REMARK  8 active torsions:
REMARK  status: ('A' for Active; 'I' for Inactive)
REMARK    1  A    between atoms: C_1  and  C_2
REMARK    2  A    between atoms: C_2  and  O_3
REMARK    3  A    between atoms: O_3  and  C_4
REMARK    4  A    between atoms: C_9  and  O_10
REMARK    5  A    between atoms: O_10  and  C_11
REMARK    6  A    between atoms: C_16  and  C_17
REMARK    7  A    between atoms: N_18  and  O_19
REMARK    8  A    between atoms: C_23  and  C_24
REMARK                            x       y       z     vdW  Elec       q    Type
REMARK                         _______ _______ _______ _____ _____    ______ ____
ROOT
ATOM      1  C   UNL     1       2.531   5.196  19.945  0.00  0.00    +0.000 A 
ATOM      2  N   UNL     1       1.291   4.708  20.226  0.00  0.00    +0.000 NA
ATOM      3  C   UNL     1       0.977   3.488  19.745  0.00  0.00    +0.000 A 
ATOM      4  C   UNL     1       1.857   2.701  19.030  0.00  0.00    +0.000 A 
ATOM      5  C   UNL     1       3.147   3.178  18.816  0.00  0.00    +0.000 A 
ATOM      6  C   UNL     1       3.523   4.433  19.317  0.00  0.00    +0.000 A 
ENDROOT
BRANCH   6   7
ATOM      7  C   UNL     1       4.940   4.906  19.115  0.00  0.00    +0.000 C 
ATOM      8  N   UNL     1       5.759   4.688  20.111  0.00  0.00    +0.000 NA
ATOM      9  N   UNL     1       5.321   5.580  17.914  0.00  0.00    +0.000 N 
ATOM     10  C   UNL     1       6.310   6.530  17.743  0.00  0.00    +0.000 A 
ATOM     11  N   UNL     1       6.319   7.058  16.540  0.00  0.00    +0.000 NA
ATOM     12  C   UNL     1       5.313   6.432  15.860  0.00  0.00    +0.000 A 
ATOM     13  C   UNL     1       5.007   6.795  14.458  0.00  0.00    +0.000 C 
ATOM     14  C   UNL     1       4.702   5.502  16.673  0.00  0.00    +0.000 A 
BRANCH   8  15
ATOM     15  O   UNL     1       7.094   4.996  19.859  0.00  0.00    +0.000 OA
ATOM     16  H   UNL     1       7.035   5.887  19.465  0.00  0.00    +0.000 HD
ENDBRANCH   8  15
ENDBRANCH   6   7
BRANCH   1  17
ATOM     17  O   UNL     1       2.834   6.484  20.364  0.00  0.00    +0.000 OA
BRANCH  17  23
ATOM     18  C   UNL     1       1.292   8.434  20.329  0.00  0.00    +0.000 A 
ATOM     19  C   UNL     1       0.755   9.480  19.559  0.00  0.00    +0.000 A 
ATOM     20  C   UNL     1       1.047   9.584  18.196  0.00  0.00    +0.000 A 
ATOM     21  C   UNL     1       1.901   8.666  17.600  0.00  0.00    +0.000 A 
ATOM     22  C   UNL     1       2.503   7.673  18.374  0.00  0.00    +0.000 A 
ATOM     23  C   UNL     1       2.230   7.564  19.745  0.00  0.00    +0.000 A 
BRANCH  18  24
ATOM     24  O   UNL     1       0.911   8.196  21.624  0.00  0.00    +0.000 OA
BRANCH  24  26
ATOM     25  C   UNL     1      -0.126   9.642  23.205  0.00  0.00    +0.000 C 
ATOM     26  C   UNL     1      -0.351   8.722  22.016  0.00  0.00    +0.000 C 
ENDBRANCH  24  26
ENDBRANCH  18  24
ENDBRANCH  17  23
ENDBRANCH   1  17
TORSDOF 6
ENDMDL
MODEL 5
REMARK VINA RESULT:      -7.1      2.544      6.774
REMARK  Name = 
REMARK  8 active torsions:
REMARK  status: ('A' for Active; 'I' for Inactive)
REMARK    1  A    between atoms: C_1  and  C_2
REMARK    2  A    between atoms: C_2  and  O_3
REMARK    3  A    between atoms: O_3  and  C_4
REMARK    4  A    between atoms: C_9  and  O_10
REMARK    5  A    between atoms: O_10  and  C_11
REMARK    6  A    between atoms: C_16  and  C_17
REMARK    7  A    between atoms: N_18  and  O_19
REMARK    8  A    between atoms: C_23  and  C_24
REMARK                            x       y       z     vdW  Elec       q    Type
REMARK                         _______ _______ _______ _____ _____    ______ ____
ROOT
ATOM      1  C   UNL     1       3.552   5.784  19.113  0.00  0.00    +0.000 A 
ATOM      2  N   UNL     1       3.839   4.492  19.436  0.00  0.00    +0.000 NA
ATOM      3  C   UNL     1       3.046   3.885  20.342  0.00  0.00    +0.000 A 
ATOM      4  C   UNL     1       1.944   4.486  20.915  0.00  0.00    +0.000 A 
ATOM      5  C   UNL     1       1.616   5.779  20.519  0.00  0.00    +0.000 A 
ATOM      6  C   UNL     1       2.401   6.441  19.563  0.00  0.00    +0.000 A 
ENDROOT
BRANCH   6   7
ATOM      7  C   UNL     1       1.995   7.821  19.114  0.00  0.00    +0.000 C 
ATOM      8  N   UNL     1       2.290   8.125  17.876  0.00  0.00    +0.000 NA
ATOM      9  N   UNL     1       1.364   8.729  20.019  0.00  0.00    +0.000 N 
ATOM     10  C   UNL     1       1.416  10.110  20.021  0.00  0.00    +0.000 A 
ATOM     11  N   UNL     1       0.838  10.648  21.072  0.00  0.00    +0.000 NA
ATOM     12  C   UNL     1       0.359   9.598  21.802  0.00  0.00    +0.000 A 
ATOM     13  C   UNL     1      -0.341   9.827  23.086  0.00  0.00    +0.000 C 
ATOM     14  C   UNL     1       0.646   8.410  21.165  0.00  0.00    +0.000 A 
BRANCH   8  15
ATOM     15  O   UNL     1       1.785   9.344  17.429  0.00  0.00    +0.000 OA
ATOM     16  H   UNL     1       2.473   9.642  16.804  0.00  0.00    +0.000 HD
ENDBRANCH   8  15
ENDBRANCH   6   7
BRANCH   1  17
ATOM     17  O   UNL     1       4.410   6.443  18.245  0.00  0.00    +0.000 OA
BRANCH  17  23
ATOM     18  C   UNL     1       6.624   5.448  17.702  0.00  0.00    +0.000 A 
ATOM     19  C   UNL     1       7.367   4.697  16.776  0.00  0.00    +0.000 A 
ATOM     20  C   UNL     1       6.808   4.320  15.552  0.00  0.00    +0.000 A 
ATOM     21  C   UNL     1       5.494   4.661  15.258  0.00  0.00    +0.000 A 
ATOM     22  C   UNL     1       4.722   5.336  16.206  0.00  0.00    +0.000 A 
ATOM     23  C   UNL     1       5.266   5.710  17.442  0.00  0.00    +0.000 A 
BRANCH  18  24
ATOM     24  O   UNL     1       7.175   5.976  18.841  0.00  0.00    +0.000 OA
BRANCH  24  26
ATOM     25  C   UNL     1       7.712   7.976  17.666  0.00  0.00    +0.000 C 
ATOM     26  C   UNL     1       8.211   6.933  18.653  0.00  0.00    +0.000 C 
ENDBRANCH  24  26
ENDBRANCH  18  24
ENDBRANCH  17  23
ENDBRANCH   1  17
TORSDOF 6
ENDMDL
MODEL 6
REMARK VINA RESULT:      -7.0      1.093      2.297
REMARK  Name = 
REMARK  8 active torsions:
REMARK  status: ('A' for Active; 'I' for Inactive)
REMARK    1  A    between atoms: C_1  and  C_2
REMARK    2  A    between atoms: C_2  and  O_3
REMARK    3  A    between atoms: O_3  and  C_4
REMARK    4  A    between atoms: C_9  and  O_10
REMARK    5  A    between atoms: O_10  and  C_11
REMARK    6  A    between atoms: C_16  and  C_17
REMARK    7  A    between atoms: N_18  and  O_19
REMARK    8  A    between atoms: C_23  and  C_24
REMARK                            x       y       z     vdW  Elec       q    Type
REMARK                         _______ _______ _______ _____ _____    ______ ____
ROOT
ATOM      1  C   UNL     1       3.160   4.355  19.140  0.00  0.00    +0.000 A 
ATOM      2  N   UNL     1       1.926   3.847  19.417  0.00  0.00    +0.000 NA
ATOM      3  C   UNL     1       1.582   2.686  18.825  0.00  0.00    +0.000 A 
ATOM      4  C   UNL     1       2.426   1.973  17.998  0.00  0.00    +0.000 A 
ATOM      5  C   UNL     1       3.711   2.462  17.783  0.00  0.00    +0.000 A 
ATOM      6  C   UNL     1       4.118   3.655  18.397  0.00  0.00    +0.000 A 
ENDROOT
BRANCH   6   7
ATOM      7  C   UNL     1       5.531   4.138  18.190  0.00  0.00    +0.000 C 
ATOM      8  N   UNL     1       6.186   4.464  19.274  0.00  0.00    +0.000 NA
ATOM      9  N   UNL     1       6.078   4.257  16.874  0.00  0.00    +0.000 N 
ATOM     10  C   UNL     1       7.045   5.135  16.426  0.00  0.00    +0.000 A 
ATOM     11  N   UNL     1       7.230   5.082  15.125  0.00  0.00    +0.000 NA
ATOM     12  C   UNL     1       6.371   4.121  14.675  0.00  0.00    +0.000 A 
ATOM     13  C   UNL     1       6.283   3.802  13.232  0.00  0.00    +0.000 C 
ATOM     14  C   UNL     1       5.670   3.581  15.731  0.00  0.00    +0.000 A 
BRANCH   8  15
ATOM     15  O   UNL     1       7.532   4.769  19.085  0.00  0.00    +0.000 OA
ATOM     16  H   UNL     1       7.496   5.482  18.419  0.00  0.00    +0.000 HD
ENDBRANCH   8  15
ENDBRANCH   6   7
BRANCH   1  17
ATOM     17  O   UNL     1       3.491   5.589  19.679  0.00  0.00    +0.000 OA
BRANCH  17  23
ATOM     18  C   UNL     1       2.910   7.323  17.993  0.00  0.00    +0.000 A 
ATOM     19  C   UNL     1       2.167   8.485  17.727  0.00  0.00    +0.000 A 
ATOM     20  C   UNL     1       1.439   9.113  18.741  0.00  0.00    +0.000 A 
ATOM     21  C   UNL     1       1.421   8.568  20.019  0.00  0.00    +0.000 A 
ATOM     22  C   UNL     1       2.091   7.369  20.272  0.00  0.00    +0.000 A 
ATOM     23  C   UNL     1       2.814   6.721  19.261  0.00  0.00    +0.000 A 
BRANCH  18  24
ATOM     24  O   UNL     1       3.764   6.763  17.077  0.00  0.00    +0.000 OA
BRANCH  24  26
ATOM     25  C   UNL     1       5.869   7.770  17.542  0.00  0.00    +0.000 C 
ATOM     26  C   UNL     1       4.749   7.627  16.525  0.00  0.00    +0.000 C 
ENDBRANCH  24  26
ENDBRANCH  18  24
ENDBRANCH  17  23
ENDBRANCH   1  17
TORSDOF 6
ENDMDL
MODEL 7
REMARK VINA RESULT:      -6.7      5.555      8.814
REMARK  Name = 
REMARK  8 active torsions:
REMARK  status: ('A' for Active; 'I' for Inactive)
REMARK    1  A    between atoms: C_1  and  C_2
REMARK    2  A    between atoms: C_2  and  O_3
REMARK    3  A    between atoms: O_3  and  C_4
REMARK    4  A    between atoms: C_9  and  O_10
REMARK    5  A    between atoms: O_10  and  C_11
REMARK    6  A    between atoms: C_16  and  C_17
REMARK    7  A    between atoms: N_18  and  O_19
REMARK    8  A    between atoms: C_23  and  C_24
REMARK                            x       y       z     vdW  Elec       q    Type
REMARK                         _______ _______ _______ _____ _____    ______ ____
ROOT
ATOM      1  C   UNL     1      -1.168  12.160  19.635  0.00  0.00    +0.000 A 
ATOM      2  N   UNL     1      -1.143  13.329  18.936  0.00  0.00    +0.000 NA
ATOM      3  C   UNL     1      -0.133  14.185  19.189  0.00  0.00    +0.000 A 
ATOM      4  C   UNL     1       0.889  13.918  20.077  0.00  0.00    +0.000 A 
ATOM      5  C   UNL     1       0.895  12.687  20.728  0.00  0.00    +0.000 A 
ATOM      6  C   UNL     1      -0.125  11.757  20.478  0.00  0.00    +0.000 A 
ENDROOT
BRANCH   6   7
ATOM      7  C   UNL     1      -0.070  10.412  21.157  0.00  0.00    +0.000 C 
ATOM      8  N   UNL     1      -0.719  10.319  22.288  0.00  0.00    +0.000 NA
ATOM      9  N   UNL     1       0.686   9.339  20.592  0.00  0.00    +0.000 N 
ATOM     10  C   UNL     1       1.310   8.294  21.246  0.00  0.00    +0.000 A 
ATOM     11  N   UNL     1       2.042   7.548  20.450  0.00  0.00    +0.000 NA
ATOM     12  C   UNL     1       1.897   8.092  19.206  0.00  0.00    +0.000 A 
ATOM     13  C   UNL     1       2.610   7.518  18.042  0.00  0.00    +0.000 C 
ATOM     14  C   UNL     1       1.050   9.177  19.261  0.00  0.00    +0.000 A 
BRANCH   8  15
ATOM     15  O   UNL     1      -0.781   9.038  22.832  0.00  0.00    +0.000 OA
ATOM     16  H   UNL     1      -0.661   9.207  23.786  0.00  0.00    +0.000 HD
ENDBRANCH   8  15
ENDBRANCH   6   7
BRANCH   1  17
ATOM     17  O   UNL     1      -2.247  11.309  19.442  0.00  0.00    +0.000 OA
BRANCH  17  23
ATOM     18  C   UNL     1      -3.960  11.499  17.650  0.00  0.00    +0.000 A 
ATOM     19  C   UNL     1      -4.301  11.174  16.325  0.00  0.00    +0.000 A 
ATOM     20  C   UNL     1      -3.477  10.342  15.562  0.00  0.00    +0.000 A 
ATOM     21  C   UNL     1      -2.294   9.854  16.103  0.00  0.00    +0.000 A 
ATOM     22  C   UNL     1      -1.908  10.238  17.388  0.00  0.00    +0.000 A 
ATOM     23  C   UNL     1      -2.718  11.082  18.161  0.00  0.00    +0.000 A 
BRANCH  18  24
ATOM     24  O   UNL     1      -4.808  12.176  18.488  0.00  0.00    +0.000 OA
BRANCH  24  26
ATOM     25  C   UNL     1      -7.181  12.014  18.404  0.00  0.00    +0.000 C 
ATOM     26  C   UNL     1      -5.909  11.436  19.002  0.00  0.00    +0.000 C 
ENDBRANCH  24  26
ENDBRANCH  18  24
ENDBRANCH  17  23
ENDBRANCH   1  17
TORSDOF 6
ENDMDL
MODEL 8
REMARK VINA RESULT:      -6.7      2.068      3.202
REMARK  Name = 
REMARK  8 active torsions:
REMARK  status: ('A' for Active; 'I' for Inactive)
REMARK    1  A    between atoms: C_1  and  C_2
REMARK    2  A    between atoms: C_2  and  O_3
REMARK    3  A    between atoms: O_3  and  C_4
REMARK    4  A    between atoms: C_9  and  O_10
REMARK    5  A    between atoms: O_10  and  C_11
REMARK    6  A    between atoms: C_16  and  C_17
REMARK    7  A    between atoms: N_18  and  O_19
REMARK    8  A    between atoms: C_23  and  C_24
REMARK                            x       y       z     vdW  Elec       q    Type
REMARK                         _______ _______ _______ _____ _____    ______ ____
ROOT
ATOM      1  C   UNL     1       2.626   5.801  19.268  0.00  0.00    +0.000 A 
ATOM      2  N   UNL     1       1.687   5.183  20.037  0.00  0.00    +0.000 NA
ATOM      3  C   UNL     1       1.307   3.940  19.679  0.00  0.00    +0.000 A 
ATOM      4  C   UNL     1       1.851   3.255  18.611  0.00  0.00    +0.000 A 
ATOM      5  C   UNL     1       2.864   3.867  17.879  0.00  0.00    +0.000 A 
ATOM      6  C   UNL     1       3.305   5.151  18.231  0.00  0.00    +0.000 A 
ENDROOT
BRANCH   6   7
ATOM      7  C   UNL     1       4.439   5.772  17.454  0.00  0.00    +0.000 C 
ATOM      8  N   UNL     1       4.119   6.289  16.297  0.00  0.00    +0.000 NA
ATOM      9  N   UNL     1       5.774   5.745  17.963  0.00  0.00    +0.000 N 
ATOM     10  C   UNL     1       6.960   5.728  17.254  0.00  0.00    +0.000 A 
ATOM     11  N   UNL     1       8.017   5.564  18.017  0.00  0.00    +0.000 NA
ATOM     12  C   UNL     1       7.537   5.485  19.293  0.00  0.00    +0.000 A 
ATOM     13  C   UNL     1       8.455   5.272  20.434  0.00  0.00    +0.000 C 
ATOM     14  C   UNL     1       6.165   5.619  19.290  0.00  0.00    +0.000 A 
BRANCH   8  15
ATOM     15  O   UNL     1       5.141   6.985  15.655  0.00  0.00    +0.000 OA
ATOM     16  H   UNL     1       4.650   7.633  15.115  0.00  0.00    +0.000 HD
ENDBRANCH   8  15
ENDBRANCH   6   7
BRANCH   1  17
ATOM     17  O   UNL     1       2.963   7.110  19.580  0.00  0.00    +0.000 OA
BRANCH  17  23
ATOM     18  C   UNL     1       1.203   8.725  20.273  0.00  0.00    +0.000 A 
ATOM     19  C   UNL     1       0.325   9.739  19.856  0.00  0.00    +0.000 A 
ATOM     20  C   UNL     1       0.206  10.068  18.503  0.00  0.00    +0.000 A 
ATOM     21  C   UNL     1       0.986   9.410  17.561  0.00  0.00    +0.000 A 
ATOM     22  C   UNL     1       1.919   8.458  17.974  0.00  0.00    +0.000 A 
ATOM     23  C   UNL     1       2.058   8.127  19.330  0.00  0.00    +0.000 A 
BRANCH  18  24
ATOM     24  O   UNL     1       1.239   8.258  21.562  0.00  0.00    +0.000 OA
BRANCH  24  26
ATOM     25  C   UNL     1       0.034   9.428  23.248  0.00  0.00    +0.000 C 
ATOM     26  C   UNL     1       1.386   9.238  22.582  0.00  0.00    +0.000 C 
ENDBRANCH  24  26
ENDBRANCH  18  24
ENDBRANCH  17  23
ENDBRANCH   1  17
TORSDOF 6
ENDMDL
MODEL 9
REMARK VINA RESULT:      -6.7      1.592      3.829
REMARK  Name = 
REMARK  8 active torsions:
REMARK  status: ('A' for Active; 'I' for Inactive)
REMARK    1  A    between atoms: C_1  and  C_2
REMARK    2  A    between atoms: C_2  and  O_3
REMARK    3  A    between atoms: O_3  and  C_4
REMARK    4  A    between atoms: C_9  and  O_10
REMARK    5  A    between atoms: O_10  and  C_11
REMARK    6  A    between atoms: C_16  and  C_17
REMARK    7  A    between atoms: N_18  and  O_19
REMARK    8  A    between atoms: C_23  and  C_24
REMARK                            x       y       z     vdW  Elec       q    Type
REMARK                         _______ _______ _______ _____ _____    ______ ____
ROOT
ATOM      1  C   UNL     1       3.729   5.903  18.886  0.00  0.00    +0.000 A 
ATOM      2  N   UNL     1       2.548   6.549  19.094  0.00  0.00    +0.000 NA
ATOM      3  C   UNL     1       2.315   7.670  18.382  0.00  0.00    +0.000 A 
ATOM      4  C   UNL     1       3.185   8.163  17.430  0.00  0.00    +0.000 A 
ATOM      5  C   UNL     1       4.353   7.452  17.171  0.00  0.00    +0.000 A 
ATOM      6  C   UNL     1       4.625   6.269  17.873  0.00  0.00    +0.000 A 
ENDROOT
BRANCH   6   7
ATOM      7  C   UNL     1       5.872   5.490  17.538  0.00  0.00    +0.000 C 
ATOM      8  N   UNL     1       6.769   5.419  18.487  0.00  0.00    +0.000 NA
ATOM      9  N   UNL     1       6.046   4.912  16.243  0.00  0.00    +0.000 N 
ATOM     10  C   UNL     1       7.226   4.673  15.565  0.00  0.00    +0.000 A 
ATOM     11  N   UNL     1       7.040   4.256  14.333  0.00  0.00    +0.000 NA
ATOM     12  C   UNL     1       5.685   4.191  14.171  0.00  0.00    +0.000 A 
ATOM     13  C   UNL     1       5.097   3.777  12.877  0.00  0.00    +0.000 C 
ATOM     14  C   UNL     1       5.053   4.564  15.338  0.00  0.00    +0.000 A 
BRANCH   8  15
ATOM     15  O   UNL     1       7.849   4.581  18.220  0.00  0.00    +0.000 OA
ATOM     16  H   UNL     1       7.775   3.909  18.923  0.00  0.00    +0.000 HD
ENDBRANCH   8  15
ENDBRANCH   6   7
BRANCH   1  17
ATOM     17  O   UNL     1       4.014   4.797  19.672  0.00  0.00    +0.000 OA
BRANCH  17  23
ATOM     18  C   UNL     1       2.126   3.244  19.215  0.00  0.00    +0.000 A 
ATOM     19  C   UNL     1       1.116   2.443  19.775  0.00  0.00    +0.000 A 
ATOM     20  C   UNL     1       0.883   2.448  21.153  0.00  0.00    +0.000 A 
ATOM     21  C   UNL     1       1.676   3.228  21.985  0.00  0.00    +0.000 A 
ATOM     22  C   UNL     1       2.734   3.964  21.447  0.00  0.00    +0.000 A 
ATOM     23  C   UNL     1       2.987   3.958  20.068  0.00  0.00    +0.000 A 
BRANCH  18  24
ATOM     24  O   UNL     1       2.288   3.395  17.862  0.00  0.00    +0.000 OA
BRANCH  24  26
ATOM     25  C   UNL     1       3.828   1.587  18.021  0.00  0.00    +0.000 C 
ATOM     26  C   UNL     1       2.775   2.260  17.156  0.00  0.00    +0.000 C 
ENDBRANCH  24  26
ENDBRANCH  18  24
ENDBRANCH  17  23
ENDBRANCH   1  17
TORSDOF 6
ENDMDL
