MODEL 1
REMARK VINA RESULT:      -8.5      0.000      0.000
REMARK  Name = 
REMARK  9 active torsions:
REMARK  status: ('A' for Active; 'I' for Inactive)
REMARK    1  A    between atoms: C_1  and  C_2
REMARK    2  A    between atoms: C_5  and  S_6
REMARK    3  A    between atoms: S_6  and  C_9
REMARK    4  A    between atoms: C_10  and  N_11
REMARK    5  A    between atoms: N_12  and  C_13
REMARK    6  A    between atoms: C_13  and  C_14
REMARK    7  A    between atoms: C_14  and  N_15
REMARK    8  A    between atoms: N_15  and  C_16
REMARK    9  A    between atoms: N_15  and  C_17
REMARK                            x       y       z     vdW  Elec       q    Type
REMARK                         _______ _______ _______ _____ _____    ______ ____
ROOT
ATOM      1  C   UNL     1       5.911   5.446  17.549  0.00  0.00    +0.000 A 
ATOM      2  C   UNL     1       6.167   4.910  18.798  0.00  0.00    +0.000 A 
ATOM      3  N   UNL     1       4.928   4.407  19.122  0.00  0.00    +0.000 N 
ATOM      4  C   UNL     1       4.184   5.521  18.986  0.00  0.00    +0.000 A 
ATOM      5  N   UNL     1       3.109   5.707  19.759  0.00  0.00    +0.000 NA
ATOM      6  C   UNL     1       2.552   6.859  19.538  0.00  0.00    +0.000 A 
ATOM      7  C   UNL     1       1.570   7.145  20.480  0.00  0.00    +0.000 A 
ATOM      8  C   UNL     1       0.887   8.336  20.450  0.00  0.00    +0.000 A 
ATOM      9  C   UNL     1       1.173   9.220  19.419  0.00  0.00    +0.000 A 
ATOM     10  C   UNL     1       2.151   8.896  18.439  0.00  0.00    +0.000 A 
ATOM     11  C   UNL     1       2.919   7.702  18.447  0.00  0.00    +0.000 A 
ATOM     12  N   UNL     1       3.972   7.369  17.540  0.00  0.00    +0.000 NA
ATOM     13  C   UNL     1       4.688   6.243  17.892  0.00  0.00    +0.000 A 
ENDROOT
BRANCH   1  14
ATOM     14  S   UNL     1       7.174   5.174  16.386  0.00  0.00    +0.000 S 
ATOM     15  O   UNL     1       8.015   4.158  16.987  0.00  0.00    +0.000 OA
ATOM     16  O   UNL     1       7.655   6.501  16.079  0.00  0.00    +0.000 OA
BRANCH  14  21
ATOM     17  C   UNL     1       4.769   3.069  10.957  0.00  0.00    +0.000 C 
ATOM     18  C   UNL     1       5.387   3.506  12.264  0.00  0.00    +0.000 A 
ATOM     19  C   UNL     1       6.698   3.995  12.328  0.00  0.00    +0.000 A 
ATOM     20  C   UNL     1       7.265   4.440  13.553  0.00  0.00    +0.000 A 
ATOM     21  C   UNL     1       6.527   4.458  14.752  0.00  0.00    +0.000 A 
ATOM     22  C   UNL     1       5.233   3.908  14.694  0.00  0.00    +0.000 A 
ATOM     23  C   UNL     1       4.680   3.436  13.471  0.00  0.00    +0.000 A 
ENDBRANCH  14  21
ENDBRANCH   1  14
BRANCH   2  24
ATOM     24  N   UNL     1       6.916   5.616  19.719  0.00  0.00    +0.000 N 
ATOM     25  H   UNL     1       6.569   6.562  19.918  0.00  0.00    +0.000 HD
ATOM     26  H   UNL     1       6.900   5.183  20.653  0.00  0.00    +0.000 HD
ENDBRANCH   2  24
BRANCH   3  27
ATOM     27  C   UNL     1       4.225   3.195  18.714  0.00  0.00    +0.000 C 
BRANCH  27  28
ATOM     28  C   UNL     1       3.684   2.296  19.806  0.00  0.00    +0.000 C 
BRANCH  28  29
ATOM     29  N   UNL     1       2.235   2.092  19.724  0.00  0.00    +0.000 NA
ATOM     30  C   UNL     1       1.518   2.742  20.821  0.00  0.00    +0.000 C 
ATOM     31  C   UNL     1       1.752   2.553  18.429  0.00  0.00    +0.000 C 
ENDBRANCH  28  29
ENDBRANCH  27  28
ENDBRANCH   3  27
TORSDOF 6
ENDMDL
MODEL 2
REMARK VINA RESULT:      -7.5      0.634      1.290
REMARK  Name = 
REMARK  9 active torsions:
REMARK  status: ('A' for Active; 'I' for Inactive)
REMARK    1  A    between atoms: C_1  and  C_2
REMARK    2  A    between atoms: C_5  and  S_6
REMARK    3  A    between atoms: S_6  and  C_9
REMARK    4  A    between atoms: C_10  and  N_11
REMARK    5  A    between atoms: N_12  and  C_13
REMARK    6  A    between atoms: C_13  and  C_14
REMARK    7  A    between atoms: C_14  and  N_15
REMARK    8  A    between atoms: N_15  and  C_16
REMARK    9  A    between atoms: N_15  and  C_17
REMARK                            x       y       z     vdW  Elec       q    Type
REMARK                         _______ _______ _______ _____ _____    ______ ____
ROOT
ATOM      1  C   UNL     1       5.837   5.475  17.404  0.00  0.00    +0.000 A 
ATOM      2  C   UNL     1       6.027   4.817  18.606  0.00  0.00    +0.000 A 
ATOM      3  N   UNL     1       4.757   4.347  18.847  0.00  0.00    +0.000 N 
ATOM      4  C   UNL     1       4.068   5.502  18.790  0.00  0.00    +0.000 A 
ATOM      5  N   UNL     1       2.977   5.668  19.545  0.00  0.00    +0.000 NA
ATOM      6  C   UNL     1       2.479   6.860  19.413  0.00  0.00    +0.000 A 
ATOM      7  C   UNL     1       1.479   7.107  20.348  0.00  0.00    +0.000 A 
ATOM      8  C   UNL     1       0.851   8.326  20.406  0.00  0.00    +0.000 A 
ATOM      9  C   UNL     1       1.211   9.285  19.468  0.00  0.00    +0.000 A 
ATOM     10  C   UNL     1       2.205   9.003  18.492  0.00  0.00    +0.000 A 
ATOM     11  C   UNL     1       2.919   7.779  18.414  0.00  0.00    +0.000 A 
ATOM     12  N   UNL     1       3.986   7.480  17.512  0.00  0.00    +0.000 NA
ATOM     13  C   UNL     1       4.640   6.294  17.781  0.00  0.00    +0.000 A 
ENDROOT
BRANCH   1  14
ATOM     14  S   UNL     1       7.124   5.248  16.258  0.00  0.00    +0.000 S 
ATOM     15  O   UNL     1       7.976   4.240  16.857  0.00  0.00    +0.000 OA
ATOM     16  O   UNL     1       7.582   6.590  15.981  0.00  0.00    +0.000 OA
BRANCH  14  21
ATOM     17  C   UNL     1       5.372   2.642  10.797  0.00  0.00    +0.000 C 
ATOM     18  C   UNL     1       5.749   3.331  12.087  0.00  0.00    +0.000 A 
ATOM     19  C   UNL     1       4.861   3.397  13.169  0.00  0.00    +0.000 A 
ATOM     20  C   UNL     1       5.232   4.014  14.395  0.00  0.00    +0.000 A 
ATOM     21  C   UNL     1       6.520   4.545  14.602  0.00  0.00    +0.000 A 
ATOM     22  C   UNL     1       7.384   4.531  13.493  0.00  0.00    +0.000 A 
ATOM     23  C   UNL     1       6.999   3.940  12.257  0.00  0.00    +0.000 A 
ENDBRANCH  14  21
ENDBRANCH   1  14
BRANCH   2  24
ATOM     24  N   UNL     1       6.775   5.403  19.609  0.00  0.00    +0.000 N 
ATOM     25  H   UNL     1       7.791   5.353  19.469  0.00  0.00    +0.000 HD
ATOM     26  H   UNL     1       6.619   6.419  19.673  0.00  0.00    +0.000 HD
ENDBRANCH   2  24
BRANCH   3  27
ATOM     27  C   UNL     1       4.015   3.210  18.310  0.00  0.00    +0.000 C 
BRANCH  27  28
ATOM     28  C   UNL     1       3.425   2.227  19.299  0.00  0.00    +0.000 C 
BRANCH  28  29
ATOM     29  N   UNL     1       3.845   2.472  20.682  0.00  0.00    +0.000 NA
ATOM     30  C   UNL     1       2.713   2.526  21.607  0.00  0.00    +0.000 C 
ATOM     31  C   UNL     1       4.809   1.457  21.084  0.00  0.00    +0.000 C 
ENDBRANCH  28  29
ENDBRANCH  27  28
ENDBRANCH   3  27
TORSDOF 6
ENDMDL
MODEL 3
REMARK VINA RESULT:      -7.1      2.836      7.491
REMARK  Name = 
REMARK  9 active torsions:
REMARK  status: ('A' for Active; 'I' for Inactive)
REMARK    1  A    between atoms: C_1  and  C_2
REMARK    2  A    between atoms: C_5  and  S_6
REMARK    3  A    between atoms: S_6  and  C_9
REMARK    4  A    between atoms: C_10  and  N_11
REMARK    5  A    between atoms: N_12  and  C_13
REMARK    6  A    between atoms: C_13  and  C_14
REMARK    7  A    between atoms: C_14  and  N_15
REMARK    8  A    between atoms: N_15  and  C_16
REMARK    9  A    between atoms: N_15  and  C_17
REMARK                            x       y       z     vdW  Elec       q    Type
REMARK                         _______ _______ _______ _____ _____    ______ ____
ROOT
ATOM      1  C   UNL     1       4.763   5.341  17.781  0.00  0.00    +0.000 A 
ATOM      2  C   UNL     1       6.049   5.286  18.288  0.00  0.00    +0.000 A 
ATOM      3  N   UNL     1       6.705   6.131  17.424  0.00  0.00    +0.000 N 
ATOM      4  C   UNL     1       6.398   5.546  16.251  0.00  0.00    +0.000 A 
ATOM      5  N   UNL     1       7.262   5.594  15.232  0.00  0.00    +0.000 NA
ATOM      6  C   UNL     1       6.832   4.924  14.205  0.00  0.00    +0.000 A 
ATOM      7  C   UNL     1       7.813   4.794  13.228  0.00  0.00    +0.000 A 
ATOM      8  C   UNL     1       7.575   4.083  12.078  0.00  0.00    +0.000 A 
ATOM      9  C   UNL     1       6.308   3.544  11.901  0.00  0.00    +0.000 A 
ATOM     10  C   UNL     1       5.302   3.722  12.890  0.00  0.00    +0.000 A 
ATOM     11  C   UNL     1       5.506   4.406  14.117  0.00  0.00    +0.000 A 
ATOM     12  N   UNL     1       4.559   4.534  15.179  0.00  0.00    +0.000 NA
ATOM     13  C   UNL     1       5.078   5.073  16.340  0.00  0.00    +0.000 A 
ENDROOT
BRANCH   1  14
ATOM     14  S   UNL     1       3.522   5.413  18.995  0.00  0.00    +0.000 S 
ATOM     15  O   UNL     1       4.229   5.281  20.253  0.00  0.00    +0.000 OA
ATOM     16  O   UNL     1       2.543   4.448  18.547  0.00  0.00    +0.000 OA
BRANCH  14  21
ATOM     17  C   UNL     1       0.322  10.838  18.879  0.00  0.00    +0.000 C 
ATOM     18  C   UNL     1       1.147   9.574  18.948  0.00  0.00    +0.000 A 
ATOM     19  C   UNL     1       1.192   8.792  20.109  0.00  0.00    +0.000 A 
ATOM     20  C   UNL     1       1.939   7.583  20.160  0.00  0.00    +0.000 A 
ATOM     21  C   UNL     1       2.630   7.087  19.037  0.00  0.00    +0.000 A 
ATOM     22  C   UNL     1       2.631   7.908  17.895  0.00  0.00    +0.000 A 
ATOM     23  C   UNL     1       1.906   9.132  17.858  0.00  0.00    +0.000 A 
ENDBRANCH  14  21
ENDBRANCH   1  14
BRANCH   2  24
ATOM     24  N   UNL     1       6.599   4.074  18.660  0.00  0.00    +0.000 N 
ATOM     25  H   UNL     1       7.531   3.890  18.271  0.00  0.00    +0.000 HD
ATOM     26  H   UNL     1       6.776   4.019  19.673  0.00  0.00    +0.000 HD
ENDBRANCH   2  24
BRANCH   3  27
ATOM     27  C   UNL     1       6.771   7.587  17.338  0.00  0.00    +0.000 C 
BRANCH  27  28
ATOM     28  C   UNL     1       8.117   8.243  17.563  0.00  0.00    +0.000 C 
BRANCH  28  29
ATOM     29  N   UNL     1       8.032   9.499  18.313  0.00  0.00    +0.000 NA
ATOM     30  C   UNL     1       9.196   9.716  19.172  0.00  0.00    +0.000 C 
ATOM     31  C   UNL     1       7.846  10.607  17.385  0.00  0.00    +0.000 C 
ENDBRANCH  28  29
ENDBRANCH  27  28
ENDBRANCH   3  27
TORSDOF 6
ENDMDL
MODEL 4
REMARK VINA RESULT:      -7.1      5.707      8.713
REMARK  Name = 
REMARK  9 active torsions:
REMARK  status: ('A' for Active; 'I' for Inactive)
REMARK    1  A    between atoms: C_1  and  C_2
REMARK    2  A    between atoms: C_5  and  S_6
REMARK    3  A    between atoms: S_6  and  C_9
REMARK    4  A    between atoms: C_10  and  N_11
REMARK    5  A    between atoms: N_12  and  C_13
REMARK    6  A    between atoms: C_13  and  C_14
REMARK    7  A    between atoms: C_14  and  N_15
REMARK    8  A    between atoms: N_15  and  C_16
REMARK    9  A    between atoms: N_15  and  C_17
REMARK                            x       y       z     vdW  Elec       q    Type
REMARK                         _______ _______ _______ _____ _____    ______ ____
ROOT
ATOM      1  C   UNL     1       0.389  10.657  20.826  0.00  0.00    +0.000 A 
ATOM      2  C   UNL     1      -0.969  10.922  20.795  0.00  0.00    +0.000 A 
ATOM      3  N   UNL     1      -1.103  11.437  19.526  0.00  0.00    +0.000 N 
ATOM      4  C   UNL     1      -0.204  12.436  19.586  0.00  0.00    +0.000 A 
ATOM      5  N   UNL     1      -0.404  13.560  18.890  0.00  0.00    +0.000 NA
ATOM      6  C   UNL     1       0.527  14.438  19.116  0.00  0.00    +0.000 A 
ATOM      7  C   UNL     1       0.212  15.675  18.564  0.00  0.00    +0.000 A 
ATOM      8  C   UNL     1       1.046  16.754  18.726  0.00  0.00    +0.000 A 
ATOM      9  C   UNL     1       2.236  16.554  19.413  0.00  0.00    +0.000 A 
ATOM     10  C   UNL     1       2.563  15.273  19.935  0.00  0.00    +0.000 A 
ATOM     11  C   UNL     1       1.719  14.136  19.838  0.00  0.00    +0.000 A 
ATOM     12  N   UNL     1       1.960  12.854  20.420  0.00  0.00    +0.000 NA
ATOM     13  C   UNL     1       0.889  11.986  20.346  0.00  0.00    +0.000 A 
ENDROOT
BRANCH   1  14
ATOM     14  S   UNL     1       0.802   9.154  21.594  0.00  0.00    +0.000 S 
ATOM     15  O   UNL     1      -0.466   8.594  22.015  0.00  0.00    +0.000 OA
ATOM     16  O   UNL     1       1.842   9.517  22.530  0.00  0.00    +0.000 OA
BRANCH  14  21
ATOM     17  C   UNL     1       3.071   4.833  17.610  0.00  0.00    +0.000 C 
ATOM     18  C   UNL     1       2.602   5.895  18.577  0.00  0.00    +0.000 A 
ATOM     19  C   UNL     1       2.496   7.238  18.195  0.00  0.00    +0.000 A 
ATOM     20  C   UNL     1       2.018   8.229  19.096  0.00  0.00    +0.000 A 
ATOM     21  C   UNL     1       1.584   7.907  20.397  0.00  0.00    +0.000 A 
ATOM     22  C   UNL     1       1.752   6.568  20.794  0.00  0.00    +0.000 A 
ATOM     23  C   UNL     1       2.259   5.585  19.899  0.00  0.00    +0.000 A 
ENDBRANCH  14  21
ENDBRANCH   1  14
BRANCH   2  24
ATOM     24  N   UNL     1      -1.586  11.517  21.878  0.00  0.00    +0.000 N 
ATOM     25  H   UNL     1      -0.990  12.162  22.409  0.00  0.00    +0.000 HD
ATOM     26  H   UNL     1      -2.365  12.130  21.597  0.00  0.00    +0.000 HD
ENDBRANCH   2  24
BRANCH   3  27
ATOM     27  C   UNL     1      -1.168  10.802  18.213  0.00  0.00    +0.000 C 
BRANCH  27  28
ATOM     28  C   UNL     1      -2.527  10.355  17.717  0.00  0.00    +0.000 C 
BRANCH  28  29
ATOM     29  N   UNL     1      -3.079  11.225  16.675  0.00  0.00    +0.000 NA
ATOM     30  C   UNL     1      -2.920  10.661  15.334  0.00  0.00    +0.000 C 
ATOM     31  C   UNL     1      -4.479  11.505  16.967  0.00  0.00    +0.000 C 
ENDBRANCH  28  29
ENDBRANCH  27  28
ENDBRANCH   3  27
TORSDOF 6
ENDMDL
MODEL 5
REMARK VINA RESULT:      -7.0      5.766      8.752
REMARK  Name = 
REMARK  9 active torsions:
REMARK  status: ('A' for Active; 'I' for Inactive)
REMARK    1  A    between atoms: C_1  and  C_2
REMARK    2  A    between atoms: C_5  and  S_6
REMARK    3  A    between atoms: S_6  and  C_9
REMARK    4  A    between atoms: C_10  and  N_11
REMARK    5  A    between atoms: N_12  and  C_13
REMARK    6  A    between atoms: C_13  and  C_14
REMARK    7  A    between atoms: C_14  and  N_15
REMARK    8  A    between atoms: N_15  and  C_16
REMARK    9  A    between atoms: N_15  and  C_17
REMARK                            x       y       z     vdW  Elec       q    Type
REMARK                         _______ _______ _______ _____ _____    ______ ____
ROOT
ATOM      1  C   UNL     1       0.327  10.882  20.684  0.00  0.00    +0.000 A 
ATOM      2  C   UNL     1      -1.013  11.220  20.741  0.00  0.00    +0.000 A 
ATOM      3  N   UNL     1      -1.186  11.800  19.507  0.00  0.00    +0.000 N 
ATOM      4  C   UNL     1      -0.231  12.747  19.560  0.00  0.00    +0.000 A 
ATOM      5  N   UNL     1      -0.406  13.911  18.926  0.00  0.00    +0.000 NA
ATOM      6  C   UNL     1       0.582  14.727  19.138  0.00  0.00    +0.000 A 
ATOM      7  C   UNL     1       0.307  16.004  18.661  0.00  0.00    +0.000 A 
ATOM      8  C   UNL     1       1.207  17.028  18.823  0.00  0.00    +0.000 A 
ATOM      9  C   UNL     1       2.419  16.734  19.433  0.00  0.00    +0.000 A 
ATOM     10  C   UNL     1       2.703  15.414  19.878  0.00  0.00    +0.000 A 
ATOM     11  C   UNL     1       1.793  14.328  19.778  0.00  0.00    +0.000 A 
ATOM     12  N   UNL     1       1.994  13.009  20.289  0.00  0.00    +0.000 NA
ATOM     13  C   UNL     1       0.874  12.204  20.236  0.00  0.00    +0.000 A 
ENDROOT
BRANCH   1  14
ATOM     14  S   UNL     1       0.698   9.325  21.360  0.00  0.00    +0.000 S 
ATOM     15  O   UNL     1      -0.593   8.718  21.618  0.00  0.00    +0.000 OA
ATOM     16  O   UNL     1       1.644   9.620  22.413  0.00  0.00    +0.000 OA
BRANCH  14  21
ATOM     17  C   UNL     1       4.002   5.791  17.325  0.00  0.00    +0.000 C 
ATOM     18  C   UNL     1       3.145   6.595  18.274  0.00  0.00    +0.000 A 
ATOM     19  C   UNL     1       2.778   6.097  19.531  0.00  0.00    +0.000 A 
ATOM     20  C   UNL     1       2.003   6.871  20.437  0.00  0.00    +0.000 A 
ATOM     21  C   UNL     1       1.605   8.190  20.140  0.00  0.00    +0.000 A 
ATOM     22  C   UNL     1       1.924   8.660  18.854  0.00  0.00    +0.000 A 
ATOM     23  C   UNL     1       2.675   7.871  17.938  0.00  0.00    +0.000 A 
ENDBRANCH  14  21
ENDBRANCH   1  14
BRANCH   2  24
ATOM     24  N   UNL     1      -1.538  11.795  21.883  0.00  0.00    +0.000 N 
ATOM     25  H   UNL     1      -1.241  11.351  22.760  0.00  0.00    +0.000 HD
ATOM     26  H   UNL     1      -1.218  12.765  22.016  0.00  0.00    +0.000 HD
ENDBRANCH   2  24
BRANCH   3  27
ATOM     27  C   UNL     1      -1.357  11.232  18.172  0.00  0.00    +0.000 C 
BRANCH  27  28
ATOM     28  C   UNL     1      -2.359  10.108  18.011  0.00  0.00    +0.000 C 
BRANCH  28  29
ATOM     29  N   UNL     1      -3.385  10.386  17.002  0.00  0.00    +0.000 NA
ATOM     30  C   UNL     1      -4.363  11.374  17.459  0.00  0.00    +0.000 C 
ATOM     31  C   UNL     1      -2.746  10.809  15.763  0.00  0.00    +0.000 C 
ENDBRANCH  28  29
ENDBRANCH  27  28
ENDBRANCH   3  27
TORSDOF 6
ENDMDL
MODEL 6
REMARK VINA RESULT:      -6.7      6.047     10.656
REMARK  Name = 
REMARK  9 active torsions:
REMARK  status: ('A' for Active; 'I' for Inactive)
REMARK    1  A    between atoms: C_1  and  C_2
REMARK    2  A    between atoms: C_5  and  S_6
REMARK    3  A    between atoms: S_6  and  C_9
REMARK    4  A    between atoms: C_10  and  N_11
REMARK    5  A    between atoms: N_12  and  C_13
REMARK    6  A    between atoms: C_13  and  C_14
REMARK    7  A    between atoms: C_14  and  N_15
REMARK    8  A    between atoms: N_15  and  C_16
REMARK    9  A    between atoms: N_15  and  C_17
REMARK                            x       y       z     vdW  Elec       q    Type
REMARK                         _______ _______ _______ _____ _____    ______ ____
ROOT
ATOM      1  C   UNL     1       0.004  11.004  21.001  0.00  0.00    +0.000 A 
ATOM      2  C   UNL     1       0.384  11.801  19.936  0.00  0.00    +0.000 A 
ATOM      3  N   UNL     1       0.007  11.012  18.875  0.00  0.00    +0.000 N 
ATOM      4  C   UNL     1       0.682   9.886  19.172  0.00  0.00    +0.000 A 
ATOM      5  N   UNL     1       1.139   9.101  18.191  0.00  0.00    +0.000 NA
ATOM      6  C   UNL     1       1.820   8.098  18.657  0.00  0.00    +0.000 A 
ATOM      7  C   UNL     1       2.471   7.402  17.644  0.00  0.00    +0.000 A 
ATOM      8  C   UNL     1       3.280   6.331  17.928  0.00  0.00    +0.000 A 
ATOM      9  C   UNL     1       3.384   5.933  19.255  0.00  0.00    +0.000 A 
ATOM     10  C   UNL     1       2.679   6.628  20.275  0.00  0.00    +0.000 A 
ATOM     11  C   UNL     1       1.866   7.769  20.044  0.00  0.00    +0.000 A 
ATOM     12  N   UNL     1       1.211   8.554  21.042  0.00  0.00    +0.000 NA
ATOM     13  C   UNL     1       0.653   9.724  20.567  0.00  0.00    +0.000 A 
ENDROOT
BRANCH   1  14
ATOM     14  S   UNL     1      -0.730  11.873  22.314  0.00  0.00    +0.000 S 
ATOM     15  O   UNL     1       0.033  13.102  22.415  0.00  0.00    +0.000 OA
ATOM     16  O   UNL     1      -0.788  10.903  23.384  0.00  0.00    +0.000 OA
BRANCH  14  21
ATOM     17  C   UNL     1      -6.637  13.827  21.327  0.00  0.00    +0.000 C 
ATOM     18  C   UNL     1      -5.242  13.287  21.533  0.00  0.00    +0.000 A 
ATOM     19  C   UNL     1      -4.339  13.162  20.470  0.00  0.00    +0.000 A 
ATOM     20  C   UNL     1      -3.014  12.689  20.674  0.00  0.00    +0.000 A 
ATOM     21  C   UNL     1      -2.526  12.369  21.956  0.00  0.00    +0.000 A 
ATOM     22  C   UNL     1      -3.456  12.438  23.009  0.00  0.00    +0.000 A 
ATOM     23  C   UNL     1      -4.790  12.883  22.796  0.00  0.00    +0.000 A 
ENDBRANCH  14  21
ENDBRANCH   1  14
BRANCH   2  24
ATOM     24  N   UNL     1       1.606  12.445  19.951  0.00  0.00    +0.000 N 
ATOM     25  H   UNL     1       2.081  12.441  20.861  0.00  0.00    +0.000 HD
ATOM     26  H   UNL     1       2.300  11.983  19.346  0.00  0.00    +0.000 HD
ENDBRANCH   2  24
BRANCH   3  27
ATOM     27  C   UNL     1      -1.291  10.756  18.257  0.00  0.00    +0.000 C 
BRANCH  27  28
ATOM     28  C   UNL     1      -1.827  11.796  17.295  0.00  0.00    +0.000 C 
BRANCH  28  29
ATOM     29  N   UNL     1      -2.904  11.292  16.438  0.00  0.00    +0.000 NA
ATOM     30  C   UNL     1      -2.671   9.915  16.001  0.00  0.00    +0.000 C 
ATOM     31  C   UNL     1      -4.178  11.417  17.134  0.00  0.00    +0.000 C 
ENDBRANCH  28  29
ENDBRANCH  27  28
ENDBRANCH   3  27
TORSDOF 6
ENDMDL
MODEL 7
REMARK VINA RESULT:      -6.6      2.041      2.864
REMARK  Name = 
REMARK  9 active torsions:
REMARK  status: ('A' for Active; 'I' for Inactive)
REMARK    1  A    between atoms: C_1  and  C_2
REMARK    2  A    between atoms: C_5  and  S_6
REMARK    3  A    between atoms: S_6  and  C_9
REMARK    4  A    between atoms: C_10  and  N_11
REMARK    5  A    between atoms: N_12  and  C_13
REMARK    6  A    between atoms: C_13  and  C_14
REMARK    7  A    between atoms: C_14  and  N_15
REMARK    8  A    between atoms: N_15  and  C_16
REMARK    9  A    between atoms: N_15  and  C_17
REMARK                            x       y       z     vdW  Elec       q    Type
REMARK                         _______ _______ _______ _____ _____    ______ ____
ROOT
ATOM      1  C   UNL     1       3.213   5.037  18.243  0.00  0.00    +0.000 A 
ATOM      2  C   UNL     1       3.779   5.010  19.505  0.00  0.00    +0.000 A 
ATOM      3  N   UNL     1       2.699   5.362  20.280  0.00  0.00    +0.000 N 
ATOM      4  C   UNL     1       2.365   6.528  19.697  0.00  0.00    +0.000 A 
ATOM      5  N   UNL     1       1.832   7.513  20.426  0.00  0.00    +0.000 NA
ATOM      6  C   UNL     1       1.634   8.583  19.716  0.00  0.00    +0.000 A 
ATOM      7  C   UNL     1       1.281   9.669  20.509  0.00  0.00    +0.000 A 
ATOM      8  C   UNL     1       1.069  10.908  19.958  0.00  0.00    +0.000 A 
ATOM      9  C   UNL     1       1.166  11.028  18.578  0.00  0.00    +0.000 A 
ATOM     10  C   UNL     1       1.486   9.898  17.775  0.00  0.00    +0.000 A 
ATOM     11  C   UNL     1       1.761   8.606  18.295  0.00  0.00    +0.000 A 
ATOM     12  N   UNL     1       2.174   7.464  17.543  0.00  0.00    +0.000 NA
ATOM     13  C   UNL     1       2.570   6.389  18.314  0.00  0.00    +0.000 A 
ENDROOT
BRANCH   1  14
ATOM     14  S   UNL     1       3.716   3.733  17.210  0.00  0.00    +0.000 S 
ATOM     15  O   UNL     1       2.555   3.442  16.392  0.00  0.00    +0.000 OA
ATOM     16  O   UNL     1       4.288   2.769  18.122  0.00  0.00    +0.000 OA
BRANCH  14  21
ATOM     17  C   UNL     1       8.094   5.529  13.051  0.00  0.00    +0.000 C 
ATOM     18  C   UNL     1       7.100   5.055  14.085  0.00  0.00    +0.000 A 
ATOM     19  C   UNL     1       7.066   5.603  15.374  0.00  0.00    +0.000 A 
ATOM     20  C   UNL     1       6.105   5.182  16.333  0.00  0.00    +0.000 A 
ATOM     21  C   UNL     1       5.113   4.230  16.026  0.00  0.00    +0.000 A 
ATOM     22  C   UNL     1       5.192   3.639  14.752  0.00  0.00    +0.000 A 
ATOM     23  C   UNL     1       6.174   4.043  13.805  0.00  0.00    +0.000 A 
ENDBRANCH  14  21
ENDBRANCH   1  14
BRANCH   2  24
ATOM     24  N   UNL     1       5.026   5.564  19.720  0.00  0.00    +0.000 N 
ATOM     25  H   UNL     1       5.779   4.881  19.864  0.00  0.00    +0.000 HD
ATOM     26  H   UNL     1       5.368   6.089  18.903  0.00  0.00    +0.000 HD
ENDBRANCH   2  24
BRANCH   3  27
ATOM     27  C   UNL     1       1.543   4.605  20.752  0.00  0.00    +0.000 C 
BRANCH  27  28
ATOM     28  C   UNL     1       1.788   3.511  21.770  0.00  0.00    +0.000 C 
BRANCH  28  29
ATOM     29  N   UNL     1       2.029   2.198  21.163  0.00  0.00    +0.000 NA
ATOM     30  C   UNL     1       1.470   2.096  19.815  0.00  0.00    +0.000 C 
ATOM     31  C   UNL     1       3.459   1.918  21.165  0.00  0.00    +0.000 C 
ENDBRANCH  28  29
ENDBRANCH  27  28
ENDBRANCH   3  27
TORSDOF 6
ENDMDL
MODEL 8
REMARK VINA RESULT:      -6.6      1.990      2.814
REMARK  Name = 
REMARK  9 active torsions:
REMARK  status: ('A' for Active; 'I' for Inactive)
REMARK    1  A    between atoms: C_1  and  C_2
REMARK    2  A    between atoms: C_5  and  S_6
REMARK    3  A    between atoms: S_6  and  C_9
REMARK    4  A    between atoms: C_10  and  N_11
REMARK    5  A    between atoms: N_12  and  C_13
REMARK    6  A    between atoms: C_13  and  C_14
REMARK    7  A    between atoms: C_14  and  N_15
REMARK    8  A    between atoms: N_15  and  C_16
REMARK    9  A    between atoms: N_15  and  C_17
REMARK                            x       y       z     vdW  Elec       q    Type
REMARK                         _______ _______ _______ _____ _____    ______ ____
ROOT
ATOM      1  C   UNL     1       3.250   5.050  18.293  0.00  0.00    +0.000 A 
ATOM      2  C   UNL     1       3.814   5.036  19.556  0.00  0.00    +0.000 A 
ATOM      3  N   UNL     1       2.728   5.377  20.328  0.00  0.00    +0.000 N 
ATOM      4  C   UNL     1       2.381   6.536  19.738  0.00  0.00    +0.000 A 
ATOM      5  N   UNL     1       1.833   7.518  20.461  0.00  0.00    +0.000 NA
ATOM      6  C   UNL     1       1.623   8.582  19.746  0.00  0.00    +0.000 A 
ATOM      7  C   UNL     1       1.255   9.667  20.534  0.00  0.00    +0.000 A 
ATOM      8  C   UNL     1       1.027  10.901  19.976  0.00  0.00    +0.000 A 
ATOM      9  C   UNL     1       1.125  11.015  18.596  0.00  0.00    +0.000 A 
ATOM     10  C   UNL     1       1.462   9.886  17.799  0.00  0.00    +0.000 A 
ATOM     11  C   UNL     1       1.753   8.600  18.326  0.00  0.00    +0.000 A 
ATOM     12  N   UNL     1       2.181   7.460  17.579  0.00  0.00    +0.000 NA
ATOM     13  C   UNL     1       2.590   6.394  18.356  0.00  0.00    +0.000 A 
ENDROOT
BRANCH   1  14
ATOM     14  S   UNL     1       3.772   3.748  17.267  0.00  0.00    +0.000 S 
ATOM     15  O   UNL     1       2.576   3.332  16.562  0.00  0.00    +0.000 OA
ATOM     16  O   UNL     1       4.494   2.871  18.160  0.00  0.00    +0.000 OA
BRANCH  14  21
ATOM     17  C   UNL     1       8.191   5.442  13.108  0.00  0.00    +0.000 C 
ATOM     18  C   UNL     1       7.080   5.083  14.066  0.00  0.00    +0.000 A 
ATOM     19  C   UNL     1       6.082   4.163  13.719  0.00  0.00    +0.000 A 
ATOM     20  C   UNL     1       5.058   3.799  14.637  0.00  0.00    +0.000 A 
ATOM     21  C   UNL     1       5.022   4.304  15.951  0.00  0.00    +0.000 A 
ATOM     22  C   UNL     1       5.990   5.272  16.272  0.00  0.00    +0.000 A 
ATOM     23  C   UNL     1       6.995   5.657  15.341  0.00  0.00    +0.000 A 
ENDBRANCH  14  21
ENDBRANCH   1  14
BRANCH   2  24
ATOM     24  N   UNL     1       5.054   5.607  19.771  0.00  0.00    +0.000 N 
ATOM     25  H   UNL     1       5.247   6.438  19.200  0.00  0.00    +0.000 HD
ATOM     26  H   UNL     1       5.155   5.977  20.727  0.00  0.00    +0.000 HD
ENDBRANCH   2  24
BRANCH   3  27
ATOM     27  C   UNL     1       1.581   4.608  20.800  0.00  0.00    +0.000 C 
BRANCH  27  28
ATOM     28  C   UNL     1       1.813   3.157  21.167  0.00  0.00    +0.000 C 
BRANCH  28  29
ATOM     29  N   UNL     1       1.226   2.215  20.208  0.00  0.00    +0.000 NA
ATOM     30  C   UNL     1       0.437   2.889  19.177  0.00  0.00    +0.000 C 
ATOM     31  C   UNL     1       2.282   1.403  19.619  0.00  0.00    +0.000 C 
ENDBRANCH  28  29
ENDBRANCH  27  28
ENDBRANCH   3  27
TORSDOF 6
ENDMDL
MODEL 9
REMARK VINA RESULT:      -6.5      6.527     11.130
REMARK  Name = 
REMARK  9 active torsions:
REMARK  status: ('A' for Active; 'I' for Inactive)
REMARK    1  A    between atoms: C_1  and  C_2
REMARK    2  A    between atoms: C_5  and  S_6
REMARK    3  A    between atoms: S_6  and  C_9
REMARK    4  A    between atoms: C_10  and  N_11
REMARK    5  A    between atoms: N_12  and  C_13
REMARK    6  A    between atoms: C_13  and  C_14
REMARK    7  A    between atoms: C_14  and  N_15
REMARK    8  A    between atoms: N_15  and  C_16
REMARK    9  A    between atoms: N_15  and  C_17
REMARK                            x       y       z     vdW  Elec       q    Type
REMARK                         _______ _______ _______ _____ _____    ______ ____
ROOT
ATOM      1  C   UNL     1      -0.264  12.336  20.981  0.00  0.00    +0.000 A 
ATOM      2  C   UNL     1       0.463  13.116  20.099  0.00  0.00    +0.000 A 
ATOM      3  N   UNL     1       0.191  12.483  18.909  0.00  0.00    +0.000 N 
ATOM      4  C   UNL     1       0.587  11.234  19.216  0.00  0.00    +0.000 A 
ATOM      5  N   UNL     1       1.102  10.443  18.270  0.00  0.00    +0.000 NA
ATOM      6  C   UNL     1       1.488   9.302  18.755  0.00  0.00    +0.000 A 
ATOM      7  C   UNL     1       2.212   8.565  17.824  0.00  0.00    +0.000 A 
ATOM      8  C   UNL     1       2.749   7.344  18.150  0.00  0.00    +0.000 A 
ATOM      9  C   UNL     1       2.501   6.848  19.423  0.00  0.00    +0.000 A 
ATOM     10  C   UNL     1       1.723   7.595  20.351  0.00  0.00    +0.000 A 
ATOM     11  C   UNL     1       1.184   8.880  20.083  0.00  0.00    +0.000 A 
ATOM     12  N   UNL     1       0.474   9.707  21.007  0.00  0.00    +0.000 NA
ATOM     13  C   UNL     1       0.236  10.989  20.554  0.00  0.00    +0.000 A 
ENDROOT
BRANCH   1  14
ATOM     14  S   UNL     1      -1.101  13.240  22.206  0.00  0.00    +0.000 S 
ATOM     15  O   UNL     1      -0.743  14.622  21.955  0.00  0.00    +0.000 OA
ATOM     16  O   UNL     1      -0.760  12.559  23.434  0.00  0.00    +0.000 OA
BRANCH  14  21
ATOM     17  C   UNL     1      -7.322  12.505  21.536  0.00  0.00    +0.000 C 
ATOM     18  C   UNL     1      -5.843  12.759  21.710  0.00  0.00    +0.000 A 
ATOM     19  C   UNL     1      -5.271  12.914  22.979  0.00  0.00    +0.000 A 
ATOM     20  C   UNL     1      -3.873  13.115  23.142  0.00  0.00    +0.000 A 
ATOM     21  C   UNL     1      -2.989  13.123  22.046  0.00  0.00    +0.000 A 
ATOM     22  C   UNL     1      -3.577  13.029  20.772  0.00  0.00    +0.000 A 
ATOM     23  C   UNL     1      -4.980  12.858  20.612  0.00  0.00    +0.000 A 
ENDBRANCH  14  21
ENDBRANCH   1  14
BRANCH   2  24
ATOM     24  N   UNL     1       1.745  13.519  20.420  0.00  0.00    +0.000 N 
ATOM     25  H   UNL     1       1.846  13.914  21.362  0.00  0.00    +0.000 HD
ATOM     26  H   UNL     1       2.408  12.731  20.448  0.00  0.00    +0.000 HD
ENDBRANCH   2  24
BRANCH   3  27
ATOM     27  C   UNL     1      -0.970  12.515  18.025  0.00  0.00    +0.000 C 
BRANCH  27  28
ATOM     28  C   UNL     1      -1.892  11.314  18.034  0.00  0.00    +0.000 C 
BRANCH  28  29
ATOM     29  N   UNL     1      -2.723  11.212  16.830  0.00  0.00    +0.000 NA
ATOM     30  C   UNL     1      -2.525   9.947  16.122  0.00  0.00    +0.000 C 
ATOM     31  C   UNL     1      -4.122  11.404  17.189  0.00  0.00    +0.000 C 
ENDBRANCH  28  29
ENDBRANCH  27  28
ENDBRANCH   3  27
TORSDOF 6
ENDMDL
