MODEL 1
REMARK VINA RESULT:      -7.7      0.000      0.000
REMARK  Name = 
REMARK  6 active torsions:
REMARK  status: ('A' for Active; 'I' for Inactive)
REMARK    1  A    between atoms: C_1  and  C_2
REMARK    2  A    between atoms: N_4  and  C_5
REMARK    3  A    between atoms: C_9  and  C_10
REMARK    4  A    between atoms: C_10  and  C_11
REMARK    5  A    between atoms: N_12  and  N_13
REMARK    6  A    between atoms: C_14  and  C_16
REMARK                            x       y       z     vdW  Elec       q    Type
REMARK                         _______ _______ _______ _____ _____    ______ ____
ROOT
ATOM      1  C   UNL     1       2.252   7.334  19.226  0.00  0.00    +0.000 C 
ATOM      2  C   UNL     1       2.183   8.267  18.031  0.00  0.00    +0.000 C 
ATOM      3  N   UNL     1       1.817   7.653  20.410  0.00  0.00    +0.000 NA
ENDROOT
BRANCH   1   8
ATOM      4  C   UNL     1       4.044   4.412  17.581  0.00  0.00    +0.000 A 
ATOM      5  C   UNL     1       3.976   3.458  18.599  0.00  0.00    +0.000 A 
ATOM      6  C   UNL     1       3.386   3.762  19.825  0.00  0.00    +0.000 A 
ATOM      7  C   UNL     1       2.838   5.023  20.045  0.00  0.00    +0.000 A 
ATOM      8  C   UNL     1       2.887   5.991  19.036  0.00  0.00    +0.000 A 
ATOM      9  C   UNL     1       3.525   5.693  17.819  0.00  0.00    +0.000 A 
BRANCH   4  13
ATOM     10  C   UNL     1       6.240   3.908  14.551  0.00  0.00    +0.000 C 
ATOM     11  C   UNL     1       5.964   4.184  16.006  0.00  0.00    +0.000 C 
ATOM     12  O   UNL     1       6.888   4.403  16.782  0.00  0.00    +0.000 OA
ATOM     13  N   UNL     1       4.614   4.143  16.317  0.00  0.00    +0.000 N 
ATOM     14  H   UNL     1       3.985   3.787  15.606  0.00  0.00    +0.000 HD
ENDBRANCH   4  13
ENDBRANCH   1   8
BRANCH   3  15
ATOM     15  N   UNL     1       1.230   8.872  20.593  0.00  0.00    +0.000 N 
ATOM     16  C   UNL     1      -0.000   8.959  21.219  0.00  0.00    +0.000 C 
ATOM     17  O   UNL     1      -0.619   7.999  21.675  0.00  0.00    +0.000 OA
ATOM     18  H   UNL     1       1.667   9.703  20.212  0.00  0.00    +0.000 HD
BRANCH  16  19
ATOM     19  C   UNL     1      -0.573  10.326  21.404  0.00  0.00    +0.000 A 
ATOM     20  C   UNL     1      -0.765  10.733  22.741  0.00  0.00    +0.000 A 
ATOM     21  C   UNL     1      -1.291  11.990  23.047  0.00  0.00    +0.000 A 
ATOM     22  C   UNL     1      -1.642  12.857  22.018  0.00  0.00    +0.000 A 
ATOM     23 CL   UNL     1      -2.296  14.402  22.386  0.00  0.00    +0.000 Cl
ATOM     24  C   UNL     1      -1.471  12.474  20.688  0.00  0.00    +0.000 A 
ATOM     25  C   UNL     1      -0.942  11.212  20.379  0.00  0.00    +0.000 A 
ATOM     26 CL   UNL     1      -0.817  10.836  18.695  0.00  0.00    +0.000 Cl
ENDBRANCH  16  19
ENDBRANCH   3  15
TORSDOF 4
ENDMDL
MODEL 2
REMARK VINA RESULT:      -7.7      2.675      3.408
REMARK  Name = 
REMARK  6 active torsions:
REMARK  status: ('A' for Active; 'I' for Inactive)
REMARK    1  A    between atoms: C_1  and  C_2
REMARK    2  A    between atoms: N_4  and  C_5
REMARK    3  A    between atoms: C_9  and  C_10
REMARK    4  A    between atoms: C_10  and  C_11
REMARK    5  A    between atoms: N_12  and  N_13
REMARK    6  A    between atoms: C_14  and  C_16
REMARK                            x       y       z     vdW  Elec       q    Type
REMARK                         _______ _______ _______ _____ _____    ______ ____
ROOT
ATOM      1  C   UNL     1       3.244   6.543  18.116  0.00  0.00    +0.000 C 
ATOM      2  C   UNL     1       2.080   5.569  18.136  0.00  0.00    +0.000 C 
ATOM      3  N   UNL     1       3.102   7.833  18.219  0.00  0.00    +0.000 NA
ENDROOT
BRANCH   1   8
ATOM      4  C   UNL     1       6.523   5.566  16.459  0.00  0.00    +0.000 A 
ATOM      5  C   UNL     1       7.144   4.869  17.498  0.00  0.00    +0.000 A 
ATOM      6  C   UNL     1       6.525   4.742  18.742  0.00  0.00    +0.000 A 
ATOM      7  C   UNL     1       5.267   5.297  18.958  0.00  0.00    +0.000 A 
ATOM      8  C   UNL     1       4.623   5.990  17.928  0.00  0.00    +0.000 A 
ATOM      9  C   UNL     1       5.272   6.156  16.691  0.00  0.00    +0.000 A 
BRANCH   4  13
ATOM     10  C   UNL     1       7.798   5.203  12.923  0.00  0.00    +0.000 C 
ATOM     11  C   UNL     1       7.014   4.788  14.140  0.00  0.00    +0.000 C 
ATOM     12  O   UNL     1       6.378   3.739  14.141  0.00  0.00    +0.000 OA
ATOM     13  N   UNL     1       7.102   5.703  15.177  0.00  0.00    +0.000 N 
ATOM     14  H   UNL     1       7.529   6.599  14.969  0.00  0.00    +0.000 HD
ENDBRANCH   4  13
ENDBRANCH   1   8
BRANCH   3  15
ATOM     15  N   UNL     1       1.850   8.348  18.398  0.00  0.00    +0.000 N 
ATOM     16  C   UNL     1       1.590   9.663  18.058  0.00  0.00    +0.000 C 
ATOM     17  O   UNL     1       2.411  10.429  17.555  0.00  0.00    +0.000 OA
ATOM     18  H   UNL     1       1.133   7.785  18.840  0.00  0.00    +0.000 HD
BRANCH  16  19
ATOM     19  C   UNL     1       0.193  10.154  18.261  0.00  0.00    +0.000 A 
ATOM     20  C   UNL     1      -0.769   9.651  17.359  0.00  0.00    +0.000 A 
ATOM     21  C   UNL     1      -2.109  10.030  17.445  0.00  0.00    +0.000 A 
ATOM     22  C   UNL     1      -2.508  10.928  18.431  0.00  0.00    +0.000 A 
ATOM     23 CL   UNL     1      -4.154  11.405  18.539  0.00  0.00    +0.000 Cl
ATOM     24  C   UNL     1      -1.574  11.446  19.326  0.00  0.00    +0.000 A 
ATOM     25  C   UNL     1      -0.227  11.066  19.243  0.00  0.00    +0.000 A 
ATOM     26 CL   UNL     1       0.842  11.808  20.383  0.00  0.00    +0.000 Cl
ENDBRANCH  16  19
ENDBRANCH   3  15
TORSDOF 4
ENDMDL
MODEL 3
REMARK VINA RESULT:      -7.6      3.892      9.245
REMARK  Name = 
REMARK  6 active torsions:
REMARK  status: ('A' for Active; 'I' for Inactive)
REMARK    1  A    between atoms: C_1  and  C_2
REMARK    2  A    between atoms: N_4  and  C_5
REMARK    3  A    between atoms: C_9  and  C_10
REMARK    4  A    between atoms: C_10  and  C_11
REMARK    5  A    between atoms: N_12  and  N_13
REMARK    6  A    between atoms: C_14  and  C_16
REMARK                            x       y       z     vdW  Elec       q    Type
REMARK                         _______ _______ _______ _____ _____    ______ ____
ROOT
ATOM      1  C   UNL     1       1.303   8.965  19.550  0.00  0.00    +0.000 C 
ATOM      2  C   UNL     1       1.244   9.683  18.215  0.00  0.00    +0.000 C 
ATOM      3  N   UNL     1       1.931   7.839  19.732  0.00  0.00    +0.000 NA
ENDROOT
BRANCH   1   8
ATOM      4  C   UNL     1      -0.472  11.517  21.738  0.00  0.00    +0.000 A 
ATOM      5  C   UNL     1      -0.702  10.761  22.889  0.00  0.00    +0.000 A 
ATOM      6  C   UNL     1      -0.317   9.421  22.952  0.00  0.00    +0.000 A 
ATOM      7  C   UNL     1       0.319   8.824  21.867  0.00  0.00    +0.000 A 
ATOM      8  C   UNL     1       0.567   9.566  20.708  0.00  0.00    +0.000 A 
ATOM      9  C   UNL     1       0.134  10.902  20.633  0.00  0.00    +0.000 A 
BRANCH   4  13
ATOM     10  C   UNL     1      -0.679  15.288  21.710  0.00  0.00    +0.000 C 
ATOM     11  C   UNL     1       0.023  13.960  21.828  0.00  0.00    +0.000 C 
ATOM     12  O   UNL     1       1.227  13.913  22.060  0.00  0.00    +0.000 OA
ATOM     13  N   UNL     1      -0.826  12.882  21.636  0.00  0.00    +0.000 N 
ATOM     14  H   UNL     1      -1.758  13.081  21.290  0.00  0.00    +0.000 HD
ENDBRANCH   4  13
ENDBRANCH   1   8
BRANCH   3  15
ATOM     15  N   UNL     1       2.612   7.285  18.686  0.00  0.00    +0.000 N 
ATOM     16  C   UNL     1       3.380   6.152  18.884  0.00  0.00    +0.000 C 
ATOM     17  O   UNL     1       3.477   5.556  19.956  0.00  0.00    +0.000 OA
ATOM     18  H   UNL     1       2.605   7.744  17.783  0.00  0.00    +0.000 HD
BRANCH  16  19
ATOM     19  C   UNL     1       4.080   5.589  17.691  0.00  0.00    +0.000 A 
ATOM     20  C   UNL     1       4.713   6.529  16.852  0.00  0.00    +0.000 A 
ATOM     21  C   UNL     1       5.404   6.129  15.707  0.00  0.00    +0.000 A 
ATOM     22  C   UNL     1       5.463   4.778  15.377  0.00  0.00    +0.000 A 
ATOM     23 CL   UNL     1       6.305   4.278  13.967  0.00  0.00    +0.000 Cl
ATOM     24  C   UNL     1       4.837   3.831  16.185  0.00  0.00    +0.000 A 
ATOM     25  C   UNL     1       4.144   4.231  17.337  0.00  0.00    +0.000 A 
ATOM     26 CL   UNL     1       3.374   2.968  18.235  0.00  0.00    +0.000 Cl
ENDBRANCH  16  19
ENDBRANCH   3  15
TORSDOF 4
ENDMDL
MODEL 4
REMARK VINA RESULT:      -7.6      1.153      1.153
REMARK  Name = 
REMARK  6 active torsions:
REMARK  status: ('A' for Active; 'I' for Inactive)
REMARK    1  A    between atoms: C_1  and  C_2
REMARK    2  A    between atoms: N_4  and  C_5
REMARK    3  A    between atoms: C_9  and  C_10
REMARK    4  A    between atoms: C_10  and  C_11
REMARK    5  A    between atoms: N_12  and  N_13
REMARK    6  A    between atoms: C_14  and  C_16
REMARK                            x       y       z     vdW  Elec       q    Type
REMARK                         _______ _______ _______ _____ _____    ______ ____
ROOT
ATOM      1  C   UNL     1       2.298   7.566  19.058  0.00  0.00    +0.000 C 
ATOM      2  C   UNL     1       2.067   8.519  17.900  0.00  0.00    +0.000 C 
ATOM      3  N   UNL     1       1.808   7.754  20.250  0.00  0.00    +0.000 NA
ENDROOT
BRANCH   1   8
ATOM      4  C   UNL     1       4.598   5.086  17.323  0.00  0.00    +0.000 A 
ATOM      5  C   UNL     1       4.696   4.092  18.300  0.00  0.00    +0.000 A 
ATOM      6  C   UNL     1       4.051   4.233  19.529  0.00  0.00    +0.000 A 
ATOM      7  C   UNL     1       3.284   5.365  19.791  0.00  0.00    +0.000 A 
ATOM      8  C   UNL     1       3.165   6.368  18.824  0.00  0.00    +0.000 A 
ATOM      9  C   UNL     1       3.856   6.242  17.605  0.00  0.00    +0.000 A 
BRANCH   4  13
ATOM     10  C   UNL     1       6.919   4.860  14.353  0.00  0.00    +0.000 C 
ATOM     11  C   UNL     1       6.580   4.904  15.820  0.00  0.00    +0.000 C 
ATOM     12  O   UNL     1       7.470   4.863  16.664  0.00  0.00    +0.000 OA
ATOM     13  N   UNL     1       5.217   4.978  16.057  0.00  0.00    +0.000 N 
ATOM     14  H   UNL     1       4.600   4.837  15.265  0.00  0.00    +0.000 HD
ENDBRANCH   4  13
ENDBRANCH   1   8
BRANCH   3  15
ATOM     15  N   UNL     1       1.010   8.838  20.473  0.00  0.00    +0.000 N 
ATOM     16  C   UNL     1       1.068   9.501  21.686  0.00  0.00    +0.000 C 
ATOM     17  O   UNL     1       1.833   9.207  22.604  0.00  0.00    +0.000 OA
ATOM     18  H   UNL     1       0.330   9.115  19.774  0.00  0.00    +0.000 HD
BRANCH  16  19
ATOM     19  C   UNL     1       0.182  10.692  21.853  0.00  0.00    +0.000 A 
ATOM     20  C   UNL     1      -0.839  10.565  22.819  0.00  0.00    +0.000 A 
ATOM     21  C   UNL     1      -1.730  11.608  23.071  0.00  0.00    +0.000 A 
ATOM     22  C   UNL     1      -1.621  12.795  22.353  0.00  0.00    +0.000 A 
ATOM     23 CL   UNL     1      -2.719  14.082  22.653  0.00  0.00    +0.000 Cl
ATOM     24  C   UNL     1      -0.627  12.941  21.387  0.00  0.00    +0.000 A 
ATOM     25  C   UNL     1       0.271  11.894  21.132  0.00  0.00    +0.000 A 
ATOM     26 CL   UNL     1       1.432  12.179  19.882  0.00  0.00    +0.000 Cl
ENDBRANCH  16  19
ENDBRANCH   3  15
TORSDOF 4
ENDMDL
MODEL 5
REMARK VINA RESULT:      -7.5      2.747      3.713
REMARK  Name = 
REMARK  6 active torsions:
REMARK  status: ('A' for Active; 'I' for Inactive)
REMARK    1  A    between atoms: C_1  and  C_2
REMARK    2  A    between atoms: N_4  and  C_5
REMARK    3  A    between atoms: C_9  and  C_10
REMARK    4  A    between atoms: C_10  and  C_11
REMARK    5  A    between atoms: N_12  and  N_13
REMARK    6  A    between atoms: C_14  and  C_16
REMARK                            x       y       z     vdW  Elec       q    Type
REMARK                         _______ _______ _______ _____ _____    ______ ____
ROOT
ATOM      1  C   UNL     1       1.167   9.298  19.535  0.00  0.00    +0.000 C 
ATOM      2  C   UNL     1       1.167  10.500  18.608  0.00  0.00    +0.000 C 
ATOM      3  N   UNL     1       0.534   9.270  20.672  0.00  0.00    +0.000 NA
ENDROOT
BRANCH   1   8
ATOM      4  C   UNL     1       2.774   5.855  19.651  0.00  0.00    +0.000 A 
ATOM      5  C   UNL     1       3.547   5.887  18.488  0.00  0.00    +0.000 A 
ATOM      6  C   UNL     1       3.526   7.001  17.648  0.00  0.00    +0.000 A 
ATOM      7  C   UNL     1       2.744   8.107  17.970  0.00  0.00    +0.000 A 
ATOM      8  C   UNL     1       1.970   8.099  19.134  0.00  0.00    +0.000 A 
ATOM      9  C   UNL     1       1.958   6.955  19.953  0.00  0.00    +0.000 A 
BRANCH   4  13
ATOM     10  C   UNL     1       2.035   2.845  21.807  0.00  0.00    +0.000 C 
ATOM     11  C   UNL     1       1.737   3.865  20.740  0.00  0.00    +0.000 C 
ATOM     12  O   UNL     1       0.667   3.842  20.141  0.00  0.00    +0.000 OA
ATOM     13  N   UNL     1       2.778   4.758  20.542  0.00  0.00    +0.000 N 
ATOM     14  H   UNL     1       3.661   4.550  20.995  0.00  0.00    +0.000 HD
ENDBRANCH   4  13
ENDBRANCH   1   8
BRANCH   3  15
ATOM     15  N   UNL     1      -0.207  10.354  21.044  0.00  0.00    +0.000 N 
ATOM     16  C   UNL     1      -0.357  10.662  22.384  0.00  0.00    +0.000 C 
ATOM     17  O   UNL     1       0.171  10.039  23.305  0.00  0.00    +0.000 OA
ATOM     18  H   UNL     1      -0.700  10.892  20.340  0.00  0.00    +0.000 HD
BRANCH  16  19
ATOM     19  C   UNL     1      -1.163  11.875  22.717  0.00  0.00    +0.000 A 
ATOM     20  C   UNL     1      -2.395  11.633  23.359  0.00  0.00    +0.000 A 
ATOM     21  C   UNL     1      -3.239  12.682  23.725  0.00  0.00    +0.000 A 
ATOM     22  C   UNL     1      -2.867  13.994  23.445  0.00  0.00    +0.000 A 
ATOM     23 CL   UNL     1      -3.903  15.291  23.886  0.00  0.00    +0.000 Cl
ATOM     24  C   UNL     1      -1.659  14.257  22.802  0.00  0.00    +0.000 A 
ATOM     25  C   UNL     1      -0.809  13.204  22.434  0.00  0.00    +0.000 A 
ATOM     26 CL   UNL     1       0.642  13.655  21.606  0.00  0.00    +0.000 Cl
ENDBRANCH  16  19
ENDBRANCH   3  15
TORSDOF 4
ENDMDL
MODEL 6
REMARK VINA RESULT:      -7.5      3.810      9.437
REMARK  Name = 
REMARK  6 active torsions:
REMARK  status: ('A' for Active; 'I' for Inactive)
REMARK    1  A    between atoms: C_1  and  C_2
REMARK    2  A    between atoms: N_4  and  C_5
REMARK    3  A    between atoms: C_9  and  C_10
REMARK    4  A    between atoms: C_10  and  C_11
REMARK    5  A    between atoms: N_12  and  N_13
REMARK    6  A    between atoms: C_14  and  C_16
REMARK                            x       y       z     vdW  Elec       q    Type
REMARK                         _______ _______ _______ _____ _____    ______ ____
ROOT
ATOM      1  C   UNL     1       1.061   9.189  19.757  0.00  0.00    +0.000 C 
ATOM      2  C   UNL     1       1.031   9.911  18.422  0.00  0.00    +0.000 C 
ATOM      3  N   UNL     1       1.708   8.078  19.957  0.00  0.00    +0.000 NA
ENDROOT
BRANCH   1   8
ATOM      4  C   UNL     1      -1.183  11.535  21.736  0.00  0.00    +0.000 A 
ATOM      5  C   UNL     1      -1.116  10.953  23.004  0.00  0.00    +0.000 A 
ATOM      6  C   UNL     1      -0.379   9.788  23.217  0.00  0.00    +0.000 A 
ATOM      7  C   UNL     1       0.318   9.198  22.166  0.00  0.00    +0.000 A 
ATOM      8  C   UNL     1       0.272   9.770  20.890  0.00  0.00    +0.000 A 
ATOM      9  C   UNL     1      -0.511  10.917  20.671  0.00  0.00    +0.000 A 
BRANCH   4  13
ATOM     10  C   UNL     1      -3.706  14.318  21.351  0.00  0.00    +0.000 C 
ATOM     11  C   UNL     1      -3.216  12.976  21.830  0.00  0.00    +0.000 C 
ATOM     12  O   UNL     1      -3.957  12.237  22.470  0.00  0.00    +0.000 OA
ATOM     13  N   UNL     1      -1.900  12.725  21.477  0.00  0.00    +0.000 N 
ATOM     14  H   UNL     1      -1.367  13.497  21.093  0.00  0.00    +0.000 HD
ENDBRANCH   4  13
ENDBRANCH   1   8
BRANCH   3  15
ATOM     15  N   UNL     1       2.436   7.543  18.934  0.00  0.00    +0.000 N 
ATOM     16  C   UNL     1       3.029   6.302  19.082  0.00  0.00    +0.000 C 
ATOM     17  O   UNL     1       2.923   5.595  20.083  0.00  0.00    +0.000 OA
ATOM     18  H   UNL     1       2.595   8.085  18.092  0.00  0.00    +0.000 HD
BRANCH  16  19
ATOM     19  C   UNL     1       3.793   5.770  17.914  0.00  0.00    +0.000 A 
ATOM     20  C   UNL     1       4.486   6.730  17.147  0.00  0.00    +0.000 A 
ATOM     21  C   UNL     1       5.239   6.359  16.032  0.00  0.00    +0.000 A 
ATOM     22  C   UNL     1       5.303   5.019  15.660  0.00  0.00    +0.000 A 
ATOM     23 CL   UNL     1       6.222   4.555  14.285  0.00  0.00    +0.000 Cl
ATOM     24  C   UNL     1       4.619   4.054  16.397  0.00  0.00    +0.000 A 
ATOM     25  C   UNL     1       3.863   4.424  17.518  0.00  0.00    +0.000 A 
ATOM     26 CL   UNL     1       3.027   3.142  18.325  0.00  0.00    +0.000 Cl
ENDBRANCH  16  19
ENDBRANCH   3  15
TORSDOF 4
ENDMDL
MODEL 7
REMARK VINA RESULT:      -7.4      1.800      1.889
REMARK  Name = 
REMARK  6 active torsions:
REMARK  status: ('A' for Active; 'I' for Inactive)
REMARK    1  A    between atoms: C_1  and  C_2
REMARK    2  A    between atoms: N_4  and  C_5
REMARK    3  A    between atoms: C_9  and  C_10
REMARK    4  A    between atoms: C_10  and  C_11
REMARK    5  A    between atoms: N_12  and  N_13
REMARK    6  A    between atoms: C_14  and  C_16
REMARK                            x       y       z     vdW  Elec       q    Type
REMARK                         _______ _______ _______ _____ _____    ______ ____
ROOT
ATOM      1  C   UNL     1       1.605   7.623  20.148  0.00  0.00    +0.000 C 
ATOM      2  C   UNL     1       1.901   8.589  19.015  0.00  0.00    +0.000 C 
ATOM      3  N   UNL     1       0.828   7.912  21.152  0.00  0.00    +0.000 NA
ENDROOT
BRANCH   1   8
ATOM      4  C   UNL     1       4.031   4.840  19.245  0.00  0.00    +0.000 A 
ATOM      5  C   UNL     1       3.481   3.772  19.957  0.00  0.00    +0.000 A 
ATOM      6  C   UNL     1       2.351   3.952  20.755  0.00  0.00    +0.000 A 
ATOM      7  C   UNL     1       1.745   5.203  20.837  0.00  0.00    +0.000 A 
ATOM      8  C   UNL     1       2.273   6.283  20.124  0.00  0.00    +0.000 A 
ATOM      9  C   UNL     1       3.440   6.106  19.359  0.00  0.00    +0.000 A 
BRANCH   4  13
ATOM     10  C   UNL     1       7.439   4.786  17.618  0.00  0.00    +0.000 C 
ATOM     11  C   UNL     1       6.474   4.979  18.758  0.00  0.00    +0.000 C 
ATOM     12  O   UNL     1       6.878   5.337  19.860  0.00  0.00    +0.000 OA
ATOM     13  N   UNL     1       5.162   4.700  18.409  0.00  0.00    +0.000 N 
ATOM     14  H   UNL     1       5.006   4.257  17.510  0.00  0.00    +0.000 HD
ENDBRANCH   4  13
ENDBRANCH   1   8
BRANCH   3  15
ATOM     15  N   UNL     1       0.208   9.127  21.180  0.00  0.00    +0.000 N 
ATOM     16  C   UNL     1       0.310   9.929  22.302  0.00  0.00    +0.000 C 
ATOM     17  O   UNL     1       0.968   9.647  23.303  0.00  0.00    +0.000 OA
ATOM     18  H   UNL     1      -0.381   9.410  20.405  0.00  0.00    +0.000 HD
BRANCH  16  19
ATOM     19  C   UNL     1      -0.377  11.255  22.255  0.00  0.00    +0.000 A 
ATOM     20  C   UNL     1      -1.530  11.376  23.059  0.00  0.00    +0.000 A 
ATOM     21  C   UNL     1      -2.259  12.565  23.105  0.00  0.00    +0.000 A 
ATOM     22  C   UNL     1      -1.851  13.652  22.338  0.00  0.00    +0.000 A 
ATOM     23 CL   UNL     1      -2.747  15.116  22.383  0.00  0.00    +0.000 Cl
ATOM     24  C   UNL     1      -0.721  13.553  21.528  0.00  0.00    +0.000 A 
ATOM     25  C   UNL     1       0.014  12.360  21.481  0.00  0.00    +0.000 A 
ATOM     26 CL   UNL     1       1.371  12.347  20.408  0.00  0.00    +0.000 Cl
ENDBRANCH  16  19
ENDBRANCH   3  15
TORSDOF 4
ENDMDL
MODEL 8
REMARK VINA RESULT:      -7.4      3.068      4.334
REMARK  Name = 
REMARK  6 active torsions:
REMARK  status: ('A' for Active; 'I' for Inactive)
REMARK    1  A    between atoms: C_1  and  C_2
REMARK    2  A    between atoms: N_4  and  C_5
REMARK    3  A    between atoms: C_9  and  C_10
REMARK    4  A    between atoms: C_10  and  C_11
REMARK    5  A    between atoms: N_12  and  N_13
REMARK    6  A    between atoms: C_14  and  C_16
REMARK                            x       y       z     vdW  Elec       q    Type
REMARK                         _______ _______ _______ _____ _____    ______ ____
ROOT
ATOM      1  C   UNL     1       0.683  10.330  20.036  0.00  0.00    +0.000 C 
ATOM      2  C   UNL     1       1.320  11.696  19.858  0.00  0.00    +0.000 C 
ATOM      3  N   UNL     1      -0.425  10.135  20.691  0.00  0.00    +0.000 NA
ENDROOT
BRANCH   1   8
ATOM      4  C   UNL     1       2.285   6.894  19.758  0.00  0.00    +0.000 A 
ATOM      5  C   UNL     1       2.803   6.950  18.462  0.00  0.00    +0.000 A 
ATOM      6  C   UNL     1       2.609   8.078  17.664  0.00  0.00    +0.000 A 
ATOM      7  C   UNL     1       1.907   9.174  18.160  0.00  0.00    +0.000 A 
ATOM      8  C   UNL     1       1.388   9.142  19.458  0.00  0.00    +0.000 A 
ATOM      9  C   UNL     1       1.546   7.984  20.240  0.00  0.00    +0.000 A 
BRANCH   4  13
ATOM     10  C   UNL     1       2.202   3.605  21.612  0.00  0.00    +0.000 C 
ATOM     11  C   UNL     1       1.823   4.561  20.512  0.00  0.00    +0.000 C 
ATOM     12  O   UNL     1       1.023   4.224  19.645  0.00  0.00    +0.000 OA
ATOM     13  N   UNL     1       2.473   5.781  20.609  0.00  0.00    +0.000 N 
ATOM     14  H   UNL     1       3.227   5.852  21.283  0.00  0.00    +0.000 HD
ENDBRANCH   4  13
ENDBRANCH   1   8
BRANCH   3  15
ATOM     15  N   UNL     1      -1.081  11.211  21.215  0.00  0.00    +0.000 N 
ATOM     16  C   UNL     1      -1.063  11.433  22.580  0.00  0.00    +0.000 C 
ATOM     17  O   UNL     1      -0.452  10.738  23.391  0.00  0.00    +0.000 OA
ATOM     18  H   UNL     1      -1.635  11.807  20.610  0.00  0.00    +0.000 HD
BRANCH  16  19
ATOM     19  C   UNL     1      -1.784  12.641  23.082  0.00  0.00    +0.000 A 
ATOM     20  C   UNL     1      -3.062  12.407  23.632  0.00  0.00    +0.000 A 
ATOM     21  C   UNL     1      -3.835  13.453  24.138  0.00  0.00    +0.000 A 
ATOM     22  C   UNL     1      -3.345  14.754  24.093  0.00  0.00    +0.000 A 
ATOM     23 CL   UNL     1      -4.294  16.047  24.708  0.00  0.00    +0.000 Cl
ATOM     24  C   UNL     1      -2.089  15.012  23.546  0.00  0.00    +0.000 A 
ATOM     25  C   UNL     1      -1.310  13.963  23.038  0.00  0.00    +0.000 A 
ATOM     26 CL   UNL     1       0.211  14.414  22.348  0.00  0.00    +0.000 Cl
ENDBRANCH  16  19
ENDBRANCH   3  15
TORSDOF 4
ENDMDL
MODEL 9
REMARK VINA RESULT:      -7.3      1.678      2.012
REMARK  Name = 
REMARK  6 active torsions:
REMARK  status: ('A' for Active; 'I' for Inactive)
REMARK    1  A    between atoms: C_1  and  C_2
REMARK    2  A    between atoms: N_4  and  C_5
REMARK    3  A    between atoms: C_9  and  C_10
REMARK    4  A    between atoms: C_10  and  C_11
REMARK    5  A    between atoms: N_12  and  N_13
REMARK    6  A    between atoms: C_14  and  C_16
REMARK                            x       y       z     vdW  Elec       q    Type
REMARK                         _______ _______ _______ _____ _____    ______ ____
ROOT
ATOM      1  C   UNL     1       2.307   5.851  19.553  0.00  0.00    +0.000 C 
ATOM      2  C   UNL     1       1.576   5.523  20.842  0.00  0.00    +0.000 C 
ATOM      3  N   UNL     1       2.454   7.063  19.101  0.00  0.00    +0.000 NA
ENDROOT
BRANCH   1   8
ATOM      4  C   UNL     1       4.207   3.950  16.865  0.00  0.00    +0.000 A 
ATOM      5  C   UNL     1       3.800   2.641  17.133  0.00  0.00    +0.000 A 
ATOM      6  C   UNL     1       2.942   2.364  18.198  0.00  0.00    +0.000 A 
ATOM      7  C   UNL     1       2.466   3.397  19.000  0.00  0.00    +0.000 A 
ATOM      8  C   UNL     1       2.853   4.716  18.744  0.00  0.00    +0.000 A 
ATOM      9  C   UNL     1       3.755   4.983  17.698  0.00  0.00    +0.000 A 
BRANCH   4  13
ATOM     10  C   UNL     1       7.037   4.861  14.537  0.00  0.00    +0.000 C 
ATOM     11  C   UNL     1       6.432   4.447  15.852  0.00  0.00    +0.000 C 
ATOM     12  O   UNL     1       7.143   4.281  16.838  0.00  0.00    +0.000 OA
ATOM     13  N   UNL     1       5.057   4.280  15.786  0.00  0.00    +0.000 N 
ATOM     14  H   UNL     1       4.633   4.293  14.865  0.00  0.00    +0.000 HD
ENDBRANCH   4  13
ENDBRANCH   1   8
BRANCH   3  15
ATOM     15  N   UNL     1       1.967   8.106  19.833  0.00  0.00    +0.000 N 
ATOM     16  C   UNL     1       1.299   9.141  19.204  0.00  0.00    +0.000 C 
ATOM     17  O   UNL     1       1.065   9.186  17.997  0.00  0.00    +0.000 OA
ATOM     18  H   UNL     1       2.154   8.152  20.829  0.00  0.00    +0.000 HD
BRANCH  16  19
ATOM     19  C   UNL     1       0.775  10.239  20.070  0.00  0.00    +0.000 A 
ATOM     20  C   UNL     1      -0.084   9.837  21.114  0.00  0.00    +0.000 A 
ATOM     21  C   UNL     1      -0.638  10.768  21.995  0.00  0.00    +0.000 A 
ATOM     22  C   UNL     1      -0.347  12.120  21.839  0.00  0.00    +0.000 A 
ATOM     23 CL   UNL     1      -1.029  13.272  22.914  0.00  0.00    +0.000 Cl
ATOM     24  C   UNL     1       0.492  12.542  20.809  0.00  0.00    +0.000 A 
ATOM     25  C   UNL     1       1.050  11.609  19.923  0.00  0.00    +0.000 A 
ATOM     26 CL   UNL     1       2.040  12.258  18.663  0.00  0.00    +0.000 Cl
ENDBRANCH  16  19
ENDBRANCH   3  15
TORSDOF 4
ENDMDL
