MODEL 1
REMARK VINA RESULT:      -8.8      0.000      0.000
REMARK  Name = 
REMARK  3 active torsions:
REMARK  status: ('A' for Active; 'I' for Inactive)
REMARK    1  A    between atoms: C_1  and  N_2
REMARK    2  A    between atoms: C_4  and  C_5
REMARK    3  A    between atoms: C_5  and  O_7
REMARK                            x       y       z     vdW  Elec       q    Type
REMARK                         _______ _______ _______ _____ _____    ______ ____
ROOT
ATOM      1  C   UNL     1       2.053   5.225  20.842  0.00  0.00    +0.000 C 
ATOM      2  N   UNL     1       2.886   5.676  19.733  0.00  0.00    +0.000 N 
ATOM      3  C   UNL     1       3.857   4.895  19.130  0.00  0.00    +0.000 A 
ATOM      4  C   UNL     1       4.587   5.239  18.060  0.00  0.00    +0.000 A 
ATOM      5  C   UNL     1       4.303   6.558  17.470  0.00  0.00    +0.000 A 
ATOM      6  O   UNL     1       4.971   6.963  16.515  0.00  0.00    +0.000 OA
ATOM      7  C   UNL     1       3.216   7.369  18.042  0.00  0.00    +0.000 A 
ATOM      8  C   UNL     1       2.860   8.561  17.433  0.00  0.00    +0.000 A 
ATOM      9  C   UNL     1       1.864   9.324  18.015  0.00  0.00    +0.000 A 
ATOM     10  C   UNL     1       1.272   8.908  19.208  0.00  0.00    +0.000 A 
ATOM     11  N   UNL     1       0.414   9.793  19.832  0.00  0.00    +0.000 N 
ATOM     12  C   UNL     1       0.238   9.743  21.288  0.00  0.00    +0.000 C 
ATOM     13  C   UNL     1      -0.140  11.167  21.789  0.00  0.00    +0.000 C 
ATOM     14  N   UNL     1      -1.290  11.697  21.039  0.00  0.00    +0.000 N 
ATOM     15  C   UNL     1      -2.323  12.392  21.584  0.00  0.00    +0.000 A 
ATOM     16  N   UNL     1      -3.332  12.823  20.857  0.00  0.00    +0.000 NA
ATOM     17  C   UNL     1      -4.320  13.379  21.640  0.00  0.00    +0.000 A 
ATOM     18  C   UNL     1      -5.561  13.859  21.176  0.00  0.00    +0.000 A 
ATOM     19  C   UNL     1      -6.491  14.366  22.087  0.00  0.00    +0.000 A 
ATOM     20  C   UNL     1      -6.188  14.419  23.443  0.00  0.00    +0.000 A 
ATOM     21  C   UNL     1      -4.954  13.965  23.924  0.00  0.00    +0.000 A 
ATOM     22  C   UNL     1      -4.038  13.436  23.000  0.00  0.00    +0.000 A 
ATOM     23  S   UNL     1      -2.479  12.766  23.266  0.00  0.00    +0.000 S 
ATOM     24  C   UNL     1      -1.166  11.648  19.571  0.00  0.00    +0.000 C 
ATOM     25  C   UNL     1      -0.796  10.224  19.111  0.00  0.00    +0.000 C 
ATOM     26  N   UNL     1       1.608   7.731  19.789  0.00  0.00    +0.000 NA
ATOM     27  C   UNL     1       2.551   6.947  19.197  0.00  0.00    +0.000 A 
ENDROOT
BRANCH   4  28
ATOM     28  C   UNL     1       5.610   4.315  17.528  0.00  0.00    +0.000 C 
ATOM     29  O   UNL     1       5.521   3.775  16.434  0.00  0.00    +0.000 OA
BRANCH  28  30
ATOM     30  O   UNL     1       6.662   4.109  18.351  0.00  0.00    +0.000 OA
ATOM     31  H   UNL     1       7.490   3.829  17.887  0.00  0.00    +0.000 HD
ENDBRANCH  28  30
ENDBRANCH   4  28
TORSDOF 2
ENDMDL
MODEL 2
REMARK VINA RESULT:      -8.0      3.341      4.231
REMARK  Name = 
REMARK  3 active torsions:
REMARK  status: ('A' for Active; 'I' for Inactive)
REMARK    1  A    between atoms: C_1  and  N_2
REMARK    2  A    between atoms: C_4  and  C_5
REMARK    3  A    between atoms: C_5  and  O_7
REMARK                            x       y       z     vdW  Elec       q    Type
REMARK                         _______ _______ _______ _____ _____    ______ ____
ROOT
ATOM      1  C   UNL     1       5.121   6.178  17.903  0.00  0.00    +0.000 C 
ATOM      2  N   UNL     1       4.365   5.174  18.642  0.00  0.00    +0.000 N 
ATOM      3  C   UNL     1       4.735   3.843  18.736  0.00  0.00    +0.000 A 
ATOM      4  C   UNL     1       4.117   2.907  19.468  0.00  0.00    +0.000 A 
ATOM      5  C   UNL     1       2.955   3.353  20.255  0.00  0.00    +0.000 A 
ATOM      6  O   UNL     1       2.305   2.536  20.913  0.00  0.00    +0.000 OA
ATOM      7  C   UNL     1       2.595   4.780  20.238  0.00  0.00    +0.000 A 
ATOM      8  C   UNL     1       1.576   5.238  21.058  0.00  0.00    +0.000 A 
ATOM      9  C   UNL     1       1.231   6.575  20.991  0.00  0.00    +0.000 A 
ATOM     10  C   UNL     1       1.875   7.420  20.085  0.00  0.00    +0.000 A 
ATOM     11  N   UNL     1       1.368   8.697  19.938  0.00  0.00    +0.000 N 
ATOM     12  C   UNL     1       1.535   9.412  18.668  0.00  0.00    +0.000 C 
ATOM     13  C   UNL     1       0.352  10.410  18.504  0.00  0.00    +0.000 C 
ATOM     14  N   UNL     1       0.223  11.269  19.692  0.00  0.00    +0.000 N 
ATOM     15  C   UNL     1      -0.047  12.601  19.666  0.00  0.00    +0.000 A 
ATOM     16  N   UNL     1      -0.131  13.315  20.768  0.00  0.00    +0.000 NA
ATOM     17  C   UNL     1      -0.277  14.657  20.492  0.00  0.00    +0.000 A 
ATOM     18  C   UNL     1      -0.315  15.691  21.449  0.00  0.00    +0.000 A 
ATOM     19  C   UNL     1      -0.431  17.018  21.028  0.00  0.00    +0.000 A 
ATOM     20  C   UNL     1      -0.531  17.319  19.674  0.00  0.00    +0.000 A 
ATOM     21  C   UNL     1      -0.514  16.307  18.708  0.00  0.00    +0.000 A 
ATOM     22  C   UNL     1      -0.374  14.979  19.143  0.00  0.00    +0.000 A 
ATOM     23  S   UNL     1      -0.276  13.530  18.225  0.00  0.00    +0.000 S 
ATOM     24  C   UNL     1       0.167  10.560  20.983  0.00  0.00    +0.000 C 
ATOM     25  C   UNL     1       1.355   9.585  21.113  0.00  0.00    +0.000 C 
ATOM     26  N   UNL     1       2.885   6.972  19.300  0.00  0.00    +0.000 NA
ATOM     27  C   UNL     1       3.268   5.669  19.394  0.00  0.00    +0.000 A 
ENDROOT
BRANCH   4  28
ATOM     28  C   UNL     1       4.605   1.513  19.462  0.00  0.00    +0.000 C 
ATOM     29  O   UNL     1       5.306   1.044  20.349  0.00  0.00    +0.000 OA
BRANCH  28  30
ATOM     30  O   UNL     1       4.217   0.786  18.390  0.00  0.00    +0.000 OA
ATOM     31  H   UNL     1       3.861  -0.108  18.615  0.00  0.00    +0.000 HD
ENDBRANCH  28  30
ENDBRANCH   4  28
TORSDOF 2
ENDMDL
MODEL 3
REMARK VINA RESULT:      -7.9      5.277     10.995
REMARK  Name = 
REMARK  3 active torsions:
REMARK  status: ('A' for Active; 'I' for Inactive)
REMARK    1  A    between atoms: C_1  and  N_2
REMARK    2  A    between atoms: C_4  and  C_5
REMARK    3  A    between atoms: C_5  and  O_7
REMARK                            x       y       z     vdW  Elec       q    Type
REMARK                         _______ _______ _______ _____ _____    ______ ____
ROOT
ATOM      1  C   UNL     1      -4.543  12.526  19.390  0.00  0.00    +0.000 C 
ATOM      2  N   UNL     1      -4.266  13.157  20.675  0.00  0.00    +0.000 N 
ATOM      3  C   UNL     1      -5.069  14.127  21.249  0.00  0.00    +0.000 A 
ATOM      4  C   UNL     1      -4.897  14.673  22.461  0.00  0.00    +0.000 A 
ATOM      5  C   UNL     1      -3.760  14.168  23.250  0.00  0.00    +0.000 A 
ATOM      6  O   UNL     1      -3.509  14.660  24.353  0.00  0.00    +0.000 OA
ATOM      7  C   UNL     1      -2.944  13.077  22.696  0.00  0.00    +0.000 A 
ATOM      8  C   UNL     1      -1.941  12.513  23.469  0.00  0.00    +0.000 A 
ATOM      9  C   UNL     1      -1.162  11.518  22.908  0.00  0.00    +0.000 A 
ATOM     10  C   UNL     1      -1.368  11.131  21.583  0.00  0.00    +0.000 A 
ATOM     11  N   UNL     1      -0.448  10.263  21.026  0.00  0.00    +0.000 N 
ATOM     12  C   UNL     1      -0.206  10.279  19.579  0.00  0.00    +0.000 C 
ATOM     13  C   UNL     1       1.254   9.807  19.317  0.00  0.00    +0.000 C 
ATOM     14  N   UNL     1       1.514   8.518  19.980  0.00  0.00    +0.000 N 
ATOM     15  C   UNL     1       2.216   7.489  19.437  0.00  0.00    +0.000 A 
ATOM     16  N   UNL     1       2.396   6.355  20.079  0.00  0.00    +0.000 NA
ATOM     17  C   UNL     1       3.017   5.416  19.284  0.00  0.00    +0.000 A 
ATOM     18  C   UNL     1       3.281   4.080  19.647  0.00  0.00    +0.000 A 
ATOM     19  C   UNL     1       3.886   3.220  18.727  0.00  0.00    +0.000 A 
ATOM     20  C   UNL     1       4.249   3.683  17.467  0.00  0.00    +0.000 A 
ATOM     21  C   UNL     1       4.014   5.011  17.092  0.00  0.00    +0.000 A 
ATOM     22  C   UNL     1       3.384   5.858  18.018  0.00  0.00    +0.000 A 
ATOM     23  S   UNL     1       2.921   7.505  17.857  0.00  0.00    +0.000 S 
ATOM     24  C   UNL     1       1.168   8.462  21.412  0.00  0.00    +0.000 C 
ATOM     25  C   UNL     1      -0.284   8.931  21.633  0.00  0.00    +0.000 C 
ATOM     26  N   UNL     1      -2.363  11.670  20.838  0.00  0.00    +0.000 NA
ATOM     27  C   UNL     1      -3.169  12.614  21.396  0.00  0.00    +0.000 A 
ENDROOT
BRANCH   4  28
ATOM     28  C   UNL     1      -5.820  15.720  22.945  0.00  0.00    +0.000 C 
ATOM     29  O   UNL     1      -6.143  16.691  22.274  0.00  0.00    +0.000 OA
BRANCH  28  30
ATOM     30  O   UNL     1      -6.283  15.524  24.199  0.00  0.00    +0.000 OA
ATOM     31  H   UNL     1      -7.269  15.478  24.264  0.00  0.00    +0.000 HD
ENDBRANCH  28  30
ENDBRANCH   4  28
TORSDOF 2
ENDMDL
MODEL 4
REMARK VINA RESULT:      -7.3      2.213      3.169
REMARK  Name = 
REMARK  3 active torsions:
REMARK  status: ('A' for Active; 'I' for Inactive)
REMARK    1  A    between atoms: C_1  and  N_2
REMARK    2  A    between atoms: C_4  and  C_5
REMARK    3  A    between atoms: C_5  and  O_7
REMARK                            x       y       z     vdW  Elec       q    Type
REMARK                         _______ _______ _______ _____ _____    ______ ____
ROOT
ATOM      1  C   UNL     1       3.894   8.129  17.187  0.00  0.00    +0.000 C 
ATOM      2  N   UNL     1       3.539   6.830  17.744  0.00  0.00    +0.000 N 
ATOM      3  C   UNL     1       4.088   5.632  17.322  0.00  0.00    +0.000 A 
ATOM      4  C   UNL     1       3.851   4.427  17.859  0.00  0.00    +0.000 A 
ATOM      5  C   UNL     1       2.941   4.395  19.017  0.00  0.00    +0.000 A 
ATOM      6  O   UNL     1       2.636   3.315  19.531  0.00  0.00    +0.000 OA
ATOM      7  C   UNL     1       2.412   5.666  19.536  0.00  0.00    +0.000 A 
ATOM      8  C   UNL     1       1.645   5.666  20.690  0.00  0.00    +0.000 A 
ATOM      9  C   UNL     1       1.126   6.869  21.133  0.00  0.00    +0.000 A 
ATOM     10  C   UNL     1       1.346   8.037  20.402  0.00  0.00    +0.000 A 
ATOM     11  N   UNL     1       0.658   9.169  20.794  0.00  0.00    +0.000 N 
ATOM     12  C   UNL     1       0.333  10.209  19.811  0.00  0.00    +0.000 C 
ATOM     13  C   UNL     1      -0.963  10.938  20.275  0.00  0.00    +0.000 C 
ATOM     14  N   UNL     1      -0.829  11.411  21.662  0.00  0.00    +0.000 N 
ATOM     15  C   UNL     1      -1.263  12.614  22.122  0.00  0.00    +0.000 A 
ATOM     16  N   UNL     1      -1.095  12.981  23.374  0.00  0.00    +0.000 NA
ATOM     17  C   UNL     1      -1.491  14.286  23.576  0.00  0.00    +0.000 A 
ATOM     18  C   UNL     1      -1.366  15.003  24.783  0.00  0.00    +0.000 A 
ATOM     19  C   UNL     1      -1.776  16.337  24.841  0.00  0.00    +0.000 A 
ATOM     20  C   UNL     1      -2.326  16.951  23.720  0.00  0.00    +0.000 A 
ATOM     21  C   UNL     1      -2.477  16.253  22.517  0.00  0.00    +0.000 A 
ATOM     22  C   UNL     1      -2.039  14.919  22.466  0.00  0.00    +0.000 A 
ATOM     23  S   UNL     1      -2.042  13.815  21.151  0.00  0.00    +0.000 S 
ATOM     24  C   UNL     1      -0.393  10.395  22.638  0.00  0.00    +0.000 C 
ATOM     25  C   UNL     1       0.892   9.697  22.149  0.00  0.00    +0.000 C 
ATOM     26  N   UNL     1       2.114   8.036  19.285  0.00  0.00    +0.000 NA
ATOM     27  C   UNL     1       2.673   6.866  18.868  0.00  0.00    +0.000 A 
ENDROOT
BRANCH   4  28
ATOM     28  C   UNL     1       4.490   3.220  17.295  0.00  0.00    +0.000 C 
ATOM     29  O   UNL     1       5.279   3.254  16.360  0.00  0.00    +0.000 OA
BRANCH  28  30
ATOM     30  O   UNL     1       4.132   2.063  17.895  0.00  0.00    +0.000 OA
ATOM     31  H   UNL     1       3.481   2.173  18.631  0.00  0.00    +0.000 HD
ENDBRANCH  28  30
ENDBRANCH   4  28
TORSDOF 2
ENDMDL
MODEL 5
REMARK VINA RESULT:      -7.3      2.308      3.769
REMARK  Name = 
REMARK  3 active torsions:
REMARK  status: ('A' for Active; 'I' for Inactive)
REMARK    1  A    between atoms: C_1  and  N_2
REMARK    2  A    between atoms: C_4  and  C_5
REMARK    3  A    between atoms: C_5  and  O_7
REMARK                            x       y       z     vdW  Elec       q    Type
REMARK                         _______ _______ _______ _____ _____    ______ ____
ROOT
ATOM      1  C   UNL     1       2.047  10.627  17.760  0.00  0.00    +0.000 C 
ATOM      2  N   UNL     1       2.000   9.334  18.433  0.00  0.00    +0.000 N 
ATOM      3  C   UNL     1       2.778   8.247  18.073  0.00  0.00    +0.000 A 
ATOM      4  C   UNL     1       2.827   7.071  18.711  0.00  0.00    +0.000 A 
ATOM      5  C   UNL     1       1.989   6.945  19.916  0.00  0.00    +0.000 A 
ATOM      6  O   UNL     1       1.943   5.874  20.526  0.00  0.00    +0.000 OA
ATOM      7  C   UNL     1       1.219   8.116  20.367  0.00  0.00    +0.000 A 
ATOM      8  C   UNL     1       0.514   8.052  21.558  0.00  0.00    +0.000 A 
ATOM      9  C   UNL     1      -0.234   9.152  21.937  0.00  0.00    +0.000 A 
ATOM     10  C   UNL     1      -0.299  10.273  21.109  0.00  0.00    +0.000 A 
ATOM     11  N   UNL     1      -1.199  11.264  21.452  0.00  0.00    +0.000 N 
ATOM     12  C   UNL     1      -1.777  12.123  20.413  0.00  0.00    +0.000 C 
ATOM     13  C   UNL     1      -3.181  12.599  20.890  0.00  0.00    +0.000 C 
ATOM     14  N   UNL     1      -3.099  13.206  22.229  0.00  0.00    +0.000 N 
ATOM     15  C   UNL     1      -3.765  14.325  22.620  0.00  0.00    +0.000 A 
ATOM     16  N   UNL     1      -3.633  14.825  23.829  0.00  0.00    +0.000 NA
ATOM     17  C   UNL     1      -4.292  16.029  23.954  0.00  0.00    +0.000 A 
ATOM     18  C   UNL     1      -4.279  16.856  25.095  0.00  0.00    +0.000 A 
ATOM     19  C   UNL     1      -4.964  18.074  25.074  0.00  0.00    +0.000 A 
ATOM     20  C   UNL     1      -5.675  18.460  23.943  0.00  0.00    +0.000 A 
ATOM     21  C   UNL     1      -5.717  17.645  22.806  0.00  0.00    +0.000 A 
ATOM     22  C   UNL     1      -5.005  16.435  22.832  0.00  0.00    +0.000 A 
ATOM     23  S   UNL     1      -4.820  15.247  21.605  0.00  0.00    +0.000 S 
ATOM     24  C   UNL     1      -2.419  12.393  23.253  0.00  0.00    +0.000 C 
ATOM     25  C   UNL     1      -1.033  11.943  22.748  0.00  0.00    +0.000 C 
ATOM     26  N   UNL     1       0.408  10.339  19.955  0.00  0.00    +0.000 NA
ATOM     27  C   UNL     1       1.190   9.282  19.597  0.00  0.00    +0.000 A 
ENDROOT
BRANCH   4  28
ATOM     28  C   UNL     1       3.688   5.982  18.205  0.00  0.00    +0.000 C 
ATOM     29  O   UNL     1       4.859   6.146  17.888  0.00  0.00    +0.000 OA
BRANCH  28  30
ATOM     30  O   UNL     1       3.079   4.779  18.116  0.00  0.00    +0.000 OA
ATOM     31  H   UNL     1       2.273   4.774  17.543  0.00  0.00    +0.000 HD
ENDBRANCH  28  30
ENDBRANCH   4  28
TORSDOF 2
ENDMDL
MODEL 6
REMARK VINA RESULT:      -7.3      3.439      4.250
REMARK  Name = 
REMARK  3 active torsions:
REMARK  status: ('A' for Active; 'I' for Inactive)
REMARK    1  A    between atoms: C_1  and  N_2
REMARK    2  A    between atoms: C_4  and  C_5
REMARK    3  A    between atoms: C_5  and  O_7
REMARK                            x       y       z     vdW  Elec       q    Type
REMARK                         _______ _______ _______ _____ _____    ______ ____
ROOT
ATOM      1  C   UNL     1       4.297   6.738  17.354  0.00  0.00    +0.000 C 
ATOM      2  N   UNL     1       3.601   5.775  18.201  0.00  0.00    +0.000 N 
ATOM      3  C   UNL     1       3.879   4.420  18.219  0.00  0.00    +0.000 A 
ATOM      4  C   UNL     1       3.323   3.515  19.036  0.00  0.00    +0.000 A 
ATOM      5  C   UNL     1       2.346   4.029  20.012  0.00  0.00    +0.000 A 
ATOM      6  O   UNL     1       1.756   3.247  20.762  0.00  0.00    +0.000 OA
ATOM      7  C   UNL     1       2.099   5.478  20.069  0.00  0.00    +0.000 A 
ATOM      8  C   UNL     1       1.270   5.991  21.053  0.00  0.00    +0.000 A 
ATOM      9  C   UNL     1       1.021   7.352  21.058  0.00  0.00    +0.000 A 
ATOM     10  C   UNL     1       1.566   8.166  20.064  0.00  0.00    +0.000 A 
ATOM     11  N   UNL     1       1.141   9.480  20.017  0.00  0.00    +0.000 N 
ATOM     12  C   UNL     1       1.147  10.208  18.744  0.00  0.00    +0.000 C 
ATOM     13  C   UNL     1       0.032  11.294  18.791  0.00  0.00    +0.000 C 
ATOM     14  N   UNL     1       0.171  12.134  19.991  0.00  0.00    +0.000 N 
ATOM     15  C   UNL     1       0.002  13.482  20.024  0.00  0.00    +0.000 A 
ATOM     16  N   UNL     1       0.159  14.176  21.131  0.00  0.00    +0.000 NA
ATOM     17  C   UNL     1       0.071  15.531  20.897  0.00  0.00    +0.000 A 
ATOM     18  C   UNL     1       0.272  16.544  21.856  0.00  0.00    +0.000 A 
ATOM     19  C   UNL     1       0.189  17.885  21.473  0.00  0.00    +0.000 A 
ATOM     20  C   UNL     1      -0.113  18.222  20.158  0.00  0.00    +0.000 A 
ATOM     21  C   UNL     1      -0.335  17.233  19.193  0.00  0.00    +0.000 A 
ATOM     22  C   UNL     1      -0.226  15.889  19.586  0.00  0.00    +0.000 A 
ATOM     23  S   UNL     1      -0.393  14.458  18.651  0.00  0.00    +0.000 S 
ATOM     24  C   UNL     1       0.277  11.403  21.267  0.00  0.00    +0.000 C 
ATOM     25  C   UNL     1       1.392  10.341  21.185  0.00  0.00    +0.000 C 
ATOM     26  N   UNL     1       2.393   7.663  19.116  0.00  0.00    +0.000 NA
ATOM     27  C   UNL     1       2.687   6.333  19.132  0.00  0.00    +0.000 A 
ENDROOT
BRANCH   4  28
ATOM     28  C   UNL     1       3.696   2.089  18.935  0.00  0.00    +0.000 C 
ATOM     29  O   UNL     1       4.591   1.582  19.597  0.00  0.00    +0.000 OA
BRANCH  28  30
ATOM     30  O   UNL     1       2.967   1.380  18.045  0.00  0.00    +0.000 OA
ATOM     31  H   UNL     1       2.054   1.730  17.898  0.00  0.00    +0.000 HD
ENDBRANCH  28  30
ENDBRANCH   4  28
TORSDOF 2
ENDMDL
MODEL 7
REMARK VINA RESULT:      -7.2      5.482     11.159
REMARK  Name = 
REMARK  3 active torsions:
REMARK  status: ('A' for Active; 'I' for Inactive)
REMARK    1  A    between atoms: C_1  and  N_2
REMARK    2  A    between atoms: C_4  and  C_5
REMARK    3  A    between atoms: C_5  and  O_7
REMARK                            x       y       z     vdW  Elec       q    Type
REMARK                         _______ _______ _______ _____ _____    ______ ____
ROOT
ATOM      1  C   UNL     1      -5.193  13.076  19.679  0.00  0.00    +0.000 C 
ATOM      2  N   UNL     1      -4.832  13.865  20.851  0.00  0.00    +0.000 N 
ATOM      3  C   UNL     1      -5.625  14.868  21.381  0.00  0.00    +0.000 A 
ATOM      4  C   UNL     1      -5.371  15.561  22.499  0.00  0.00    +0.000 A 
ATOM      5  C   UNL     1      -4.146  15.195  23.231  0.00  0.00    +0.000 A 
ATOM      6  O   UNL     1      -3.821  15.824  24.242  0.00  0.00    +0.000 OA
ATOM      7  C   UNL     1      -3.333  14.075  22.733  0.00  0.00    +0.000 A 
ATOM      8  C   UNL     1      -2.240  13.644  23.468  0.00  0.00    +0.000 A 
ATOM      9  C   UNL     1      -1.469  12.616  22.956  0.00  0.00    +0.000 A 
ATOM     10  C   UNL     1      -1.774  12.067  21.710  0.00  0.00    +0.000 A 
ATOM     11  N   UNL     1      -0.868  11.171  21.173  0.00  0.00    +0.000 N 
ATOM     12  C   UNL     1      -0.758  11.022  19.718  0.00  0.00    +0.000 C 
ATOM     13  C   UNL     1       0.694  10.574  19.376  0.00  0.00    +0.000 C 
ATOM     14  N   UNL     1       1.071   9.385  20.156  0.00  0.00    +0.000 N 
ATOM     15  C   UNL     1       1.769   8.323  19.672  0.00  0.00    +0.000 A 
ATOM     16  N   UNL     1       2.058   7.281  20.422  0.00  0.00    +0.000 NA
ATOM     17  C   UNL     1       2.648   6.276  19.686  0.00  0.00    +0.000 A 
ATOM     18  C   UNL     1       3.004   5.003  20.175  0.00  0.00    +0.000 A 
ATOM     19  C   UNL     1       3.564   4.061  19.308  0.00  0.00    +0.000 A 
ATOM     20  C   UNL     1       3.791   4.383  17.974  0.00  0.00    +0.000 A 
ATOM     21  C   UNL     1       3.463   5.648  17.472  0.00  0.00    +0.000 A 
ATOM     22  C   UNL     1       2.879   6.577  18.349  0.00  0.00    +0.000 A 
ATOM     23  S   UNL     1       2.328   8.175  18.042  0.00  0.00    +0.000 S 
ATOM     24  C   UNL     1       0.857   9.487  21.612  0.00  0.00    +0.000 C 
ATOM     25  C   UNL     1      -0.589   9.928  21.912  0.00  0.00    +0.000 C 
ATOM     26  N   UNL     1      -2.855  12.477  21.004  0.00  0.00    +0.000 NA
ATOM     27  C   UNL     1      -3.652  13.452  21.522  0.00  0.00    +0.000 A 
ENDROOT
BRANCH   4  28
ATOM     28  C   UNL     1      -6.294  16.625  22.944  0.00  0.00    +0.000 C 
ATOM     29  O   UNL     1      -7.511  16.541  22.845  0.00  0.00    +0.000 OA
BRANCH  28  30
ATOM     30  O   UNL     1      -5.687  17.711  23.471  0.00  0.00    +0.000 OA
ATOM     31  H   UNL     1      -6.116  18.570  23.235  0.00  0.00    +0.000 HD
ENDBRANCH  28  30
ENDBRANCH   4  28
TORSDOF 2
ENDMDL
MODEL 8
REMARK VINA RESULT:      -7.1      4.969     10.782
REMARK  Name = 
REMARK  3 active torsions:
REMARK  status: ('A' for Active; 'I' for Inactive)
REMARK    1  A    between atoms: C_1  and  N_2
REMARK    2  A    between atoms: C_4  and  C_5
REMARK    3  A    between atoms: C_5  and  O_7
REMARK                            x       y       z     vdW  Elec       q    Type
REMARK                         _______ _______ _______ _____ _____    ______ ____
ROOT
ATOM      1  C   UNL     1      -0.797  12.918  23.042  0.00  0.00    +0.000 C 
ATOM      2  N   UNL     1      -1.967  13.004  22.176  0.00  0.00    +0.000 N 
ATOM      3  C   UNL     1      -3.037  13.852  22.403  0.00  0.00    +0.000 A 
ATOM      4  C   UNL     1      -4.091  14.021  21.594  0.00  0.00    +0.000 A 
ATOM      5  C   UNL     1      -4.085  13.244  20.342  0.00  0.00    +0.000 A 
ATOM      6  O   UNL     1      -5.047  13.310  19.572  0.00  0.00    +0.000 OA
ATOM      7  C   UNL     1      -2.919  12.401  20.039  0.00  0.00    +0.000 A 
ATOM      8  C   UNL     1      -2.844  11.751  18.817  0.00  0.00    +0.000 A 
ATOM      9  C   UNL     1      -1.757  10.932  18.575  0.00  0.00    +0.000 A 
ATOM     10  C   UNL     1      -0.789  10.744  19.562  0.00  0.00    +0.000 A 
ATOM     11  N   UNL     1       0.175   9.780  19.330  0.00  0.00    +0.000 N 
ATOM     12  C   UNL     1       0.814   9.094  20.458  0.00  0.00    +0.000 C 
ATOM     13  C   UNL     1       1.254   7.677  19.988  0.00  0.00    +0.000 C 
ATOM     14  N   UNL     1       2.070   7.762  18.766  0.00  0.00    +0.000 N 
ATOM     15  C   UNL     1       3.184   7.023  18.518  0.00  0.00    +0.000 A 
ATOM     16  N   UNL     1       3.878   7.163  17.409  0.00  0.00    +0.000 NA
ATOM     17  C   UNL     1       5.035   6.413  17.438  0.00  0.00    +0.000 A 
ATOM     18  C   UNL     1       6.031   6.405  16.441  0.00  0.00    +0.000 A 
ATOM     19  C   UNL     1       7.176   5.623  16.615  0.00  0.00    +0.000 A 
ATOM     20  C   UNL     1       7.325   4.839  17.754  0.00  0.00    +0.000 A 
ATOM     21  C   UNL     1       6.339   4.818  18.748  0.00  0.00    +0.000 A 
ATOM     22  C   UNL     1       5.204   5.626  18.571  0.00  0.00    +0.000 A 
ATOM     23  S   UNL     1       3.853   5.858  19.607  0.00  0.00    +0.000 S 
ATOM     24  C   UNL     1       1.481   8.546  17.664  0.00  0.00    +0.000 C 
ATOM     25  C   UNL     1       1.061   9.942  18.165  0.00  0.00    +0.000 C 
ATOM     26  N   UNL     1      -0.854  11.397  20.747  0.00  0.00    +0.000 NA
ATOM     27  C   UNL     1      -1.894  12.247  20.977  0.00  0.00    +0.000 A 
ENDROOT
BRANCH   4  28
ATOM     28  C   UNL     1      -5.179  14.947  21.969  0.00  0.00    +0.000 C 
ATOM     29  O   UNL     1      -5.713  14.942  23.070  0.00  0.00    +0.000 OA
BRANCH  28  30
ATOM     30  O   UNL     1      -5.545  15.808  20.994  0.00  0.00    +0.000 OA
ATOM     31  H   UNL     1      -5.485  16.761  21.251  0.00  0.00    +0.000 HD
ENDBRANCH  28  30
ENDBRANCH   4  28
TORSDOF 2
ENDMDL
MODEL 9
REMARK VINA RESULT:      -6.8      5.340     10.966
REMARK  Name = 
REMARK  3 active torsions:
REMARK  status: ('A' for Active; 'I' for Inactive)
REMARK    1  A    between atoms: C_1  and  N_2
REMARK    2  A    between atoms: C_4  and  C_5
REMARK    3  A    between atoms: C_5  and  O_7
REMARK                            x       y       z     vdW  Elec       q    Type
REMARK                         _______ _______ _______ _____ _____    ______ ____
ROOT
ATOM      1  C   UNL     1      -5.094  11.572  17.583  0.00  0.00    +0.000 C 
ATOM      2  N   UNL     1      -4.952  12.537  18.667  0.00  0.00    +0.000 N 
ATOM      3  C   UNL     1      -5.911  13.480  18.994  0.00  0.00    +0.000 A 
ATOM      4  C   UNL     1      -5.857  14.329  20.028  0.00  0.00    +0.000 A 
ATOM      5  C   UNL     1      -4.676  14.222  20.901  0.00  0.00    +0.000 A 
ATOM      6  O   UNL     1      -4.534  15.006  21.844  0.00  0.00    +0.000 OA
ATOM      7  C   UNL     1      -3.685  13.171  20.624  0.00  0.00    +0.000 A 
ATOM      8  C   UNL     1      -2.626  12.982  21.498  0.00  0.00    +0.000 A 
ATOM      9  C   UNL     1      -1.687  12.015  21.191  0.00  0.00    +0.000 A 
ATOM     10  C   UNL     1      -1.795  11.284  20.007  0.00  0.00    +0.000 A 
ATOM     11  N   UNL     1      -0.737  10.462  19.670  0.00  0.00    +0.000 N 
ATOM     12  C   UNL     1      -0.464  10.157  18.262  0.00  0.00    +0.000 C 
ATOM     13  C   UNL     1       1.058   9.871  18.104  0.00  0.00    +0.000 C 
ATOM     14  N   UNL     1       1.500   8.845  19.062  0.00  0.00    +0.000 N 
ATOM     15  C   UNL     1       2.368   7.838  18.782  0.00  0.00    +0.000 A 
ATOM     16  N   UNL     1       2.707   6.941  19.683  0.00  0.00    +0.000 NA
ATOM     17  C   UNL     1       3.488   5.945  19.138  0.00  0.00    +0.000 A 
ATOM     18  C   UNL     1       3.948   4.799  19.818  0.00  0.00    +0.000 A 
ATOM     19  C   UNL     1       4.704   3.845  19.132  0.00  0.00    +0.000 A 
ATOM     20  C   UNL     1       5.021   4.033  17.791  0.00  0.00    +0.000 A 
ATOM     21  C   UNL     1       4.591   5.173  17.101  0.00  0.00    +0.000 A 
ATOM     22  C   UNL     1       3.812   6.112  17.796  0.00  0.00    +0.000 A 
ATOM     23  S   UNL     1       3.101   7.573  17.238  0.00  0.00    +0.000 S 
ATOM     24  C   UNL     1       1.131   9.091  20.469  0.00  0.00    +0.000 C 
ATOM     25  C   UNL     1      -0.382   9.365  20.587  0.00  0.00    +0.000 C 
ATOM     26  N   UNL     1      -2.844  11.457  19.166  0.00  0.00    +0.000 NA
ATOM     27  C   UNL     1      -3.802  12.371  19.483  0.00  0.00    +0.000 A 
ENDROOT
BRANCH   4  28
ATOM     28  C   UNL     1      -6.945  15.304  20.250  0.00  0.00    +0.000 C 
ATOM     29  O   UNL     1      -7.115  16.291  19.546  0.00  0.00    +0.000 OA
BRANCH  28  30
ATOM     30  O   UNL     1      -7.745  15.023  21.302  0.00  0.00    +0.000 OA
ATOM     31  H   UNL     1      -7.730  14.074  21.581  0.00  0.00    +0.000 HD
ENDBRANCH  28  30
ENDBRANCH   4  28
TORSDOF 2
ENDMDL
