MODEL 1
REMARK VINA RESULT:      -7.1      0.000      0.000
REMARK  Name = 
REMARK  3 active torsions:
REMARK  status: ('A' for Active; 'I' for Inactive)
REMARK    1  A    between atoms: C_1  and  N_2
REMARK    2  A    between atoms: C_4  and  C_5
REMARK    3  A    between atoms: N_15  and  C_16
REMARK                            x       y       z     vdW  Elec       q    Type
REMARK                         _______ _______ _______ _____ _____    ______ ____
ROOT
ATOM      1  C   UNL     1       4.624  15.352  18.597  0.00  0.00    +0.000 A 
ATOM      2  C   UNL     1       4.274  16.689  18.493  0.00  0.00    +0.000 A 
ATOM      3  N   UNL     1       2.994  17.149  18.475  0.00  0.00    +0.000 NA
ATOM      4  C   UNL     1       2.007  16.234  18.573  0.00  0.00    +0.000 A 
ATOM      5  C   UNL     1       0.663  16.590  18.552  0.00  0.00    +0.000 A 
ATOM      6  C   UNL     1      -0.348  15.623  18.648  0.00  0.00    +0.000 A 
ATOM      7  C   UNL     1       0.028  14.297  18.778  0.00  0.00    +0.000 A 
ATOM      8  N   UNL     1      -0.946  13.299  18.859  0.00  0.00    +0.000 N 
ATOM      9  C   UNL     1      -0.750  11.939  18.951  0.00  0.00    +0.000 C 
ATOM     10  O   UNL     1      -1.739  11.211  18.932  0.00  0.00    +0.000 OA
ATOM     11  N   UNL     1       0.551  11.528  19.080  0.00  0.00    +0.000 N 
ATOM     12  N   UNL     1       1.320  13.927  18.817  0.00  0.00    +0.000 NA
ATOM     13  C   UNL     1       2.267  14.861  18.700  0.00  0.00    +0.000 A 
ATOM     14  C   UNL     1       3.580  14.438  18.704  0.00  0.00    +0.000 A 
ATOM     15  H   UNL     1      -1.920  13.556  18.799  0.00  0.00    +0.000 HD
ATOM     16  H   UNL     1       1.207  12.291  19.222  0.00  0.00    +0.000 HD
ENDROOT
BRANCH   1  20
ATOM     17  C   UNL     1       9.292  14.467  20.036  0.00  0.00    +0.000 C 
ATOM     18  N   UNL     1       8.066  14.522  19.276  0.00  0.00    +0.000 N 
ATOM     19  C   UNL     1       6.872  15.044  19.683  0.00  0.00    +0.000 A 
ATOM     20  C   UNL     1       6.004  14.904  18.615  0.00  0.00    +0.000 A 
ATOM     21  C   UNL     1       6.785  14.274  17.622  0.00  0.00    +0.000 A 
ATOM     22  N   UNL     1       8.038  14.041  18.022  0.00  0.00    +0.000 NA
ENDBRANCH   1  20
BRANCH  11  23
ATOM     23  C   UNL     1       1.079  10.232  19.104  0.00  0.00    +0.000 A 
ATOM     24  C   UNL     1       1.011   9.404  20.221  0.00  0.00    +0.000 A 
ATOM     25  C   UNL     1       1.573   8.125  20.183  0.00  0.00    +0.000 A 
ATOM     26  C   UNL     1       2.206   7.670  19.028  0.00  0.00    +0.000 A 
ATOM     27  C   UNL     1       2.255   8.482  17.897  0.00  0.00    +0.000 A 
ATOM     28  C   UNL     1       1.683   9.755  17.931  0.00  0.00    +0.000 A 
ENDBRANCH  11  23
TORSDOF 2
ENDMDL
MODEL 2
REMARK VINA RESULT:      -7.0      0.525      1.302
REMARK  Name = 
REMARK  3 active torsions:
REMARK  status: ('A' for Active; 'I' for Inactive)
REMARK    1  A    between atoms: C_1  and  N_2
REMARK    2  A    between atoms: C_4  and  C_5
REMARK    3  A    between atoms: N_15  and  C_16
REMARK                            x       y       z     vdW  Elec       q    Type
REMARK                         _______ _______ _______ _____ _____    ______ ____
ROOT
ATOM      1  C   UNL     1       4.603  15.395  18.801  0.00  0.00    +0.000 A 
ATOM      2  C   UNL     1       4.225  16.727  18.725  0.00  0.00    +0.000 A 
ATOM      3  N   UNL     1       2.937  17.156  18.649  0.00  0.00    +0.000 NA
ATOM      4  C   UNL     1       1.970  16.216  18.658  0.00  0.00    +0.000 A 
ATOM      5  C   UNL     1       0.620  16.541  18.571  0.00  0.00    +0.000 A 
ATOM      6  C   UNL     1      -0.370  15.548  18.575  0.00  0.00    +0.000 A 
ATOM      7  C   UNL     1       0.031  14.228  18.680  0.00  0.00    +0.000 A 
ATOM      8  N   UNL     1      -0.920  13.204  18.670  0.00  0.00    +0.000 N 
ATOM      9  C   UNL     1      -0.695  11.847  18.725  0.00  0.00    +0.000 C 
ATOM     10  O   UNL     1      -1.663  11.097  18.623  0.00  0.00    +0.000 OA
ATOM     11  N   UNL     1       0.606  11.462  18.915  0.00  0.00    +0.000 N 
ATOM     12  N   UNL     1       1.328  13.886  18.780  0.00  0.00    +0.000 NA
ATOM     13  C   UNL     1       2.257  14.846  18.751  0.00  0.00    +0.000 A 
ATOM     14  C   UNL     1       3.577  14.453  18.816  0.00  0.00    +0.000 A 
ATOM     15  H   UNL     1      -1.895  13.441  18.562  0.00  0.00    +0.000 HD
ATOM     16  H   UNL     1       1.234  12.234  19.120  0.00  0.00    +0.000 HD
ENDROOT
BRANCH   1  20
ATOM     17  C   UNL     1       9.079  13.594  17.637  0.00  0.00    +0.000 C 
ATOM     18  N   UNL     1       7.965  14.179  18.344  0.00  0.00    +0.000 N 
ATOM     19  C   UNL     1       6.731  14.466  17.836  0.00  0.00    +0.000 A 
ATOM     20  C   UNL     1       5.990  14.979  18.884  0.00  0.00    +0.000 A 
ATOM     21  C   UNL     1       6.886  14.962  19.975  0.00  0.00    +0.000 A 
ATOM     22  N   UNL     1       8.087  14.476  19.649  0.00  0.00    +0.000 NA
ENDBRANCH   1  20
BRANCH  11  23
ATOM     23  C   UNL     1       1.165  10.178  18.924  0.00  0.00    +0.000 A 
ATOM     24  C   UNL     1       1.816   9.625  17.825  0.00  0.00    +0.000 A 
ATOM     25  C   UNL     1       2.337   8.331  17.896  0.00  0.00    +0.000 A 
ATOM     26  C   UNL     1       2.206   7.584  19.065  0.00  0.00    +0.000 A 
ATOM     27  C   UNL     1       1.580   8.140  20.178  0.00  0.00    +0.000 A 
ATOM     28  C   UNL     1       1.070   9.438  20.111  0.00  0.00    +0.000 A 
ENDBRANCH  11  23
TORSDOF 2
ENDMDL
MODEL 3
REMARK VINA RESULT:      -6.9      5.411      8.745
REMARK  Name = 
REMARK  3 active torsions:
REMARK  status: ('A' for Active; 'I' for Inactive)
REMARK    1  A    between atoms: C_1  and  N_2
REMARK    2  A    between atoms: C_4  and  C_5
REMARK    3  A    between atoms: N_15  and  C_16
REMARK                            x       y       z     vdW  Elec       q    Type
REMARK                         _______ _______ _______ _____ _____    ______ ____
ROOT
ATOM      1  C   UNL     1      -5.535  13.205  22.143  0.00  0.00    +0.000 A 
ATOM      2  C   UNL     1      -6.890  13.475  22.023  0.00  0.00    +0.000 A 
ATOM      3  N   UNL     1      -7.606  13.314  20.878  0.00  0.00    +0.000 NA
ATOM      4  C   UNL     1      -6.947  12.852  19.796  0.00  0.00    +0.000 A 
ATOM      5  C   UNL     1      -7.576  12.662  18.570  0.00  0.00    +0.000 A 
ATOM      6  C   UNL     1      -6.871  12.187  17.455  0.00  0.00    +0.000 A 
ATOM      7  C   UNL     1      -5.526  11.899  17.608  0.00  0.00    +0.000 A 
ATOM      8  N   UNL     1      -4.780  11.441  16.519  0.00  0.00    +0.000 N 
ATOM      9  C   UNL     1      -3.435  11.146  16.485  0.00  0.00    +0.000 C 
ATOM     10  O   UNL     1      -2.941  10.830  15.406  0.00  0.00    +0.000 OA
ATOM     11  N   UNL     1      -2.777  11.213  17.685  0.00  0.00    +0.000 N 
ATOM     12  N   UNL     1      -4.896  12.059  18.785  0.00  0.00    +0.000 NA
ATOM     13  C   UNL     1      -5.580  12.534  19.829  0.00  0.00    +0.000 A 
ATOM     14  C   UNL     1      -4.890  12.722  21.008  0.00  0.00    +0.000 A 
ATOM     15  H   UNL     1      -5.230  11.346  15.621  0.00  0.00    +0.000 HD
ATOM     16  H   UNL     1      -3.393  11.349  18.481  0.00  0.00    +0.000 HD
ENDROOT
BRANCH   1  20
ATOM     17  C   UNL     1      -2.593  15.088  25.670  0.00  0.00    +0.000 C 
ATOM     18  N   UNL     1      -3.502  14.243  24.933  0.00  0.00    +0.000 N 
ATOM     19  C   UNL     1      -4.021  14.482  23.693  0.00  0.00    +0.000 A 
ATOM     20  C   UNL     1      -4.809  13.388  23.386  0.00  0.00    +0.000 A 
ATOM     21  C   UNL     1      -4.695  12.556  24.521  0.00  0.00    +0.000 A 
ATOM     22  N   UNL     1      -3.901  13.074  25.462  0.00  0.00    +0.000 NA
ENDBRANCH   1  20
BRANCH  11  23
ATOM     23  C   UNL     1      -1.413  11.063  17.963  0.00  0.00    +0.000 A 
ATOM     24  C   UNL     1      -0.729   9.863  17.789  0.00  0.00    +0.000 A 
ATOM     25  C   UNL     1       0.629   9.778  18.101  0.00  0.00    +0.000 A 
ATOM     26  C   UNL     1       1.309  10.891  18.592  0.00  0.00    +0.000 A 
ATOM     27  C   UNL     1       0.639  12.103  18.744  0.00  0.00    +0.000 A 
ATOM     28  C   UNL     1      -0.716  12.192  18.420  0.00  0.00    +0.000 A 
ENDBRANCH  11  23
TORSDOF 2
ENDMDL
MODEL 4
REMARK VINA RESULT:      -6.7      6.187      9.222
REMARK  Name = 
REMARK  3 active torsions:
REMARK  status: ('A' for Active; 'I' for Inactive)
REMARK    1  A    between atoms: C_1  and  N_2
REMARK    2  A    between atoms: C_4  and  C_5
REMARK    3  A    between atoms: N_15  and  C_16
REMARK                            x       y       z     vdW  Elec       q    Type
REMARK                         _______ _______ _______ _____ _____    ______ ____
ROOT
ATOM      1  C   UNL     1      -6.046  12.320  19.472  0.00  0.00    +0.000 A 
ATOM      2  C   UNL     1      -6.691  12.596  18.277  0.00  0.00    +0.000 A 
ATOM      3  N   UNL     1      -6.160  12.367  17.047  0.00  0.00    +0.000 NA
ATOM      4  C   UNL     1      -4.925  11.826  16.997  0.00  0.00    +0.000 A 
ATOM      5  C   UNL     1      -4.280  11.561  15.794  0.00  0.00    +0.000 A 
ATOM      6  C   UNL     1      -2.993  11.006  15.764  0.00  0.00    +0.000 A 
ATOM      7  C   UNL     1      -2.380  10.714  16.970  0.00  0.00    +0.000 A 
ATOM      8  N   UNL     1      -1.091  10.176  16.988  0.00  0.00    +0.000 N 
ATOM      9  C   UNL     1      -0.325   9.866  18.090  0.00  0.00    +0.000 C 
ATOM     10  O   UNL     1       0.823   9.473  17.902  0.00  0.00    +0.000 OA
ATOM     11  N   UNL     1      -0.940  10.006  19.306  0.00  0.00    +0.000 N 
ATOM     12  N   UNL     1      -2.986  10.946  18.148  0.00  0.00    +0.000 NA
ATOM     13  C   UNL     1      -4.203  11.497  18.155  0.00  0.00    +0.000 A 
ATOM     14  C   UNL     1      -4.776  11.756  19.382  0.00  0.00    +0.000 A 
ATOM     15  H   UNL     1      -0.609  10.027  16.115  0.00  0.00    +0.000 HD
ATOM     16  H   UNL     1      -1.934  10.202  19.240  0.00  0.00    +0.000 HD
ENDROOT
BRANCH   1  20
ATOM     17  C   UNL     1      -7.136  14.366  23.862  0.00  0.00    +0.000 C 
ATOM     18  N   UNL     1      -7.117  13.504  22.704  0.00  0.00    +0.000 N 
ATOM     19  C   UNL     1      -6.357  13.656  21.580  0.00  0.00    +0.000 A 
ATOM     20  C   UNL     1      -6.650  12.578  20.766  0.00  0.00    +0.000 A 
ATOM     21  C   UNL     1      -7.610  11.847  21.500  0.00  0.00    +0.000 A 
ATOM     22  N   UNL     1      -7.894  12.408  22.678  0.00  0.00    +0.000 NA
ENDBRANCH   1  20
BRANCH  11  23
ATOM     23  C   UNL     1      -0.412   9.861  20.595  0.00  0.00    +0.000 A 
ATOM     24  C   UNL     1      -0.859  10.598  21.687  0.00  0.00    +0.000 A 
ATOM     25  C   UNL     1      -0.277  10.415  22.944  0.00  0.00    +0.000 A 
ATOM     26  C   UNL     1       0.756   9.494  23.112  0.00  0.00    +0.000 A 
ATOM     27  C   UNL     1       1.191   8.733  22.030  0.00  0.00    +0.000 A 
ATOM     28  C   UNL     1       0.601   8.908  20.777  0.00  0.00    +0.000 A 
ENDBRANCH  11  23
TORSDOF 2
ENDMDL
MODEL 5
REMARK VINA RESULT:      -6.7      2.515      3.374
REMARK  Name = 
REMARK  3 active torsions:
REMARK  status: ('A' for Active; 'I' for Inactive)
REMARK    1  A    between atoms: C_1  and  N_2
REMARK    2  A    between atoms: C_4  and  C_5
REMARK    3  A    between atoms: N_15  and  C_16
REMARK                            x       y       z     vdW  Elec       q    Type
REMARK                         _______ _______ _______ _____ _____    ______ ____
ROOT
ATOM      1  C   UNL     1       2.457  14.691  20.254  0.00  0.00    +0.000 A 
ATOM      2  C   UNL     1       1.812  15.675  20.987  0.00  0.00    +0.000 A 
ATOM      3  N   UNL     1       0.774  15.445  21.835  0.00  0.00    +0.000 NA
ATOM      4  C   UNL     1       0.357  14.170  21.971  0.00  0.00    +0.000 A 
ATOM      5  C   UNL     1      -0.704  13.821  22.800  0.00  0.00    +0.000 A 
ATOM      6  C   UNL     1      -1.127  12.490  22.921  0.00  0.00    +0.000 A 
ATOM      7  C   UNL     1      -0.450  11.522  22.200  0.00  0.00    +0.000 A 
ATOM      8  N   UNL     1      -0.848  10.185  22.276  0.00  0.00    +0.000 N 
ATOM      9  C   UNL     1      -0.316   9.109  21.602  0.00  0.00    +0.000 C 
ATOM     10  O   UNL     1      -0.857   8.016  21.742  0.00  0.00    +0.000 OA
ATOM     11  N   UNL     1       0.799   9.367  20.847  0.00  0.00    +0.000 N 
ATOM     12  N   UNL     1       0.589  11.829  21.403  0.00  0.00    +0.000 NA
ATOM     13  C   UNL     1       0.961  13.106  21.283  0.00  0.00    +0.000 A 
ATOM     14  C   UNL     1       2.004  13.386  20.425  0.00  0.00    +0.000 A 
ATOM     15  H   UNL     1      -1.646   9.942  22.844  0.00  0.00    +0.000 HD
ATOM     16  H   UNL     1       1.174  10.301  20.979  0.00  0.00    +0.000 HD
ENDROOT
BRANCH   1  20
ATOM     17  C   UNL     1       6.932  15.968  18.527  0.00  0.00    +0.000 C 
ATOM     18  N   UNL     1       5.555  15.546  18.622  0.00  0.00    +0.000 N 
ATOM     19  C   UNL     1       4.837  15.339  19.764  0.00  0.00    +0.000 A 
ATOM     20  C   UNL     1       3.564  14.979  19.362  0.00  0.00    +0.000 A 
ATOM     21  C   UNL     1       3.635  14.993  17.952  0.00  0.00    +0.000 A 
ATOM     22  N   UNL     1       4.844  15.338  17.500  0.00  0.00    +0.000 NA
ENDBRANCH   1  20
BRANCH  11  23
ATOM     23  C   UNL     1       1.508   8.521  19.986  0.00  0.00    +0.000 A 
ATOM     24  C   UNL     1       1.983   7.270  20.371  0.00  0.00    +0.000 A 
ATOM     25  C   UNL     1       2.698   6.482  19.466  0.00  0.00    +0.000 A 
ATOM     26  C   UNL     1       2.943   6.942  18.173  0.00  0.00    +0.000 A 
ATOM     27  C   UNL     1       2.447   8.181  17.772  0.00  0.00    +0.000 A 
ATOM     28  C   UNL     1       1.722   8.963  18.672  0.00  0.00    +0.000 A 
ENDBRANCH  11  23
TORSDOF 2
ENDMDL
MODEL 6
REMARK VINA RESULT:      -6.7      5.171      8.729
REMARK  Name = 
REMARK  3 active torsions:
REMARK  status: ('A' for Active; 'I' for Inactive)
REMARK    1  A    between atoms: C_1  and  N_2
REMARK    2  A    between atoms: C_4  and  C_5
REMARK    3  A    between atoms: N_15  and  C_16
REMARK                            x       y       z     vdW  Elec       q    Type
REMARK                         _______ _______ _______ _____ _____    ______ ____
ROOT
ATOM      1  C   UNL     1      -5.579  14.272  22.099  0.00  0.00    +0.000 A 
ATOM      2  C   UNL     1      -6.961  14.231  22.001  0.00  0.00    +0.000 A 
ATOM      3  N   UNL     1      -7.642  13.646  20.980  0.00  0.00    +0.000 NA
ATOM      4  C   UNL     1      -6.914  13.062  20.006  0.00  0.00    +0.000 A 
ATOM      5  C   UNL     1      -7.504  12.445  18.908  0.00  0.00    +0.000 A 
ATOM      6  C   UNL     1      -6.729  11.850  17.902  0.00  0.00    +0.000 A 
ATOM      7  C   UNL     1      -5.353  11.880  18.036  0.00  0.00    +0.000 A 
ATOM      8  N   UNL     1      -4.541  11.315  17.050  0.00  0.00    +0.000 N 
ATOM      9  C   UNL     1      -3.165  11.292  17.004  0.00  0.00    +0.000 C 
ATOM     10  O   UNL     1      -2.628  10.814  16.008  0.00  0.00    +0.000 OA
ATOM     11  N   UNL     1      -2.520  11.791  18.106  0.00  0.00    +0.000 N 
ATOM     12  N   UNL     1      -4.755  12.456  19.095  0.00  0.00    +0.000 NA
ATOM     13  C   UNL     1      -5.511  13.038  20.030  0.00  0.00    +0.000 A 
ATOM     14  C   UNL     1      -4.861  13.652  21.079  0.00  0.00    +0.000 A 
ATOM     15  H   UNL     1      -4.972  10.908  16.233  0.00  0.00    +0.000 HD
ATOM     16  H   UNL     1      -3.142  12.002  18.881  0.00  0.00    +0.000 HD
ENDROOT
BRANCH   1  20
ATOM     17  C   UNL     1      -2.284  15.263  25.677  0.00  0.00    +0.000 C 
ATOM     18  N   UNL     1      -3.418  15.324  24.785  0.00  0.00    +0.000 N 
ATOM     19  C   UNL     1      -3.695  14.476  23.752  0.00  0.00    +0.000 A 
ATOM     20  C   UNL     1      -4.891  14.905  23.209  0.00  0.00    +0.000 A 
ATOM     21  C   UNL     1      -5.238  16.028  23.991  0.00  0.00    +0.000 A 
ATOM     22  N   UNL     1      -4.343  16.284  24.950  0.00  0.00    +0.000 NA
ENDBRANCH   1  20
BRANCH  11  23
ATOM     23  C   UNL     1      -1.152  11.988  18.326  0.00  0.00    +0.000 A 
ATOM     24  C   UNL     1      -0.551  13.243  18.305  0.00  0.00    +0.000 A 
ATOM     25  C   UNL     1       0.824  13.368  18.517  0.00  0.00    +0.000 A 
ATOM     26  C   UNL     1       1.604  12.236  18.748  0.00  0.00    +0.000 A 
ATOM     27  C   UNL     1       1.007  10.979  18.798  0.00  0.00    +0.000 A 
ATOM     28  C   UNL     1      -0.369  10.856  18.598  0.00  0.00    +0.000 A 
ENDBRANCH  11  23
TORSDOF 2
ENDMDL
MODEL 7
REMARK VINA RESULT:      -6.7      3.192      7.048
REMARK  Name = 
REMARK  3 active torsions:
REMARK  status: ('A' for Active; 'I' for Inactive)
REMARK    1  A    between atoms: C_1  and  N_2
REMARK    2  A    between atoms: C_4  and  C_5
REMARK    3  A    between atoms: N_15  and  C_16
REMARK                            x       y       z     vdW  Elec       q    Type
REMARK                         _______ _______ _______ _____ _____    ______ ____
ROOT
ATOM      1  C   UNL     1       0.960   9.098  20.407  0.00  0.00    +0.000 A 
ATOM      2  C   UNL     1       0.188   8.447  21.357  0.00  0.00    +0.000 A 
ATOM      3  N   UNL     1      -0.585   9.077  22.281  0.00  0.00    +0.000 NA
ATOM      4  C   UNL     1      -0.602  10.425  22.258  0.00  0.00    +0.000 A 
ATOM      5  C   UNL     1      -1.346  11.173  23.165  0.00  0.00    +0.000 A 
ATOM      6  C   UNL     1      -1.344  12.574  23.129  0.00  0.00    +0.000 A 
ATOM      7  C   UNL     1      -0.587  13.200  22.155  0.00  0.00    +0.000 A 
ATOM      8  N   UNL     1      -0.541  14.595  22.093  0.00  0.00    +0.000 N 
ATOM      9  C   UNL     1       0.186  15.375  21.220  0.00  0.00    +0.000 C 
ATOM     10  O   UNL     1       0.157  16.593  21.375  0.00  0.00    +0.000 OA
ATOM     11  N   UNL     1       0.860  14.703  20.235  0.00  0.00    +0.000 N 
ATOM     12  N   UNL     1       0.130  12.503  21.256  0.00  0.00    +0.000 NA
ATOM     13  C   UNL     1       0.133  11.169  21.322  0.00  0.00    +0.000 A 
ATOM     14  C   UNL     1       0.912  10.490  20.409  0.00  0.00    +0.000 A 
ATOM     15  H   UNL     1      -1.047  15.134  22.779  0.00  0.00    +0.000 HD
ATOM     16  H   UNL     1       0.638  13.713  20.192  0.00  0.00    +0.000 HD
ENDROOT
BRANCH   1  20
ATOM     17  C   UNL     1       3.805   5.665  18.225  0.00  0.00    +0.000 C 
ATOM     18  N   UNL     1       3.026   6.851  18.490  0.00  0.00    +0.000 N 
ATOM     19  C   UNL     1       2.324   7.135  19.625  0.00  0.00    +0.000 A 
ATOM     20  C   UNL     1       1.769   8.387  19.435  0.00  0.00    +0.000 A 
ATOM     21  C   UNL     1       2.199   8.757  18.142  0.00  0.00    +0.000 A 
ATOM     22  N   UNL     1       2.963   7.825  17.566  0.00  0.00    +0.000 NA
ENDBRANCH   1  20
BRANCH  11  23
ATOM     23  C   UNL     1       1.745  15.192  19.267  0.00  0.00    +0.000 A 
ATOM     24  C   UNL     1       1.552  16.398  18.600  0.00  0.00    +0.000 A 
ATOM     25  C   UNL     1       2.466  16.821  17.633  0.00  0.00    +0.000 A 
ATOM     26  C   UNL     1       3.577  16.037  17.326  0.00  0.00    +0.000 A 
ATOM     27  C   UNL     1       3.793  14.841  18.008  0.00  0.00    +0.000 A 
ATOM     28  C   UNL     1       2.886  14.426  18.984  0.00  0.00    +0.000 A 
ENDBRANCH  11  23
TORSDOF 2
ENDMDL
MODEL 8
REMARK VINA RESULT:      -6.6      2.611      3.855
REMARK  Name = 
REMARK  3 active torsions:
REMARK  status: ('A' for Active; 'I' for Inactive)
REMARK    1  A    between atoms: C_1  and  N_2
REMARK    2  A    between atoms: C_4  and  C_5
REMARK    3  A    between atoms: N_15  and  C_16
REMARK                            x       y       z     vdW  Elec       q    Type
REMARK                         _______ _______ _______ _____ _____    ______ ____
ROOT
ATOM      1  C   UNL     1       1.796  15.164  20.584  0.00  0.00    +0.000 A 
ATOM      2  C   UNL     1       1.130  16.046  21.421  0.00  0.00    +0.000 A 
ATOM      3  N   UNL     1       0.172  15.682  22.315  0.00  0.00    +0.000 NA
ATOM      4  C   UNL     1      -0.137  14.371  22.391  0.00  0.00    +0.000 A 
ATOM      5  C   UNL     1      -1.110  13.887  23.259  0.00  0.00    +0.000 A 
ATOM      6  C   UNL     1      -1.421  12.522  23.317  0.00  0.00    +0.000 A 
ATOM      7  C   UNL     1      -0.724  11.658  22.491  0.00  0.00    +0.000 A 
ATOM      8  N   UNL     1      -1.014  10.292  22.502  0.00  0.00    +0.000 N 
ATOM      9  C   UNL     1      -0.449   9.306  21.724  0.00  0.00    +0.000 C 
ATOM     10  O   UNL     1      -0.895   8.166  21.824  0.00  0.00    +0.000 OA
ATOM     11  N   UNL     1       0.589   9.698  20.920  0.00  0.00    +0.000 N 
ATOM     12  N   UNL     1       0.232  12.096  21.652  0.00  0.00    +0.000 NA
ATOM     13  C   UNL     1       0.497  13.404  21.596  0.00  0.00    +0.000 A 
ATOM     14  C   UNL     1       1.456  13.819  20.695  0.00  0.00    +0.000 A 
ATOM     15  H   UNL     1      -1.750   9.951  23.102  0.00  0.00    +0.000 HD
ATOM     16  H   UNL     1       0.900  10.649  21.091  0.00  0.00    +0.000 HD
ENDROOT
BRANCH   1  20
ATOM     17  C   UNL     1       5.958  15.376  17.887  0.00  0.00    +0.000 C 
ATOM     18  N   UNL     1       4.665  15.665  18.461  0.00  0.00    +0.000 N 
ATOM     19  C   UNL     1       3.980  14.907  19.366  0.00  0.00    +0.000 A 
ATOM     20  C   UNL     1       2.815  15.595  19.646  0.00  0.00    +0.000 A 
ATOM     21  C   UNL     1       2.901  16.753  18.842  0.00  0.00    +0.000 A 
ATOM     22  N   UNL     1       4.025  16.798  18.121  0.00  0.00    +0.000 NA
ENDBRANCH   1  20
BRANCH  11  23
ATOM     23  C   UNL     1       1.300   8.966  19.961  0.00  0.00    +0.000 A 
ATOM     24  C   UNL     1       1.500   9.414  18.658  0.00  0.00    +0.000 A 
ATOM     25  C   UNL     1       2.206   8.626  17.746  0.00  0.00    +0.000 A 
ATOM     26  C   UNL     1       2.712   7.386  18.132  0.00  0.00    +0.000 A 
ATOM     27  C   UNL     1       2.540   6.943  19.441  0.00  0.00    +0.000 A 
ATOM     28  C   UNL     1       1.845   7.736  20.356  0.00  0.00    +0.000 A 
ENDBRANCH  11  23
TORSDOF 2
ENDMDL
MODEL 9
REMARK VINA RESULT:      -6.6      5.250      9.300
REMARK  Name = 
REMARK  3 active torsions:
REMARK  status: ('A' for Active; 'I' for Inactive)
REMARK    1  A    between atoms: C_1  and  N_2
REMARK    2  A    between atoms: C_4  and  C_5
REMARK    3  A    between atoms: N_15  and  C_16
REMARK                            x       y       z     vdW  Elec       q    Type
REMARK                         _______ _______ _______ _____ _____    ______ ____
ROOT
ATOM      1  C   UNL     1      -6.280  13.989  20.058  0.00  0.00    +0.000 A 
ATOM      2  C   UNL     1      -7.204  14.260  21.056  0.00  0.00    +0.000 A 
ATOM      3  N   UNL     1      -7.014  13.986  22.374  0.00  0.00    +0.000 NA
ATOM      4  C   UNL     1      -5.841  13.419  22.725  0.00  0.00    +0.000 A 
ATOM      5  C   UNL     1      -5.545  13.084  24.042  0.00  0.00    +0.000 A 
ATOM      6  C   UNL     1      -4.323  12.488  24.385  0.00  0.00    +0.000 A 
ATOM      7  C   UNL     1      -3.406  12.253  23.376  0.00  0.00    +0.000 A 
ATOM      8  N   UNL     1      -2.183  11.645  23.669  0.00  0.00    +0.000 N 
ATOM      9  C   UNL     1      -1.181  11.304  22.788  0.00  0.00    +0.000 C 
ATOM     10  O   UNL     1      -0.206  10.701  23.229  0.00  0.00    +0.000 OA
ATOM     11  N   UNL     1      -1.364  11.700  21.489  0.00  0.00    +0.000 N 
ATOM     12  N   UNL     1      -3.660  12.581  22.096  0.00  0.00    +0.000 NA
ATOM     13  C   UNL     1      -4.840  13.125  21.787  0.00  0.00    +0.000 A 
ATOM     14  C   UNL     1      -5.078  13.411  20.459  0.00  0.00    +0.000 A 
ATOM     15  H   UNL     1      -1.990  11.363  24.618  0.00  0.00    +0.000 HD
ATOM     16  H   UNL     1      -2.164  12.313  21.359  0.00  0.00    +0.000 HD
ENDROOT
BRANCH   1  20
ATOM     17  C   UNL     1      -7.306  16.445  15.868  0.00  0.00    +0.000 C 
ATOM     18  N   UNL     1      -6.976  15.411  16.820  0.00  0.00    +0.000 N 
ATOM     19  C   UNL     1      -6.781  15.563  18.163  0.00  0.00    +0.000 A 
ATOM     20  C   UNL     1      -6.521  14.301  18.662  0.00  0.00    +0.000 A 
ATOM     21  C   UNL     1      -6.576  13.466  17.524  0.00  0.00    +0.000 A 
ATOM     22  N   UNL     1      -6.852  14.139  16.404  0.00  0.00    +0.000 NA
ENDBRANCH   1  20
BRANCH  11  23
ATOM     23  C   UNL     1      -0.586  11.432  20.357  0.00  0.00    +0.000 A 
ATOM     24  C   UNL     1      -0.734  10.282  19.587  0.00  0.00    +0.000 A 
ATOM     25  C   UNL     1       0.087  10.068  18.478  0.00  0.00    +0.000 A 
ATOM     26  C   UNL     1       1.062  11.004  18.135  0.00  0.00    +0.000 A 
ATOM     27  C   UNL     1       1.199  12.171  18.883  0.00  0.00    +0.000 A 
ATOM     28  C   UNL     1       0.370  12.389  19.985  0.00  0.00    +0.000 A 
ENDBRANCH  11  23
TORSDOF 2
ENDMDL
