MODEL 1
REMARK VINA RESULT:      -5.9      0.000      0.000
REMARK  Name = 
REMARK  8 active torsions:
REMARK  status: ('A' for Active; 'I' for Inactive)
REMARK    1  A    between atoms: C_1  and  O_2
REMARK    2  A    between atoms: O_2  and  C_3
REMARK    3  A    between atoms: C_3  and  C_5
REMARK    4  A    between atoms: C_6  and  C_7
REMARK    5  A    between atoms: C_7  and  C_8
REMARK    6  A    between atoms: C_7  and  C_10
REMARK    7  A    between atoms: C_7  and  N_12
REMARK    8  A    between atoms: C_13  and  C_14
REMARK                            x       y       z     vdW  Elec       q    Type
REMARK                         _______ _______ _______ _____ _____    ______ ____
ROOT
ATOM      1  C   UNL     1       3.624   3.926  17.647  0.00  0.00    +0.000 C 
ENDROOT
BRANCH   1   3
ATOM      2  C   UNL     1       1.586   2.452  18.264  0.00  0.00    +0.000 C 
ATOM      3  C   UNL     1       2.568   2.840  17.421  0.00  0.00    +0.000 C 
BRANCH   2   4
ATOM      4  C   UNL     1       1.365   3.045  19.606  0.00  0.00    +0.000 C 
ATOM      5  O   UNL     1       0.857   4.128  19.823  0.00  0.00    +0.000 OA
BRANCH   4   7
ATOM      6  C   UNL     1       2.073   2.892  21.790  0.00  0.00    +0.000 C 
ATOM      7  O   UNL     1       1.871   2.213  20.549  0.00  0.00    +0.000 OA
ENDBRANCH   4   7
ENDBRANCH   2   4
ENDBRANCH   1   3
BRANCH   1   8
ATOM      8  C   UNL     1       4.487   4.046  16.455  0.00  0.00    +0.000 C 
ATOM      9  N   UNL     1       5.189   4.145  15.529  0.00  0.00    +0.000 NA
ENDBRANCH   1   8
BRANCH   1  10
ATOM     10  C   UNL     1       4.441   3.587  18.844  0.00  0.00    +0.000 C 
ATOM     11  N   UNL     1       5.063   3.347  19.796  0.00  0.00    +0.000 NA
ENDBRANCH   1  10
BRANCH   1  12
ATOM     12  N   UNL     1       2.872   5.185  17.791  0.00  0.00    +0.000 NA
ATOM     13  C   UNL     1       3.443   6.222  18.288  0.00  0.00    +0.000 C 
BRANCH  13  14
ATOM     14  C   UNL     1       2.643   7.391  18.568  0.00  0.00    +0.000 A 
ATOM     15  C   UNL     1       2.328   8.439  17.721  0.00  0.00    +0.000 A 
ATOM     16  C   UNL     1       1.468   9.395  18.341  0.00  0.00    +0.000 A 
ATOM     17  C   UNL     1       1.181   9.030  19.632  0.00  0.00    +0.000 A 
ATOM     18 BR   UNL     1       0.078  10.033  20.765  0.00  0.00    +0.000 Br
ATOM     19  S   UNL     1       1.912   7.575  20.100  0.00  0.00    +0.000 S 
ENDBRANCH  13  14
ENDBRANCH   1  12
TORSDOF 7
ENDMDL
MODEL 2
REMARK VINA RESULT:      -5.9      2.740      3.859
REMARK  Name = 
REMARK  8 active torsions:
REMARK  status: ('A' for Active; 'I' for Inactive)
REMARK    1  A    between atoms: C_1  and  O_2
REMARK    2  A    between atoms: O_2  and  C_3
REMARK    3  A    between atoms: C_3  and  C_5
REMARK    4  A    between atoms: C_6  and  C_7
REMARK    5  A    between atoms: C_7  and  C_8
REMARK    6  A    between atoms: C_7  and  C_10
REMARK    7  A    between atoms: C_7  and  N_12
REMARK    8  A    between atoms: C_13  and  C_14
REMARK                            x       y       z     vdW  Elec       q    Type
REMARK                         _______ _______ _______ _____ _____    ______ ____
ROOT
ATOM      1  C   UNL     1       4.017   4.262  17.478  0.00  0.00    +0.000 C 
ENDROOT
BRANCH   1   3
ATOM      2  C   UNL     1       5.869   4.959  15.807  0.00  0.00    +0.000 C 
ATOM      3  C   UNL     1       4.826   4.184  16.180  0.00  0.00    +0.000 C 
BRANCH   2   4
ATOM      4  C   UNL     1       6.419   6.060  16.635  0.00  0.00    +0.000 C 
ATOM      5  O   UNL     1       5.975   7.191  16.688  0.00  0.00    +0.000 OA
BRANCH   4   7
ATOM      6  C   UNL     1       7.807   6.413  18.435  0.00  0.00    +0.000 C 
ATOM      7  O   UNL     1       7.529   5.623  17.277  0.00  0.00    +0.000 OA
ENDBRANCH   4   7
ENDBRANCH   2   4
ENDBRANCH   1   3
BRANCH   1   8
ATOM      8  C   UNL     1       4.900   4.021  18.637  0.00  0.00    +0.000 C 
ATOM      9  N   UNL     1       5.617   3.838  19.539  0.00  0.00    +0.000 NA
ENDBRANCH   1   8
BRANCH   1  10
ATOM     10  C   UNL     1       2.922   3.255  17.444  0.00  0.00    +0.000 C 
ATOM     11  N   UNL     1       2.050   2.488  17.395  0.00  0.00    +0.000 NA
ENDBRANCH   1  10
BRANCH   1  12
ATOM     12  N   UNL     1       3.531   5.650  17.559  0.00  0.00    +0.000 NA
ATOM     13  C   UNL     1       3.096   6.115  18.673  0.00  0.00    +0.000 C 
BRANCH  13  14
ATOM     14  C   UNL     1       2.477   7.420  18.689  0.00  0.00    +0.000 A 
ATOM     15  C   UNL     1       2.393   8.344  17.662  0.00  0.00    +0.000 A 
ATOM     16  C   UNL     1       1.658   9.507  18.042  0.00  0.00    +0.000 A 
ATOM     17  C   UNL     1       1.229   9.414  19.341  0.00  0.00    +0.000 A 
ATOM     18 BR   UNL     1       0.227  10.747  20.194  0.00  0.00    +0.000 Br
ATOM     19  S   UNL     1       1.683   7.968  20.098  0.00  0.00    +0.000 S 
ENDBRANCH  13  14
ENDBRANCH   1  12
TORSDOF 7
ENDMDL
MODEL 3
REMARK VINA RESULT:      -5.8      1.602      1.967
REMARK  Name = 
REMARK  8 active torsions:
REMARK  status: ('A' for Active; 'I' for Inactive)
REMARK    1  A    between atoms: C_1  and  O_2
REMARK    2  A    between atoms: O_2  and  C_3
REMARK    3  A    between atoms: C_3  and  C_5
REMARK    4  A    between atoms: C_6  and  C_7
REMARK    5  A    between atoms: C_7  and  C_8
REMARK    6  A    between atoms: C_7  and  C_10
REMARK    7  A    between atoms: C_7  and  N_12
REMARK    8  A    between atoms: C_13  and  C_14
REMARK                            x       y       z     vdW  Elec       q    Type
REMARK                         _______ _______ _______ _____ _____    ______ ____
ROOT
ATOM      1  C   UNL     1       4.910   5.213  17.523  0.00  0.00    +0.000 C 
ENDROOT
BRANCH   1   3
ATOM      2  C   UNL     1       3.731   2.976  18.083  0.00  0.00    +0.000 C 
ATOM      3  C   UNL     1       4.130   3.932  17.215  0.00  0.00    +0.000 C 
BRANCH   2   4
ATOM      4  C   UNL     1       3.999   3.019  19.541  0.00  0.00    +0.000 C 
ATOM      5  O   UNL     1       4.924   2.464  20.104  0.00  0.00    +0.000 OA
BRANCH   4   7
ATOM      6  C   UNL     1       2.463   3.002  21.253  0.00  0.00    +0.000 C 
ATOM      7  O   UNL     1       3.020   3.726  20.154  0.00  0.00    +0.000 OA
ENDBRANCH   4   7
ENDBRANCH   2   4
ENDBRANCH   1   3
BRANCH   1   8
ATOM      8  C   UNL     1       5.173   5.956  16.274  0.00  0.00    +0.000 C 
ATOM      9  N   UNL     1       5.366   6.563  15.297  0.00  0.00    +0.000 NA
ENDBRANCH   1   8
BRANCH   1  10
ATOM     10  C   UNL     1       6.190   4.868  18.199  0.00  0.00    +0.000 C 
ATOM     11  N   UNL     1       7.186   4.567  18.717  0.00  0.00    +0.000 NA
ENDBRANCH   1  10
BRANCH   1  12
ATOM     12  N   UNL     1       4.012   6.032  18.357  0.00  0.00    +0.000 NA
ATOM     13  C   UNL     1       3.125   6.778  17.806  0.00  0.00    +0.000 C 
BRANCH  13  14
ATOM     14  C   UNL     1       2.369   7.689  18.633  0.00  0.00    +0.000 A 
ATOM     15  C   UNL     1       1.823   8.912  18.287  0.00  0.00    +0.000 A 
ATOM     16  C   UNL     1       1.098   9.505  19.365  0.00  0.00    +0.000 A 
ATOM     17  C   UNL     1       1.138   8.706  20.479  0.00  0.00    +0.000 A 
ATOM     18 BR   UNL     1       0.296   9.147  22.093  0.00  0.00    +0.000 Br
ATOM     19  S   UNL     1       2.014   7.274  20.251  0.00  0.00    +0.000 S 
ENDBRANCH  13  14
ENDBRANCH   1  12
TORSDOF 7
ENDMDL
MODEL 4
REMARK VINA RESULT:      -5.8      3.769      5.407
REMARK  Name = 
REMARK  8 active torsions:
REMARK  status: ('A' for Active; 'I' for Inactive)
REMARK    1  A    between atoms: C_1  and  O_2
REMARK    2  A    between atoms: O_2  and  C_3
REMARK    3  A    between atoms: C_3  and  C_5
REMARK    4  A    between atoms: C_6  and  C_7
REMARK    5  A    between atoms: C_7  and  C_8
REMARK    6  A    between atoms: C_7  and  C_10
REMARK    7  A    between atoms: C_7  and  N_12
REMARK    8  A    between atoms: C_13  and  C_14
REMARK                            x       y       z     vdW  Elec       q    Type
REMARK                         _______ _______ _______ _____ _____    ______ ____
ROOT
ATOM      1  C   UNL     1       5.745   4.558  15.481  0.00  0.00    +0.000 C 
ENDROOT
BRANCH   1   3
ATOM      2  C   UNL     1       7.672   4.587  17.211  0.00  0.00    +0.000 C 
ATOM      3  C   UNL     1       7.181   4.357  15.973  0.00  0.00    +0.000 C 
BRANCH   2   4
ATOM      4  C   UNL     1       6.858   5.096  18.342  0.00  0.00    +0.000 C 
ATOM      5  O   UNL     1       6.333   4.410  19.199  0.00  0.00    +0.000 OA
BRANCH   4   7
ATOM      6  C   UNL     1       8.004   7.090  18.424  0.00  0.00    +0.000 C 
ATOM      7  O   UNL     1       6.743   6.442  18.238  0.00  0.00    +0.000 OA
ENDBRANCH   4   7
ENDBRANCH   2   4
ENDBRANCH   1   3
BRANCH   1   8
ATOM      8  C   UNL     1       5.597   4.001  14.121  0.00  0.00    +0.000 C 
ATOM      9  N   UNL     1       5.476   3.538  13.057  0.00  0.00    +0.000 NA
ENDBRANCH   1   8
BRANCH   1  10
ATOM     10  C   UNL     1       5.414   6.009  15.485  0.00  0.00    +0.000 C 
ATOM     11  N   UNL     1       5.182   7.147  15.469  0.00  0.00    +0.000 NA
ENDBRANCH   1  10
BRANCH   1  12
ATOM     12  N   UNL     1       4.900   3.764  16.390  0.00  0.00    +0.000 NA
ATOM     13  C   UNL     1       3.804   4.255  16.843  0.00  0.00    +0.000 C 
BRANCH  13  14
ATOM     14  C   UNL     1       3.079   3.524  17.854  0.00  0.00    +0.000 A 
ATOM     15  C   UNL     1       2.488   2.276  17.756  0.00  0.00    +0.000 A 
ATOM     16  C   UNL     1       1.901   1.857  18.987  0.00  0.00    +0.000 A 
ATOM     17  C   UNL     1       2.066   2.812  19.958  0.00  0.00    +0.000 A 
ATOM     18 BR   UNL     1       1.434   2.620  21.711  0.00  0.00    +0.000 Br
ATOM     19  S   UNL     1       2.909   4.180  19.422  0.00  0.00    +0.000 S 
ENDBRANCH  13  14
ENDBRANCH   1  12
TORSDOF 7
ENDMDL
MODEL 5
REMARK VINA RESULT:      -5.7      3.204      4.588
REMARK  Name = 
REMARK  8 active torsions:
REMARK  status: ('A' for Active; 'I' for Inactive)
REMARK    1  A    between atoms: C_1  and  O_2
REMARK    2  A    between atoms: O_2  and  C_3
REMARK    3  A    between atoms: C_3  and  C_5
REMARK    4  A    between atoms: C_6  and  C_7
REMARK    5  A    between atoms: C_7  and  C_8
REMARK    6  A    between atoms: C_7  and  C_10
REMARK    7  A    between atoms: C_7  and  N_12
REMARK    8  A    between atoms: C_13  and  C_14
REMARK                            x       y       z     vdW  Elec       q    Type
REMARK                         _______ _______ _______ _____ _____    ______ ____
ROOT
ATOM      1  C   UNL     1       5.158   4.812  18.352  0.00  0.00    +0.000 C 
ENDROOT
BRANCH   1   3
ATOM      2  C   UNL     1       7.536   5.835  18.263  0.00  0.00    +0.000 C 
ATOM      3  C   UNL     1       6.582   5.076  18.847  0.00  0.00    +0.000 C 
BRANCH   2   4
ATOM      4  C   UNL     1       7.343   6.566  16.986  0.00  0.00    +0.000 C 
ATOM      5  O   UNL     1       7.567   6.119  15.877  0.00  0.00    +0.000 OA
BRANCH   4   7
ATOM      6  C   UNL     1       7.980   8.606  17.839  0.00  0.00    +0.000 C 
ATOM      7  O   UNL     1       6.933   7.829  17.254  0.00  0.00    +0.000 OA
ENDBRANCH   4   7
ENDBRANCH   2   4
ENDBRANCH   1   3
BRANCH   1   8
ATOM      8  C   UNL     1       4.488   3.838  19.237  0.00  0.00    +0.000 C 
ATOM      9  N   UNL     1       3.948   3.058  19.915  0.00  0.00    +0.000 NA
ENDBRANCH   1   8
BRANCH   1  10
ATOM     10  C   UNL     1       5.202   4.297  16.956  0.00  0.00    +0.000 C 
ATOM     11  N   UNL     1       5.204   3.899  15.864  0.00  0.00    +0.000 NA
ENDBRANCH   1  10
BRANCH   1  12
ATOM     12  N   UNL     1       4.451   6.099  18.476  0.00  0.00    +0.000 NA
ATOM     13  C   UNL     1       3.230   6.126  18.871  0.00  0.00    +0.000 C 
BRANCH  13  14
ATOM     14  C   UNL     1       2.512   7.378  18.830  0.00  0.00    +0.000 A 
ATOM     15  C   UNL     1       2.346   8.239  17.759  0.00  0.00    +0.000 A 
ATOM     16  C   UNL     1       1.527   9.361  18.089  0.00  0.00    +0.000 A 
ATOM     17  C   UNL     1       1.120   9.301  19.398  0.00  0.00    +0.000 A 
ATOM     18 BR   UNL     1       0.026  10.596  20.196  0.00  0.00    +0.000 Br
ATOM     19  S   UNL     1       1.692   7.935  20.220  0.00  0.00    +0.000 S 
ENDBRANCH  13  14
ENDBRANCH   1  12
TORSDOF 7
ENDMDL
MODEL 6
REMARK VINA RESULT:      -5.7      2.799      3.887
REMARK  Name = 
REMARK  8 active torsions:
REMARK  status: ('A' for Active; 'I' for Inactive)
REMARK    1  A    between atoms: C_1  and  O_2
REMARK    2  A    between atoms: O_2  and  C_3
REMARK    3  A    between atoms: C_3  and  C_5
REMARK    4  A    between atoms: C_6  and  C_7
REMARK    5  A    between atoms: C_7  and  C_8
REMARK    6  A    between atoms: C_7  and  C_10
REMARK    7  A    between atoms: C_7  and  N_12
REMARK    8  A    between atoms: C_13  and  C_14
REMARK                            x       y       z     vdW  Elec       q    Type
REMARK                         _______ _______ _______ _____ _____    ______ ____
ROOT
ATOM      1  C   UNL     1       4.370   4.665  18.468  0.00  0.00    +0.000 C 
ENDROOT
BRANCH   1   3
ATOM      2  C   UNL     1       4.852   4.502  15.929  0.00  0.00    +0.000 C 
ATOM      3  C   UNL     1       4.340   4.017  17.081  0.00  0.00    +0.000 C 
BRANCH   2   4
ATOM      4  C   UNL     1       5.558   5.802  15.820  0.00  0.00    +0.000 C 
ATOM      5  O   UNL     1       5.023   6.895  15.800  0.00  0.00    +0.000 OA
BRANCH   4   7
ATOM      6  C   UNL     1       7.174   4.796  14.529  0.00  0.00    +0.000 C 
ATOM      7  O   UNL     1       6.888   5.578  15.690  0.00  0.00    +0.000 OA
ENDBRANCH   4   7
ENDBRANCH   2   4
ENDBRANCH   1   3
BRANCH   1   8
ATOM      8  C   UNL     1       5.767   4.919  18.875  0.00  0.00    +0.000 C 
ATOM      9  N   UNL     1       6.869   5.099  19.213  0.00  0.00    +0.000 NA
ENDBRANCH   1   8
BRANCH   1  10
ATOM     10  C   UNL     1       3.700   3.772  19.452  0.00  0.00    +0.000 C 
ATOM     11  N   UNL     1       3.183   3.048  20.199  0.00  0.00    +0.000 NA
ENDBRANCH   1  10
BRANCH   1  12
ATOM     12  N   UNL     1       3.700   5.967  18.311  0.00  0.00    +0.000 NA
ATOM     13  C   UNL     1       3.058   6.484  19.295  0.00  0.00    +0.000 C 
BRANCH  13  14
ATOM     14  C   UNL     1       2.278   7.677  19.069  0.00  0.00    +0.000 A 
ATOM     15  C   UNL     1       2.052   8.343  17.877  0.00  0.00    +0.000 A 
ATOM     16  C   UNL     1       1.183   9.464  18.041  0.00  0.00    +0.000 A 
ATOM     17  C   UNL     1       0.798   9.598  19.351  0.00  0.00    +0.000 A 
ATOM     18 BR   UNL     1      -0.348  10.951  19.955  0.00  0.00    +0.000 Br
ATOM     19  S   UNL     1       1.451   8.413  20.370  0.00  0.00    +0.000 S 
ENDBRANCH  13  14
ENDBRANCH   1  12
TORSDOF 7
ENDMDL
MODEL 7
REMARK VINA RESULT:      -5.7      1.340      1.659
REMARK  Name = 
REMARK  8 active torsions:
REMARK  status: ('A' for Active; 'I' for Inactive)
REMARK    1  A    between atoms: C_1  and  O_2
REMARK    2  A    between atoms: O_2  and  C_3
REMARK    3  A    between atoms: C_3  and  C_5
REMARK    4  A    between atoms: C_6  and  C_7
REMARK    5  A    between atoms: C_7  and  C_8
REMARK    6  A    between atoms: C_7  and  C_10
REMARK    7  A    between atoms: C_7  and  N_12
REMARK    8  A    between atoms: C_13  and  C_14
REMARK                            x       y       z     vdW  Elec       q    Type
REMARK                         _______ _______ _______ _____ _____    ______ ____
ROOT
ATOM      1  C   UNL     1       4.821   4.703  18.655  0.00  0.00    +0.000 C 
ENDROOT
BRANCH   1   3
ATOM      2  C   UNL     1       3.132   2.802  19.147  0.00  0.00    +0.000 C 
ATOM      3  C   UNL     1       4.338   3.396  19.289  0.00  0.00    +0.000 C 
BRANCH   2   4
ATOM      4  C   UNL     1       2.034   3.350  18.314  0.00  0.00    +0.000 C 
ATOM      5  O   UNL     1       1.969   3.284  17.101  0.00  0.00    +0.000 OA
BRANCH   4   7
ATOM      6  C   UNL     1       0.971   3.296  20.353  0.00  0.00    +0.000 C 
ATOM      7  O   UNL     1       1.143   3.985  19.113  0.00  0.00    +0.000 OA
ENDBRANCH   4   7
ENDBRANCH   2   4
ENDBRANCH   1   3
BRANCH   1   8
ATOM      8  C   UNL     1       4.972   4.529  17.196  0.00  0.00    +0.000 C 
ATOM      9  N   UNL     1       5.110   4.374  16.048  0.00  0.00    +0.000 NA
ENDBRANCH   1   8
BRANCH   1  10
ATOM     10  C   UNL     1       6.118   5.104  19.265  0.00  0.00    +0.000 C 
ATOM     11  N   UNL     1       7.145   5.414  19.711  0.00  0.00    +0.000 NA
ENDBRANCH   1  10
BRANCH   1  12
ATOM     12  N   UNL     1       3.741   5.678  18.885  0.00  0.00    +0.000 NA
ATOM     13  C   UNL     1       3.617   6.696  18.113  0.00  0.00    +0.000 C 
BRANCH  13  14
ATOM     14  C   UNL     1       2.656   7.717  18.456  0.00  0.00    +0.000 A 
ATOM     15  C   UNL     1       2.163   8.735  17.659  0.00  0.00    +0.000 A 
ATOM     16  C   UNL     1       1.185   9.525  18.335  0.00  0.00    +0.000 A 
ATOM     17  C   UNL     1       0.989   9.072  19.615  0.00  0.00    +0.000 A 
ATOM     18 BR   UNL     1      -0.225   9.852  20.810  0.00  0.00    +0.000 Br
ATOM     19  S   UNL     1       1.945   7.730  20.009  0.00  0.00    +0.000 S 
ENDBRANCH  13  14
ENDBRANCH   1  12
TORSDOF 7
ENDMDL
MODEL 8
REMARK VINA RESULT:      -5.7      3.123      4.428
REMARK  Name = 
REMARK  8 active torsions:
REMARK  status: ('A' for Active; 'I' for Inactive)
REMARK    1  A    between atoms: C_1  and  O_2
REMARK    2  A    between atoms: O_2  and  C_3
REMARK    3  A    between atoms: C_3  and  C_5
REMARK    4  A    between atoms: C_6  and  C_7
REMARK    5  A    between atoms: C_7  and  C_8
REMARK    6  A    between atoms: C_7  and  C_10
REMARK    7  A    between atoms: C_7  and  N_12
REMARK    8  A    between atoms: C_13  and  C_14
REMARK                            x       y       z     vdW  Elec       q    Type
REMARK                         _______ _______ _______ _____ _____    ______ ____
ROOT
ATOM      1  C   UNL     1       4.669   5.802  17.793  0.00  0.00    +0.000 C 
ENDROOT
BRANCH   1   3
ATOM      2  C   UNL     1       6.306   5.833  15.786  0.00  0.00    +0.000 C 
ATOM      3  C   UNL     1       5.338   6.390  16.547  0.00  0.00    +0.000 C 
BRANCH   2   4
ATOM      4  C   UNL     1       6.903   4.501  16.051  0.00  0.00    +0.000 C 
ATOM      5  O   UNL     1       7.885   4.292  16.738  0.00  0.00    +0.000 OA
BRANCH   4   7
ATOM      6  C   UNL     1       6.152   3.874  13.968  0.00  0.00    +0.000 C 
ATOM      7  O   UNL     1       6.215   3.559  15.361  0.00  0.00    +0.000 OA
ENDBRANCH   4   7
ENDBRANCH   2   4
ENDBRANCH   1   3
BRANCH   1   8
ATOM      8  C   UNL     1       5.693   5.461  18.801  0.00  0.00    +0.000 C 
ATOM      9  N   UNL     1       6.493   5.212  19.612  0.00  0.00    +0.000 NA
ENDBRANCH   1   8
BRANCH   1  10
ATOM     10  C   UNL     1       3.890   4.590  17.417  0.00  0.00    +0.000 C 
ATOM     11  N   UNL     1       3.254   3.662  17.129  0.00  0.00    +0.000 NA
ENDBRANCH   1  10
BRANCH   1  12
ATOM     12  N   UNL     1       3.835   6.884  18.342  0.00  0.00    +0.000 NA
ATOM     13  C   UNL     1       2.925   6.619  19.208  0.00  0.00    +0.000 C 
BRANCH  13  14
ATOM     14  C   UNL     1       2.017   7.668  19.608  0.00  0.00    +0.000 A 
ATOM     15  C   UNL     1       1.400   7.850  20.833  0.00  0.00    +0.000 A 
ATOM     16  C   UNL     1       0.605   9.035  20.867  0.00  0.00    +0.000 A 
ATOM     17  C   UNL     1       0.652   9.691  19.664  0.00  0.00    +0.000 A 
ATOM     18 BR   UNL     1      -0.260  11.292  19.326  0.00  0.00    +0.000 Br
ATOM     19  S   UNL     1       1.626   8.919  18.513  0.00  0.00    +0.000 S 
ENDBRANCH  13  14
ENDBRANCH   1  12
TORSDOF 7
ENDMDL
MODEL 9
REMARK VINA RESULT:      -5.7      0.958      1.168
REMARK  Name = 
REMARK  8 active torsions:
REMARK  status: ('A' for Active; 'I' for Inactive)
REMARK    1  A    between atoms: C_1  and  O_2
REMARK    2  A    between atoms: O_2  and  C_3
REMARK    3  A    between atoms: C_3  and  C_5
REMARK    4  A    between atoms: C_6  and  C_7
REMARK    5  A    between atoms: C_7  and  C_8
REMARK    6  A    between atoms: C_7  and  C_10
REMARK    7  A    between atoms: C_7  and  N_12
REMARK    8  A    between atoms: C_13  and  C_14
REMARK                            x       y       z     vdW  Elec       q    Type
REMARK                         _______ _______ _______ _____ _____    ______ ____
ROOT
ATOM      1  C   UNL     1       3.723   4.286  17.647  0.00  0.00    +0.000 C 
ENDROOT
BRANCH   1   3
ATOM      2  C   UNL     1       1.773   2.658  18.150  0.00  0.00    +0.000 C 
ATOM      3  C   UNL     1       2.734   3.158  17.342  0.00  0.00    +0.000 C 
BRANCH   2   4
ATOM      4  C   UNL     1       1.513   3.146  19.527  0.00  0.00    +0.000 C 
ATOM      5  O   UNL     1       0.877   4.143  19.813  0.00  0.00    +0.000 OA
BRANCH   4   7
ATOM      6  C   UNL     1       1.646   2.529  21.739  0.00  0.00    +0.000 C 
ATOM      7  O   UNL     1       2.144   2.338  20.413  0.00  0.00    +0.000 OA
ENDBRANCH   4   7
ENDBRANCH   2   4
ENDBRANCH   1   3
BRANCH   1   8
ATOM      8  C   UNL     1       4.540   4.578  16.452  0.00  0.00    +0.000 C 
ATOM      9  N   UNL     1       5.182   4.834  15.512  0.00  0.00    +0.000 NA
ENDBRANCH   1   8
BRANCH   1  10
ATOM     10  C   UNL     1       4.597   3.890  18.786  0.00  0.00    +0.000 C 
ATOM     11  N   UNL     1       5.285   3.552  19.659  0.00  0.00    +0.000 NA
ENDBRANCH   1  10
BRANCH   1  12
ATOM     12  N   UNL     1       2.896   5.471  17.931  0.00  0.00    +0.000 NA
ATOM     13  C   UNL     1       3.333   6.388  18.717  0.00  0.00    +0.000 C 
BRANCH  13  14
ATOM     14  C   UNL     1       2.442   7.455  19.106  0.00  0.00    +0.000 A 
ATOM     15  C   UNL     1       1.817   7.653  20.325  0.00  0.00    +0.000 A 
ATOM     16  C   UNL     1       1.046   8.854  20.348  0.00  0.00    +0.000 A 
ATOM     17  C   UNL     1       1.115   9.504  19.142  0.00  0.00    +0.000 A 
ATOM     18 BR   UNL     1       0.237  11.121  18.791  0.00  0.00    +0.000 Br
ATOM     19  S   UNL     1       2.084   8.709  18.002  0.00  0.00    +0.000 S 
ENDBRANCH  13  14
ENDBRANCH   1  12
TORSDOF 7
ENDMDL
