MODEL 1
REMARK VINA RESULT:      -9.1      0.000      0.000
REMARK  Name = 
REMARK  5 active torsions:
REMARK  status: ('A' for Active; 'I' for Inactive)
REMARK    1  A    between atoms: C_2  and  C_3
REMARK    2  A    between atoms: C_3  and  C_4
REMARK    3  A    between atoms: N_10  and  C_11
REMARK    4  A    between atoms: C_15  and  C_16
REMARK    5  A    between atoms: N_20  and  C_21
REMARK                            x       y       z     vdW  Elec       q    Type
REMARK                         _______ _______ _______ _____ _____    ______ ____
ROOT
ATOM      1  C   UNL     1       6.774   6.744  17.017  0.00  0.00    +0.000 A 
ATOM      2  C   UNL     1       7.203   5.858  16.036  0.00  0.00    +0.000 A 
ATOM      3  C   UNL     1       6.793   4.520  16.068  0.00  0.00    +0.000 A 
ATOM      4  C   UNL     1       5.948   4.052  17.077  0.00  0.00    +0.000 A 
ATOM      5  C   UNL     1       5.490   4.918  18.075  0.00  0.00    +0.000 A 
ATOM      6  C   UNL     1       5.914   6.261  18.015  0.00  0.00    +0.000 A 
ENDROOT
BRANCH   5   7
ATOM      7  C   UNL     1       4.645   4.368  19.225  0.00  0.00    +0.000 C 
ATOM      8  C   UNL     1       3.845   3.092  18.904  0.00  0.00    +0.000 C 
ATOM      9  C   UNL     1       2.571   3.335  18.080  0.00  0.00    +0.000 C 
ATOM     10  C   UNL     1       1.737   4.545  18.542  0.00  0.00    +0.000 C 
ATOM     11  N   UNL     1       2.613   5.665  18.827  0.00  0.00    +0.000 N 
ATOM     12  C   UNL     1       3.686   5.423  19.793  0.00  0.00    +0.000 C 
BRANCH  11  13
ATOM     13  C   UNL     1       2.221   6.993  18.798  0.00  0.00    +0.000 A 
ATOM     14  N   UNL     1       2.507   7.688  17.663  0.00  0.00    +0.000 NA
ATOM     15  C   UNL     1       2.259   9.006  17.601  0.00  0.00    +0.000 A 
ATOM     16  N   UNL     1       1.765   9.786  18.571  0.00  0.00    +0.000 NA
ATOM     17  C   UNL     1       1.488   9.075  19.671  0.00  0.00    +0.000 A 
ATOM     18  N   UNL     1       1.042   9.622  20.843  0.00  0.00    +0.000 N 
ATOM     19  C   UNL     1       0.852   8.633  21.770  0.00  0.00    +0.000 A 
ATOM     20  C   UNL     1       1.178   7.431  21.175  0.00  0.00    +0.000 A 
ATOM     21  C   UNL     1       1.634   7.705  19.858  0.00  0.00    +0.000 A 
ATOM     22  H   UNL     1       0.926  10.613  20.982  0.00  0.00    +0.000 HD
ENDBRANCH  11  13
ENDBRANCH   5   7
BRANCH   1  25
ATOM     23  O   UNL     1       8.749   8.067  18.813  0.00  0.00    +0.000 OA
ATOM     24  C   UNL     1       8.076   8.667  17.979  0.00  0.00    +0.000 C 
ATOM     25  N   UNL     1       7.161   8.100  17.107  0.00  0.00    +0.000 N 
ATOM     26  H   UNL     1       6.660   8.732  16.494  0.00  0.00    +0.000 HD
BRANCH  24  27
ATOM     27  C   UNL     1       8.206  10.180  17.814  0.00  0.00    +0.000 C 
BRANCH  27  28
ATOM     28  C   UNL     1       9.397  10.735  18.556  0.00  0.00    +0.000 A 
ATOM     29  C   UNL     1       9.332  10.951  19.940  0.00  0.00    +0.000 A 
ATOM     30  C   UNL     1      10.390  11.567  20.611  0.00  0.00    +0.000 A 
ATOM     31  C   UNL     1      11.522  11.970  19.907  0.00  0.00    +0.000 A 
ATOM     32  C   UNL     1      11.611  11.730  18.537  0.00  0.00    +0.000 A 
ATOM     33  C   UNL     1      10.556  11.111  17.864  0.00  0.00    +0.000 A 
ENDBRANCH  27  28
ENDBRANCH  24  27
ENDBRANCH   1  25
TORSDOF 5
ENDMDL
MODEL 2
REMARK VINA RESULT:      -9.0      3.402      6.154
REMARK  Name = 
REMARK  5 active torsions:
REMARK  status: ('A' for Active; 'I' for Inactive)
REMARK    1  A    between atoms: C_2  and  C_3
REMARK    2  A    between atoms: C_3  and  C_4
REMARK    3  A    between atoms: N_10  and  C_11
REMARK    4  A    between atoms: C_15  and  C_16
REMARK    5  A    between atoms: N_20  and  C_21
REMARK                            x       y       z     vdW  Elec       q    Type
REMARK                         _______ _______ _______ _____ _____    ______ ____
ROOT
ATOM      1  C   UNL     1       6.971   4.871  16.893  0.00  0.00    +0.000 A 
ATOM      2  C   UNL     1       7.474   5.788  17.807  0.00  0.00    +0.000 A 
ATOM      3  C   UNL     1       6.958   5.844  19.106  0.00  0.00    +0.000 A 
ATOM      4  C   UNL     1       5.936   4.981  19.510  0.00  0.00    +0.000 A 
ATOM      5  C   UNL     1       5.412   4.038  18.619  0.00  0.00    +0.000 A 
ATOM      6  C   UNL     1       5.955   4.001  17.319  0.00  0.00    +0.000 A 
ENDROOT
BRANCH   5   7
ATOM      7  C   UNL     1       4.229   3.169  19.046  0.00  0.00    +0.000 C 
ATOM      8  C   UNL     1       3.523   2.409  17.908  0.00  0.00    +0.000 C 
ATOM      9  C   UNL     1       2.583   3.276  17.057  0.00  0.00    +0.000 C 
ATOM     10  C   UNL     1       1.692   4.234  17.871  0.00  0.00    +0.000 C 
ATOM     11  N   UNL     1       2.475   4.864  18.916  0.00  0.00    +0.000 N 
ATOM     12  C   UNL     1       3.180   3.967  19.833  0.00  0.00    +0.000 C 
BRANCH  11  13
ATOM     13  C   UNL     1       2.162   6.077  19.505  0.00  0.00    +0.000 A 
ATOM     14  N   UNL     1       1.635   6.028  20.759  0.00  0.00    +0.000 NA
ATOM     15  C   UNL     1       1.204   7.153  21.353  0.00  0.00    +0.000 A 
ATOM     16  N   UNL     1       1.193   8.389  20.839  0.00  0.00    +0.000 NA
ATOM     17  C   UNL     1       1.722   8.408  19.609  0.00  0.00    +0.000 A 
ATOM     18  N   UNL     1       1.772   9.521  18.815  0.00  0.00    +0.000 N 
ATOM     19  C   UNL     1       2.373   9.211  17.625  0.00  0.00    +0.000 A 
ATOM     20  C   UNL     1       2.716   7.876  17.663  0.00  0.00    +0.000 A 
ATOM     21  C   UNL     1       2.260   7.342  18.898  0.00  0.00    +0.000 A 
ATOM     22  H   UNL     1       1.377  10.408  19.082  0.00  0.00    +0.000 HD
ENDBRANCH  11  13
ENDBRANCH   5   7
BRANCH   1  25
ATOM     23  O   UNL     1       5.670   5.838  14.392  0.00  0.00    +0.000 OA
ATOM     24  C   UNL     1       6.728   5.214  14.415  0.00  0.00    +0.000 C 
ATOM     25  N   UNL     1       7.385   4.760  15.547  0.00  0.00    +0.000 N 
ATOM     26  H   UNL     1       8.239   4.233  15.400  0.00  0.00    +0.000 HD
BRANCH  24  27
ATOM     27  C   UNL     1       7.460   4.874  13.118  0.00  0.00    +0.000 C 
BRANCH  27  28
ATOM     28  C   UNL     1       6.770   3.778  12.343  0.00  0.00    +0.000 A 
ATOM     29  C   UNL     1       5.370   3.729  12.279  0.00  0.00    +0.000 A 
ATOM     30  C   UNL     1       4.726   2.657  11.659  0.00  0.00    +0.000 A 
ATOM     31  C   UNL     1       5.475   1.626  11.093  0.00  0.00    +0.000 A 
ATOM     32  C   UNL     1       6.867   1.682  11.121  0.00  0.00    +0.000 A 
ATOM     33  C   UNL     1       7.513   2.755  11.738  0.00  0.00    +0.000 A 
ENDBRANCH  27  28
ENDBRANCH  24  27
ENDBRANCH   1  25
TORSDOF 5
ENDMDL
MODEL 3
REMARK VINA RESULT:      -8.8      3.912      6.886
REMARK  Name = 
REMARK  5 active torsions:
REMARK  status: ('A' for Active; 'I' for Inactive)
REMARK    1  A    between atoms: C_2  and  C_3
REMARK    2  A    between atoms: C_3  and  C_4
REMARK    3  A    between atoms: N_10  and  C_11
REMARK    4  A    between atoms: C_15  and  C_16
REMARK    5  A    between atoms: N_20  and  C_21
REMARK                            x       y       z     vdW  Elec       q    Type
REMARK                         _______ _______ _______ _____ _____    ______ ____
ROOT
ATOM      1  C   UNL     1       2.098   7.521  19.326  0.00  0.00    +0.000 A 
ATOM      2  C   UNL     1       1.703   7.240  20.628  0.00  0.00    +0.000 A 
ATOM      3  C   UNL     1       1.379   5.930  20.999  0.00  0.00    +0.000 A 
ATOM      4  C   UNL     1       1.450   4.884  20.075  0.00  0.00    +0.000 A 
ATOM      5  C   UNL     1       1.853   5.129  18.758  0.00  0.00    +0.000 A 
ATOM      6  C   UNL     1       2.179   6.457  18.415  0.00  0.00    +0.000 A 
ENDROOT
BRANCH   5   7
ATOM      7  C   UNL     1       1.831   3.992  17.736  0.00  0.00    +0.000 C 
ATOM      8  C   UNL     1       1.511   2.598  18.307  0.00  0.00    +0.000 C 
ATOM      9  C   UNL     1       2.686   1.927  19.034  0.00  0.00    +0.000 C 
ATOM     10  C   UNL     1       4.039   2.054  18.307  0.00  0.00    +0.000 C 
ATOM     11  N   UNL     1       4.202   3.405  17.806  0.00  0.00    +0.000 N 
ATOM     12  C   UNL     1       3.139   3.909  16.936  0.00  0.00    +0.000 C 
BRANCH  11  13
ATOM     13  C   UNL     1       5.424   4.000  17.542  0.00  0.00    +0.000 A 
ATOM     14  N   UNL     1       6.098   4.510  18.609  0.00  0.00    +0.000 NA
ATOM     15  C   UNL     1       7.235   5.198  18.421  0.00  0.00    +0.000 A 
ATOM     16  N   UNL     1       7.821   5.496  17.255  0.00  0.00    +0.000 NA
ATOM     17  C   UNL     1       7.140   4.978  16.224  0.00  0.00    +0.000 A 
ATOM     18  N   UNL     1       7.465   5.184  14.912  0.00  0.00    +0.000 N 
ATOM     19  C   UNL     1       6.580   4.519  14.107  0.00  0.00    +0.000 A 
ATOM     20  C   UNL     1       5.676   3.871  14.924  0.00  0.00    +0.000 A 
ATOM     21  C   UNL     1       5.991   4.197  16.270  0.00  0.00    +0.000 A 
ATOM     22  H   UNL     1       8.222   5.780  14.617  0.00  0.00    +0.000 HD
ENDBRANCH  11  13
ENDBRANCH   5   7
BRANCH   1  25
ATOM     23  O   UNL     1       0.342   9.554  18.037  0.00  0.00    +0.000 OA
ATOM     24  C   UNL     1       1.546   9.711  18.223  0.00  0.00    +0.000 C 
ATOM     25  N   UNL     1       2.403   8.809  18.834  0.00  0.00    +0.000 N 
ATOM     26  H   UNL     1       3.380   9.072  18.888  0.00  0.00    +0.000 HD
BRANCH  24  27
ATOM     27  C   UNL     1       2.243  10.996  17.779  0.00  0.00    +0.000 C 
BRANCH  27  28
ATOM     28  C   UNL     1       1.856  12.179  18.632  0.00  0.00    +0.000 A 
ATOM     29  C   UNL     1       2.034  13.486  18.154  0.00  0.00    +0.000 A 
ATOM     30  C   UNL     1       1.783  14.582  18.981  0.00  0.00    +0.000 A 
ATOM     31  C   UNL     1       1.350  14.384  20.290  0.00  0.00    +0.000 A 
ATOM     32  C   UNL     1       1.138  13.090  20.765  0.00  0.00    +0.000 A 
ATOM     33  C   UNL     1       1.385  11.992  19.938  0.00  0.00    +0.000 A 
ENDBRANCH  27  28
ENDBRANCH  24  27
ENDBRANCH   1  25
TORSDOF 5
ENDMDL
MODEL 4
REMARK VINA RESULT:      -8.8      1.193      2.146
REMARK  Name = 
REMARK  5 active torsions:
REMARK  status: ('A' for Active; 'I' for Inactive)
REMARK    1  A    between atoms: C_2  and  C_3
REMARK    2  A    between atoms: C_3  and  C_4
REMARK    3  A    between atoms: N_10  and  C_11
REMARK    4  A    between atoms: C_15  and  C_16
REMARK    5  A    between atoms: N_20  and  C_21
REMARK                            x       y       z     vdW  Elec       q    Type
REMARK                         _______ _______ _______ _____ _____    ______ ____
ROOT
ATOM      1  C   UNL     1       7.032   6.175  17.653  0.00  0.00    +0.000 A 
ATOM      2  C   UNL     1       7.037   5.917  16.289  0.00  0.00    +0.000 A 
ATOM      3  C   UNL     1       6.238   4.897  15.761  0.00  0.00    +0.000 A 
ATOM      4  C   UNL     1       5.421   4.124  16.591  0.00  0.00    +0.000 A 
ATOM      5  C   UNL     1       5.384   4.362  17.969  0.00  0.00    +0.000 A 
ATOM      6  C   UNL     1       6.195   5.400  18.471  0.00  0.00    +0.000 A 
ENDROOT
BRANCH   5   7
ATOM      7  C   UNL     1       4.559   3.445  18.872  0.00  0.00    +0.000 C 
ATOM      8  C   UNL     1       3.696   2.400  18.141  0.00  0.00    +0.000 C 
ATOM      9  C   UNL     1       2.405   2.963  17.529  0.00  0.00    +0.000 C 
ATOM     10  C   UNL     1       1.638   3.935  18.445  0.00  0.00    +0.000 C 
ATOM     11  N   UNL     1       2.569   4.847  19.082  0.00  0.00    +0.000 N 
ATOM     12  C   UNL     1       3.665   4.237  19.837  0.00  0.00    +0.000 C 
BRANCH  11  13
ATOM     13  C   UNL     1       2.231   6.099  19.565  0.00  0.00    +0.000 A 
ATOM     14  N   UNL     1       1.663   6.143  20.802  0.00  0.00    +0.000 NA
ATOM     15  C   UNL     1       1.208   7.306  21.293  0.00  0.00    +0.000 A 
ATOM     16  N   UNL     1       1.208   8.500  20.686  0.00  0.00    +0.000 NA
ATOM     17  C   UNL     1       1.776   8.428  19.476  0.00  0.00    +0.000 A 
ATOM     18  N   UNL     1       1.847   9.477  18.601  0.00  0.00    +0.000 N 
ATOM     19  C   UNL     1       2.487   9.081  17.457  0.00  0.00    +0.000 A 
ATOM     20  C   UNL     1       2.836   7.755  17.609  0.00  0.00    +0.000 A 
ATOM     21  C   UNL     1       2.343   7.314  18.866  0.00  0.00    +0.000 A 
ATOM     22  H   UNL     1       1.439  10.379  18.785  0.00  0.00    +0.000 HD
ENDBRANCH  11  13
ENDBRANCH   5   7
BRANCH   1  25
ATOM     23  O   UNL     1       7.348   9.084  17.092  0.00  0.00    +0.000 OA
ATOM     24  C   UNL     1       7.955   8.490  17.980  0.00  0.00    +0.000 C 
ATOM     25  N   UNL     1       7.831   7.147  18.297  0.00  0.00    +0.000 N 
ATOM     26  H   UNL     1       8.422   6.796  19.040  0.00  0.00    +0.000 HD
BRANCH  24  27
ATOM     27  C   UNL     1       8.950   9.229  18.873  0.00  0.00    +0.000 C 
BRANCH  27  28
ATOM     28  C   UNL     1       9.326  10.579  18.313  0.00  0.00    +0.000 A 
ATOM     29  C   UNL     1      10.673  10.906  18.097  0.00  0.00    +0.000 A 
ATOM     30  C   UNL     1      11.032  12.191  17.685  0.00  0.00    +0.000 A 
ATOM     31  C   UNL     1      10.051  13.158  17.482  0.00  0.00    +0.000 A 
ATOM     32  C   UNL     1       8.707  12.834  17.661  0.00  0.00    +0.000 A 
ATOM     33  C   UNL     1       8.345  11.549  18.070  0.00  0.00    +0.000 A 
ENDBRANCH  27  28
ENDBRANCH  24  27
ENDBRANCH   1  25
TORSDOF 5
ENDMDL
MODEL 5
REMARK VINA RESULT:      -8.8      3.304      6.264
REMARK  Name = 
REMARK  5 active torsions:
REMARK  status: ('A' for Active; 'I' for Inactive)
REMARK    1  A    between atoms: C_2  and  C_3
REMARK    2  A    between atoms: C_3  and  C_4
REMARK    3  A    between atoms: N_10  and  C_11
REMARK    4  A    between atoms: C_15  and  C_16
REMARK    5  A    between atoms: N_20  and  C_21
REMARK                            x       y       z     vdW  Elec       q    Type
REMARK                         _______ _______ _______ _____ _____    ______ ____
ROOT
ATOM      1  C   UNL     1       6.367   5.229  16.048  0.00  0.00    +0.000 A 
ATOM      2  C   UNL     1       7.056   6.185  16.784  0.00  0.00    +0.000 A 
ATOM      3  C   UNL     1       6.937   6.221  18.177  0.00  0.00    +0.000 A 
ATOM      4  C   UNL     1       6.133   5.299  18.853  0.00  0.00    +0.000 A 
ATOM      5  C   UNL     1       5.432   4.317  18.145  0.00  0.00    +0.000 A 
ATOM      6  C   UNL     1       5.576   4.302  16.742  0.00  0.00    +0.000 A 
ENDROOT
BRANCH   5   7
ATOM      7  C   UNL     1       4.482   3.380  18.890  0.00  0.00    +0.000 C 
ATOM      8  C   UNL     1       3.660   2.430  18.000  0.00  0.00    +0.000 C 
ATOM      9  C   UNL     1       2.464   3.093  17.301  0.00  0.00    +0.000 C 
ATOM     10  C   UNL     1       1.644   4.035  18.203  0.00  0.00    +0.000 C 
ATOM     11  N   UNL     1       2.537   4.856  18.997  0.00  0.00    +0.000 N 
ATOM     12  C   UNL     1       3.523   4.145  19.813  0.00  0.00    +0.000 C 
BRANCH  11  13
ATOM     13  C   UNL     1       2.200   6.087  19.534  0.00  0.00    +0.000 A 
ATOM     14  N   UNL     1       1.631   6.078  20.770  0.00  0.00    +0.000 NA
ATOM     15  C   UNL     1       1.176   7.220  21.310  0.00  0.00    +0.000 A 
ATOM     16  N   UNL     1       1.179   8.438  20.756  0.00  0.00    +0.000 NA
ATOM     17  C   UNL     1       1.749   8.418  19.544  0.00  0.00    +0.000 A 
ATOM     18  N   UNL     1       1.822   9.504  18.716  0.00  0.00    +0.000 N 
ATOM     19  C   UNL     1       2.464   9.157  17.557  0.00  0.00    +0.000 A 
ATOM     20  C   UNL     1       2.811   7.825  17.652  0.00  0.00    +0.000 A 
ATOM     21  C   UNL     1       2.315   7.331  18.888  0.00  0.00    +0.000 A 
ATOM     22  H   UNL     1       1.415  10.398  18.938  0.00  0.00    +0.000 HD
ENDBRANCH  11  13
ENDBRANCH   5   7
BRANCH   1  25
ATOM     23  O   UNL     1       8.623   5.492  14.118  0.00  0.00    +0.000 OA
ATOM     24  C   UNL     1       7.459   5.281  13.784  0.00  0.00    +0.000 C 
ATOM     25  N   UNL     1       6.379   5.131  14.638  0.00  0.00    +0.000 N 
ATOM     26  H   UNL     1       5.472   4.988  14.208  0.00  0.00    +0.000 HD
BRANCH  24  27
ATOM     27  C   UNL     1       7.084   5.148  12.309  0.00  0.00    +0.000 C 
BRANCH  27  28
ATOM     28  C   UNL     1       6.670   3.742  11.950  0.00  0.00    +0.000 A 
ATOM     29  C   UNL     1       7.634   2.791  11.584  0.00  0.00    +0.000 A 
ATOM     30  C   UNL     1       7.247   1.524  11.144  0.00  0.00    +0.000 A 
ATOM     31  C   UNL     1       5.896   1.194  11.068  0.00  0.00    +0.000 A 
ATOM     32  C   UNL     1       4.930   2.120  11.461  0.00  0.00    +0.000 A 
ATOM     33  C   UNL     1       5.315   3.387  11.905  0.00  0.00    +0.000 A 
ENDBRANCH  27  28
ENDBRANCH  24  27
ENDBRANCH   1  25
TORSDOF 5
ENDMDL
MODEL 6
REMARK VINA RESULT:      -8.7      3.710      6.522
REMARK  Name = 
REMARK  5 active torsions:
REMARK  status: ('A' for Active; 'I' for Inactive)
REMARK    1  A    between atoms: C_2  and  C_3
REMARK    2  A    between atoms: C_3  and  C_4
REMARK    3  A    between atoms: N_10  and  C_11
REMARK    4  A    between atoms: C_15  and  C_16
REMARK    5  A    between atoms: N_20  and  C_21
REMARK                            x       y       z     vdW  Elec       q    Type
REMARK                         _______ _______ _______ _____ _____    ______ ____
ROOT
ATOM      1  C   UNL     1       2.108   7.367  19.262  0.00  0.00    +0.000 A 
ATOM      2  C   UNL     1       1.842   7.128  20.604  0.00  0.00    +0.000 A 
ATOM      3  C   UNL     1       1.527   5.837  21.041  0.00  0.00    +0.000 A 
ATOM      4  C   UNL     1       1.477   4.767  20.143  0.00  0.00    +0.000 A 
ATOM      5  C   UNL     1       1.748   4.970  18.785  0.00  0.00    +0.000 A 
ATOM      6  C   UNL     1       2.068   6.280  18.375  0.00  0.00    +0.000 A 
ENDROOT
BRANCH   5   7
ATOM      7  C   UNL     1       1.593   3.809  17.802  0.00  0.00    +0.000 C 
ATOM      8  C   UNL     1       1.408   2.421  18.443  0.00  0.00    +0.000 C 
ATOM      9  C   UNL     1       2.703   1.796  18.983  0.00  0.00    +0.000 C 
ATOM     10  C   UNL     1       3.917   1.940  18.044  0.00  0.00    +0.000 C 
ATOM     11  N   UNL     1       3.960   3.282  17.498  0.00  0.00    +0.000 N 
ATOM     12  C   UNL     1       2.756   3.740  16.802  0.00  0.00    +0.000 C 
BRANCH  11  13
ATOM     13  C   UNL     1       5.106   3.900  17.029  0.00  0.00    +0.000 A 
ATOM     14  N   UNL     1       5.433   3.671  15.727  0.00  0.00    +0.000 NA
ATOM     15  C   UNL     1       6.586   4.145  15.230  0.00  0.00    +0.000 A 
ATOM     16  N   UNL     1       7.533   4.829  15.883  0.00  0.00    +0.000 NA
ATOM     17  C   UNL     1       7.183   5.044  17.158  0.00  0.00    +0.000 A 
ATOM     18  N   UNL     1       7.989   5.651  18.081  0.00  0.00    +0.000 N 
ATOM     19  C   UNL     1       7.341   5.721  19.285  0.00  0.00    +0.000 A 
ATOM     20  C   UNL     1       6.095   5.151  19.124  0.00  0.00    +0.000 A 
ATOM     21  C   UNL     1       6.002   4.670  17.791  0.00  0.00    +0.000 A 
ATOM     22  H   UNL     1       8.930   5.950  17.881  0.00  0.00    +0.000 HD
ENDBRANCH  11  13
ENDBRANCH   5   7
BRANCH   1  25
ATOM     23  O   UNL     1       0.266   9.497  18.285  0.00  0.00    +0.000 OA
ATOM     24  C   UNL     1       1.491   9.583  18.248  0.00  0.00    +0.000 C 
ATOM     25  N   UNL     1       2.392   8.635  18.706  0.00  0.00    +0.000 N 
ATOM     26  H   UNL     1       3.376   8.840  18.580  0.00  0.00    +0.000 HD
BRANCH  24  27
ATOM     27  C   UNL     1       2.167  10.824  17.670  0.00  0.00    +0.000 C 
BRANCH  27  28
ATOM     28  C   UNL     1       2.021  12.026  18.570  0.00  0.00    +0.000 A 
ATOM     29  C   UNL     1       2.630  13.244  18.232  0.00  0.00    +0.000 A 
ATOM     30  C   UNL     1       2.591  14.325  19.115  0.00  0.00    +0.000 A 
ATOM     31  C   UNL     1       1.942  14.200  20.341  0.00  0.00    +0.000 A 
ATOM     32  C   UNL     1       1.306  13.006  20.674  0.00  0.00    +0.000 A 
ATOM     33  C   UNL     1       1.340  11.925  19.791  0.00  0.00    +0.000 A 
ENDBRANCH  27  28
ENDBRANCH  24  27
ENDBRANCH   1  25
TORSDOF 5
ENDMDL
MODEL 7
REMARK VINA RESULT:      -8.4      4.726      8.934
REMARK  Name = 
REMARK  5 active torsions:
REMARK  status: ('A' for Active; 'I' for Inactive)
REMARK    1  A    between atoms: C_2  and  C_3
REMARK    2  A    between atoms: C_3  and  C_4
REMARK    3  A    between atoms: N_10  and  C_11
REMARK    4  A    between atoms: C_15  and  C_16
REMARK    5  A    between atoms: N_20  and  C_21
REMARK                            x       y       z     vdW  Elec       q    Type
REMARK                         _______ _______ _______ _____ _____    ______ ____
ROOT
ATOM      1  C   UNL     1       0.784   9.243  20.751  0.00  0.00    +0.000 A 
ATOM      2  C   UNL     1       0.560   8.576  21.949  0.00  0.00    +0.000 A 
ATOM      3  C   UNL     1      -0.091   9.223  23.005  0.00  0.00    +0.000 A 
ATOM      4  C   UNL     1      -0.529  10.544  22.876  0.00  0.00    +0.000 A 
ATOM      5  C   UNL     1      -0.328  11.243  21.681  0.00  0.00    +0.000 A 
ATOM      6  C   UNL     1       0.325  10.564  20.633  0.00  0.00    +0.000 A 
ENDROOT
BRANCH   5   7
ATOM      7  C   UNL     1      -0.727  12.716  21.591  0.00  0.00    +0.000 C 
ATOM      8  C   UNL     1      -1.569  13.245  22.767  0.00  0.00    +0.000 C 
ATOM      9  C   UNL     1      -3.050  12.838  22.718  0.00  0.00    +0.000 C 
ATOM     10  C   UNL     1      -3.697  12.964  21.325  0.00  0.00    +0.000 C 
ATOM     11  N   UNL     1      -2.794  12.449  20.315  0.00  0.00    +0.000 N 
ATOM     12  C   UNL     1      -1.454  13.039  20.278  0.00  0.00    +0.000 C 
BRANCH  11  13
ATOM     13  C   UNL     1      -3.192  11.972  19.078  0.00  0.00    +0.000 A 
ATOM     14  N   UNL     1      -2.202  11.678  18.190  0.00  0.00    +0.000 NA
ATOM     15  C   UNL     1      -2.511  11.315  16.935  0.00  0.00    +0.000 A 
ATOM     16  N   UNL     1      -3.731  11.226  16.392  0.00  0.00    +0.000 NA
ATOM     17  C   UNL     1      -4.683  11.515  17.288  0.00  0.00    +0.000 A 
ATOM     18  N   UNL     1      -6.017  11.576  16.993  0.00  0.00    +0.000 N 
ATOM     19  C   UNL     1      -6.725  11.892  18.122  0.00  0.00    +0.000 A 
ATOM     20  C   UNL     1      -5.823  12.029  19.158  0.00  0.00    +0.000 A 
ATOM     21  C   UNL     1      -4.518  11.843  18.629  0.00  0.00    +0.000 A 
ATOM     22  H   UNL     1      -6.385  11.447  16.064  0.00  0.00    +0.000 HD
ENDBRANCH  11  13
ENDBRANCH   5   7
BRANCH   1  25
ATOM     23  O   UNL     1       2.139   6.609  20.419  0.00  0.00    +0.000 OA
ATOM     24  C   UNL     1       2.100   7.473  19.546  0.00  0.00    +0.000 C 
ATOM     25  N   UNL     1       1.469   8.703  19.640  0.00  0.00    +0.000 N 
ATOM     26  H   UNL     1       1.550   9.321  18.841  0.00  0.00    +0.000 HD
BRANCH  24  27
ATOM     27  C   UNL     1       2.777   7.246  18.196  0.00  0.00    +0.000 C 
BRANCH  27  28
ATOM     28  C   UNL     1       3.041   5.785  17.927  0.00  0.00    +0.000 A 
ATOM     29  C   UNL     1       1.974   4.893  17.745  0.00  0.00    +0.000 A 
ATOM     30  C   UNL     1       2.210   3.524  17.608  0.00  0.00    +0.000 A 
ATOM     31  C   UNL     1       3.513   3.033  17.649  0.00  0.00    +0.000 A 
ATOM     32  C   UNL     1       4.584   3.914  17.797  0.00  0.00    +0.000 A 
ATOM     33  C   UNL     1       4.350   5.284  17.930  0.00  0.00    +0.000 A 
ENDBRANCH  27  28
ENDBRANCH  24  27
ENDBRANCH   1  25
TORSDOF 5
ENDMDL
MODEL 8
REMARK VINA RESULT:      -8.4      3.659      7.572
REMARK  Name = 
REMARK  5 active torsions:
REMARK  status: ('A' for Active; 'I' for Inactive)
REMARK    1  A    between atoms: C_2  and  C_3
REMARK    2  A    between atoms: C_3  and  C_4
REMARK    3  A    between atoms: N_10  and  C_11
REMARK    4  A    between atoms: C_15  and  C_16
REMARK    5  A    between atoms: N_20  and  C_21
REMARK                            x       y       z     vdW  Elec       q    Type
REMARK                         _______ _______ _______ _____ _____    ______ ____
ROOT
ATOM      1  C   UNL     1       1.928   6.724  19.936  0.00  0.00    +0.000 A 
ATOM      2  C   UNL     1       2.102   6.194  21.208  0.00  0.00    +0.000 A 
ATOM      3  C   UNL     1       2.222   4.811  21.385  0.00  0.00    +0.000 A 
ATOM      4  C   UNL     1       2.172   3.941  20.293  0.00  0.00    +0.000 A 
ATOM      5  C   UNL     1       2.006   4.440  18.997  0.00  0.00    +0.000 A 
ATOM      6  C   UNL     1       1.895   5.837  18.848  0.00  0.00    +0.000 A 
ENDROOT
BRANCH   5   7
ATOM      7  C   UNL     1       1.857   3.469  17.826  0.00  0.00    +0.000 C 
ATOM      8  C   UNL     1       1.885   1.975  18.200  0.00  0.00    +0.000 C 
ATOM      9  C   UNL     1       3.289   1.421  18.484  0.00  0.00    +0.000 C 
ATOM     10  C   UNL     1       4.368   1.877  17.482  0.00  0.00    +0.000 C 
ATOM     11  N   UNL     1       4.214   3.292  17.206  0.00  0.00    +0.000 N 
ATOM     12  C   UNL     1       2.899   3.723  16.728  0.00  0.00    +0.000 C 
BRANCH  11  13
ATOM     13  C   UNL     1       5.232   4.118  16.760  0.00  0.00    +0.000 A 
ATOM     14  N   UNL     1       5.488   4.102  15.423  0.00  0.00    +0.000 NA
ATOM     15  C   UNL     1       6.530   4.791  14.930  0.00  0.00    +0.000 A 
ATOM     16  N   UNL     1       7.425   5.513  15.617  0.00  0.00    +0.000 NA
ATOM     17  C   UNL     1       7.145   5.514  16.926  0.00  0.00    +0.000 A 
ATOM     18  N   UNL     1       7.931   6.107  17.875  0.00  0.00    +0.000 N 
ATOM     19  C   UNL     1       7.370   5.934  19.112  0.00  0.00    +0.000 A 
ATOM     20  C   UNL     1       6.200   5.221  18.946  0.00  0.00    +0.000 A 
ATOM     21  C   UNL     1       6.074   4.903  17.568  0.00  0.00    +0.000 A 
ATOM     22  H   UNL     1       8.807   6.557  17.665  0.00  0.00    +0.000 HD
ENDBRANCH  11  13
ENDBRANCH   5   7
BRANCH   1  25
ATOM     23  O   UNL     1       0.158   8.749  21.220  0.00  0.00    +0.000 OA
ATOM     24  C   UNL     1       0.896   8.992  20.268  0.00  0.00    +0.000 C 
ATOM     25  N   UNL     1       1.752   8.096  19.648  0.00  0.00    +0.000 N 
ATOM     26  H   UNL     1       2.278   8.441  18.854  0.00  0.00    +0.000 HD
BRANCH  24  27
ATOM     27  C   UNL     1       0.944  10.391  19.657  0.00  0.00    +0.000 C 
BRANCH  27  28
ATOM     28  C   UNL     1      -0.349  10.760  18.972  0.00  0.00    +0.000 A 
ATOM     29  C   UNL     1      -1.180  11.752  19.513  0.00  0.00    +0.000 A 
ATOM     30  C   UNL     1      -2.427  12.018  18.947  0.00  0.00    +0.000 A 
ATOM     31  C   UNL     1      -2.855  11.298  17.833  0.00  0.00    +0.000 A 
ATOM     32  C   UNL     1      -2.023  10.333  17.266  0.00  0.00    +0.000 A 
ATOM     33  C   UNL     1      -0.774  10.068  17.830  0.00  0.00    +0.000 A 
ENDBRANCH  27  28
ENDBRANCH  24  27
ENDBRANCH   1  25
TORSDOF 5
ENDMDL
MODEL 9
REMARK VINA RESULT:      -8.3      5.134      9.194
REMARK  Name = 
REMARK  5 active torsions:
REMARK  status: ('A' for Active; 'I' for Inactive)
REMARK    1  A    between atoms: C_2  and  C_3
REMARK    2  A    between atoms: C_3  and  C_4
REMARK    3  A    between atoms: N_10  and  C_11
REMARK    4  A    between atoms: C_15  and  C_16
REMARK    5  A    between atoms: N_20  and  C_21
REMARK                            x       y       z     vdW  Elec       q    Type
REMARK                         _______ _______ _______ _____ _____    ______ ____
ROOT
ATOM      1  C   UNL     1       0.887   8.935  21.367  0.00  0.00    +0.000 A 
ATOM      2  C   UNL     1       0.130   8.670  22.501  0.00  0.00    +0.000 A 
ATOM      3  C   UNL     1      -0.644   9.679  23.084  0.00  0.00    +0.000 A 
ATOM      4  C   UNL     1      -0.674  10.965  22.539  0.00  0.00    +0.000 A 
ATOM      5  C   UNL     1       0.068  11.266  21.392  0.00  0.00    +0.000 A 
ATOM      6  C   UNL     1       0.834  10.228  20.824  0.00  0.00    +0.000 A 
ENDROOT
BRANCH   5   7
ATOM      7  C   UNL     1       0.100  12.701  20.867  0.00  0.00    +0.000 C 
ATOM      8  C   UNL     1      -0.435  13.771  21.836  0.00  0.00    +0.000 C 
ATOM      9  C   UNL     1      -1.967  13.834  21.926  0.00  0.00    +0.000 C 
ATOM     10  C   UNL     1      -2.687  13.748  20.566  0.00  0.00    +0.000 C 
ATOM     11  N   UNL     1      -2.073  12.720  19.750  0.00  0.00    +0.000 N 
ATOM     12  C   UNL     1      -0.632  12.841  19.524  0.00  0.00    +0.000 C 
BRANCH  11  13
ATOM     13  C   UNL     1      -2.712  12.054  18.717  0.00  0.00    +0.000 A 
ATOM     14  N   UNL     1      -1.936  11.671  17.666  0.00  0.00    +0.000 NA
ATOM     15  C   UNL     1      -2.500  11.120  16.579  0.00  0.00    +0.000 A 
ATOM     16  N   UNL     1      -3.803  10.908  16.359  0.00  0.00    +0.000 NA
ATOM     17  C   UNL     1      -4.541  11.288  17.410  0.00  0.00    +0.000 A 
ATOM     18  N   UNL     1      -5.908  11.257  17.437  0.00  0.00    +0.000 N 
ATOM     19  C   UNL     1      -6.355  11.707  18.650  0.00  0.00    +0.000 A 
ATOM     20  C   UNL     1      -5.251  12.025  19.414  0.00  0.00    +0.000 A 
ATOM     21  C   UNL     1      -4.094  11.813  18.618  0.00  0.00    +0.000 A 
ATOM     22  H   UNL     1      -6.470  10.982  16.648  0.00  0.00    +0.000 HD
ENDBRANCH  11  13
ENDBRANCH   5   7
BRANCH   1  25
ATOM     23  O   UNL     1       1.558   8.615  18.482  0.00  0.00    +0.000 OA
ATOM     24  C   UNL     1       1.999   7.890  19.370  0.00  0.00    +0.000 C 
ATOM     25  N   UNL     1       1.737   8.006  20.726  0.00  0.00    +0.000 N 
ATOM     26  H   UNL     1       2.155   7.312  21.334  0.00  0.00    +0.000 HD
BRANCH  24  27
ATOM     27  C   UNL     1       2.941   6.734  19.037  0.00  0.00    +0.000 C 
BRANCH  27  28
ATOM     28  C   UNL     1       2.287   5.389  19.236  0.00  0.00    +0.000 A 
ATOM     29  C   UNL     1       1.948   4.595  18.131  0.00  0.00    +0.000 A 
ATOM     30  C   UNL     1       1.243   3.403  18.304  0.00  0.00    +0.000 A 
ATOM     31  C   UNL     1       0.873   2.991  19.582  0.00  0.00    +0.000 A 
ATOM     32  C   UNL     1       1.233   3.755  20.691  0.00  0.00    +0.000 A 
ATOM     33  C   UNL     1       1.942   4.946  20.520  0.00  0.00    +0.000 A 
ENDBRANCH  27  28
ENDBRANCH  24  27
ENDBRANCH   1  25
TORSDOF 5
ENDMDL
