MODEL 1
REMARK VINA RESULT:      -6.9      0.000      0.000
REMARK  Name = 
REMARK  8 active torsions:
REMARK  status: ('A' for Active; 'I' for Inactive)
REMARK    1  A    between atoms: C_1  and  N_2
REMARK    2  A    between atoms: N_2  and  C_3
REMARK    3  A    between atoms: N_6  and  C_7
REMARK    4  A    between atoms: C_9  and  O_10
REMARK    5  A    between atoms: O_10  and  C_11
REMARK    6  A    between atoms: C_12  and  C_13
REMARK    7  A    between atoms: N_17  and  C_18
REMARK    8  A    between atoms: C_24  and  C_25
REMARK                            x       y       z     vdW  Elec       q    Type
REMARK                         _______ _______ _______ _____ _____    ______ ____
ROOT
ATOM      1  C   UNL     1       2.650   6.819  19.408  0.00  0.00    +0.000 A 
ATOM      2  N   UNL     1       2.002   7.969  19.163  0.00  0.00    +0.000 NA
ATOM      3  C   UNL     1       2.224   8.653  18.033  0.00  0.00    +0.000 A 
ATOM      4  N   UNL     1       1.475   9.795  17.758  0.00  0.00    +0.000 N 
ATOM      5  N   UNL     1       3.118   8.261  17.123  0.00  0.00    +0.000 NA
ATOM      6  C   UNL     1       3.794   7.127  17.402  0.00  0.00    +0.000 A 
ATOM      7  C   UNL     1       3.589   6.347  18.523  0.00  0.00    +0.000 A 
ATOM      8  H   UNL     1       1.572  10.089  16.796  0.00  0.00    +0.000 HD
ENDROOT
BRANCH   4   9
ATOM      9  C   UNL     1       0.629  10.550  18.587  0.00  0.00    +0.000 A 
ATOM     10  C   UNL     1       1.138  11.287  19.666  0.00  0.00    +0.000 A 
ATOM     11  C   UNL     1       0.329  12.033  20.535  0.00  0.00    +0.000 A 
ATOM     12  C   UNL     1      -1.065  12.032  20.363  0.00  0.00    +0.000 A 
ATOM     13  C   UNL     1      -1.590  11.276  19.293  0.00  0.00    +0.000 A 
ATOM     14  C   UNL     1      -0.759  10.555  18.418  0.00  0.00    +0.000 A 
ATOM     15 CL   UNL     1      -1.498   9.689  17.116  0.00  0.00    +0.000 Cl
BRANCH  12  16
ATOM     16  C   UNL     1      -1.993  12.868  21.152  0.00  0.00    +0.000 A 
ATOM     17  C   UNL     1      -2.633  14.038  20.764  0.00  0.00    +0.000 A 
ATOM     18  N   UNL     1      -3.386  14.542  21.778  0.00  0.00    +0.000 NA
ATOM     19  N   UNL     1      -3.260  13.724  22.809  0.00  0.00    +0.000 NA
ATOM     20  N   UNL     1      -2.443  12.719  22.449  0.00  0.00    +0.000 N 
ATOM     21  C   UNL     1      -2.248  11.652  23.397  0.00  0.00    +0.000 C 
ENDBRANCH  12  16
BRANCH  11  22
ATOM     22  O   UNL     1       0.845  12.789  21.552  0.00  0.00    +0.000 OA
ATOM     23  C   UNL     1       1.522  13.994  21.219  0.00  0.00    +0.000 C 
ENDBRANCH  11  22
ENDBRANCH   4   9
BRANCH   7  24
ATOM     24  C   UNL     1       4.357   5.084  18.682  0.00  0.00    +0.000 C 
ATOM     25  F   UNL     1       3.612   3.946  18.768  0.00  0.00    +0.000 F 
ATOM     26  F   UNL     1       5.195   4.876  17.626  0.00  0.00    +0.000 F 
ATOM     27  F   UNL     1       5.158   5.092  19.783  0.00  0.00    +0.000 F 
ENDBRANCH   7  24
BRANCH   1  29
ATOM     28  C   UNL     1       1.310   5.180  20.579  0.00  0.00    +0.000 C 
ATOM     29  N   UNL     1       2.387   6.156  20.611  0.00  0.00    +0.000 N 
ATOM     30  H   UNL     1       3.236   5.771  21.020  0.00  0.00    +0.000 HD
ENDBRANCH   1  29
TORSDOF 5
ENDMDL
MODEL 2
REMARK VINA RESULT:      -6.8      0.503      1.119
REMARK  Name = 
REMARK  8 active torsions:
REMARK  status: ('A' for Active; 'I' for Inactive)
REMARK    1  A    between atoms: C_1  and  N_2
REMARK    2  A    between atoms: N_2  and  C_3
REMARK    3  A    between atoms: N_6  and  C_7
REMARK    4  A    between atoms: C_9  and  O_10
REMARK    5  A    between atoms: O_10  and  C_11
REMARK    6  A    between atoms: C_12  and  C_13
REMARK    7  A    between atoms: N_17  and  C_18
REMARK    8  A    between atoms: C_24  and  C_25
REMARK                            x       y       z     vdW  Elec       q    Type
REMARK                         _______ _______ _______ _____ _____    ______ ____
ROOT
ATOM      1  C   UNL     1       2.615   6.858  19.406  0.00  0.00    +0.000 A 
ATOM      2  N   UNL     1       1.974   8.016  19.183  0.00  0.00    +0.000 NA
ATOM      3  C   UNL     1       2.188   8.712  18.059  0.00  0.00    +0.000 A 
ATOM      4  N   UNL     1       1.444   9.863  17.807  0.00  0.00    +0.000 N 
ATOM      5  N   UNL     1       3.067   8.325  17.135  0.00  0.00    +0.000 NA
ATOM      6  C   UNL     1       3.738   7.183  17.391  0.00  0.00    +0.000 A 
ATOM      7  C   UNL     1       3.541   6.390  18.505  0.00  0.00    +0.000 A 
ATOM      8  H   UNL     1       1.532  10.169  16.848  0.00  0.00    +0.000 HD
ENDROOT
BRANCH   4   9
ATOM      9  C   UNL     1       0.613  10.614  18.655  0.00  0.00    +0.000 A 
ATOM     10  C   UNL     1       1.144  11.368  19.711  0.00  0.00    +0.000 A 
ATOM     11  C   UNL     1       0.352  12.111  20.599  0.00  0.00    +0.000 A 
ATOM     12  C   UNL     1      -1.047  12.088  20.470  0.00  0.00    +0.000 A 
ATOM     13  C   UNL     1      -1.594  11.315  19.423  0.00  0.00    +0.000 A 
ATOM     14  C   UNL     1      -0.780  10.598  18.530  0.00  0.00    +0.000 A 
ATOM     15 CL   UNL     1      -1.546   9.709  17.259  0.00  0.00    +0.000 Cl
BRANCH  12  16
ATOM     16  C   UNL     1      -1.962  12.919  21.280  0.00  0.00    +0.000 A 
ATOM     17  C   UNL     1      -2.789  12.517  22.320  0.00  0.00    +0.000 A 
ATOM     18  N   UNL     1      -3.510  13.564  22.803  0.00  0.00    +0.000 NA
ATOM     19  N   UNL     1      -3.164  14.636  22.110  0.00  0.00    +0.000 NA
ATOM     20  N   UNL     1      -2.237  14.270  21.207  0.00  0.00    +0.000 N 
ATOM     21  C   UNL     1      -1.643  15.311  20.409  0.00  0.00    +0.000 C 
ENDBRANCH  12  16
BRANCH  11  22
ATOM     22  O   UNL     1       0.889  12.883  21.592  0.00  0.00    +0.000 OA
ATOM     23  C   UNL     1       1.749  13.953  21.223  0.00  0.00    +0.000 C 
ENDBRANCH  11  22
ENDBRANCH   4   9
BRANCH   7  24
ATOM     24  C   UNL     1       4.301   5.120  18.640  0.00  0.00    +0.000 C 
ATOM     25  F   UNL     1       3.554   3.980  18.637  0.00  0.00    +0.000 F 
ATOM     26  F   UNL     1       5.186   4.961  17.614  0.00  0.00    +0.000 F 
ATOM     27  F   UNL     1       5.051   5.075  19.775  0.00  0.00    +0.000 F 
ENDBRANCH   7  24
BRANCH   1  29
ATOM     28  C   UNL     1       1.311   5.179  20.560  0.00  0.00    +0.000 C 
ATOM     29  N   UNL     1       2.362   6.182  20.605  0.00  0.00    +0.000 N 
ATOM     30  H   UNL     1       3.218   5.817  21.018  0.00  0.00    +0.000 HD
ENDBRANCH   1  29
TORSDOF 5
ENDMDL
MODEL 3
REMARK VINA RESULT:      -6.8      1.572      2.121
REMARK  Name = 
REMARK  8 active torsions:
REMARK  status: ('A' for Active; 'I' for Inactive)
REMARK    1  A    between atoms: C_1  and  N_2
REMARK    2  A    between atoms: N_2  and  C_3
REMARK    3  A    between atoms: N_6  and  C_7
REMARK    4  A    between atoms: C_9  and  O_10
REMARK    5  A    between atoms: O_10  and  C_11
REMARK    6  A    between atoms: C_12  and  C_13
REMARK    7  A    between atoms: N_17  and  C_18
REMARK    8  A    between atoms: C_24  and  C_25
REMARK                            x       y       z     vdW  Elec       q    Type
REMARK                         _______ _______ _______ _____ _____    ______ ____
ROOT
ATOM      1  C   UNL     1       2.301   7.259  19.562  0.00  0.00    +0.000 A 
ATOM      2  N   UNL     1       1.550   8.371  19.596  0.00  0.00    +0.000 NA
ATOM      3  C   UNL     1       1.517   9.207  18.550  0.00  0.00    +0.000 A 
ATOM      4  N   UNL     1       0.661  10.306  18.571  0.00  0.00    +0.000 N 
ATOM      5  N   UNL     1       2.248   9.008  17.452  0.00  0.00    +0.000 NA
ATOM      6  C   UNL     1       3.032   7.911  17.448  0.00  0.00    +0.000 A 
ATOM      7  C   UNL     1       3.087   6.982  18.469  0.00  0.00    +0.000 A 
ATOM      8  H   UNL     1       0.560  10.726  17.657  0.00  0.00    +0.000 HD
ENDROOT
BRANCH   4   9
ATOM      9  C   UNL     1      -0.061  10.878  19.632  0.00  0.00    +0.000 A 
ATOM     10  C   UNL     1       0.193  10.516  20.962  0.00  0.00    +0.000 A 
ATOM     11  C   UNL     1      -0.520  11.039  22.050  0.00  0.00    +0.000 A 
ATOM     12  C   UNL     1      -1.570  11.944  21.824  0.00  0.00    +0.000 A 
ATOM     13  C   UNL     1      -1.849  12.300  20.487  0.00  0.00    +0.000 A 
ATOM     14  C   UNL     1      -1.106  11.782  19.413  0.00  0.00    +0.000 A 
ATOM     15 CL   UNL     1      -1.504  12.307  17.814  0.00  0.00    +0.000 Cl
BRANCH  12  16
ATOM     16  C   UNL     1      -2.308  12.636  22.902  0.00  0.00    +0.000 A 
ATOM     17  C   UNL     1      -3.474  12.231  23.536  0.00  0.00    +0.000 A 
ATOM     18  N   UNL     1      -3.872  13.149  24.458  0.00  0.00    +0.000 NA
ATOM     19  N   UNL     1      -2.988  14.132  24.445  0.00  0.00    +0.000 NA
ATOM     20  N   UNL     1      -2.046  13.836  23.531  0.00  0.00    +0.000 N 
ATOM     21  C   UNL     1      -0.923  14.732  23.424  0.00  0.00    +0.000 C 
ENDBRANCH  12  16
BRANCH  11  22
ATOM     22  O   UNL     1      -0.225  10.715  23.346  0.00  0.00    +0.000 OA
ATOM     23  C   UNL     1       0.174   9.381  23.634  0.00  0.00    +0.000 C 
ENDBRANCH  11  22
ENDBRANCH   4   9
BRANCH   7  24
ATOM     24  C   UNL     1       3.946   5.780  18.316  0.00  0.00    +0.000 C 
ATOM     25  F   UNL     1       4.794   5.522  19.352  0.00  0.00    +0.000 F 
ATOM     26  F   UNL     1       3.196   4.647  18.186  0.00  0.00    +0.000 F 
ATOM     27  F   UNL     1       4.723   5.829  17.199  0.00  0.00    +0.000 F 
ENDBRANCH   7  24
BRANCH   1  29
ATOM     28  C   UNL     1       1.379   5.313  20.664  0.00  0.00    +0.000 C 
ATOM     29  N   UNL     1       2.307   6.431  20.690  0.00  0.00    +0.000 N 
ATOM     30  H   UNL     1       3.250   6.136  20.933  0.00  0.00    +0.000 HD
ENDBRANCH   1  29
TORSDOF 5
ENDMDL
MODEL 4
REMARK VINA RESULT:      -6.7      4.611      8.924
REMARK  Name = 
REMARK  8 active torsions:
REMARK  status: ('A' for Active; 'I' for Inactive)
REMARK    1  A    between atoms: C_1  and  N_2
REMARK    2  A    between atoms: N_2  and  C_3
REMARK    3  A    between atoms: N_6  and  C_7
REMARK    4  A    between atoms: C_9  and  O_10
REMARK    5  A    between atoms: O_10  and  C_11
REMARK    6  A    between atoms: C_12  and  C_13
REMARK    7  A    between atoms: N_17  and  C_18
REMARK    8  A    between atoms: C_24  and  C_25
REMARK                            x       y       z     vdW  Elec       q    Type
REMARK                         _______ _______ _______ _____ _____    ______ ____
ROOT
ATOM      1  C   UNL     1       0.843  10.926  20.679  0.00  0.00    +0.000 A 
ATOM      2  N   UNL     1       1.287   9.717  20.299  0.00  0.00    +0.000 NA
ATOM      3  C   UNL     1       0.817   8.603  20.875  0.00  0.00    +0.000 A 
ATOM      4  N   UNL     1       1.224   7.357  20.403  0.00  0.00    +0.000 N 
ATOM      5  N   UNL     1      -0.071   8.632  21.870  0.00  0.00    +0.000 NA
ATOM      6  C   UNL     1      -0.476   9.854  22.273  0.00  0.00    +0.000 A 
ATOM      7  C   UNL     1      -0.069  11.043  21.700  0.00  0.00    +0.000 A 
ATOM      8  H   UNL     1       0.643   6.609  20.757  0.00  0.00    +0.000 HD
ENDROOT
BRANCH   4   9
ATOM      9  C   UNL     1       2.269   7.011  19.529  0.00  0.00    +0.000 A 
ATOM     10  C   UNL     1       3.223   6.048  19.885  0.00  0.00    +0.000 A 
ATOM     11  C   UNL     1       4.298   5.689  19.058  0.00  0.00    +0.000 A 
ATOM     12  C   UNL     1       4.472   6.337  17.824  0.00  0.00    +0.000 A 
ATOM     13  C   UNL     1       3.530   7.324  17.465  0.00  0.00    +0.000 A 
ATOM     14  C   UNL     1       2.446   7.650  18.298  0.00  0.00    +0.000 A 
ATOM     15 CL   UNL     1       1.326   8.849  17.752  0.00  0.00    +0.000 Cl
BRANCH  12  16
ATOM     16  C   UNL     1       5.503   5.959  16.834  0.00  0.00    +0.000 A 
ATOM     17  C   UNL     1       5.366   5.126  15.732  0.00  0.00    +0.000 A 
ATOM     18  N   UNL     1       6.548   4.991  15.073  0.00  0.00    +0.000 NA
ATOM     19  N   UNL     1       7.445   5.722  15.713  0.00  0.00    +0.000 NA
ATOM     20  N   UNL     1       6.835   6.312  16.757  0.00  0.00    +0.000 N 
ATOM     21  C   UNL     1       7.610   7.243  17.537  0.00  0.00    +0.000 C 
ENDBRANCH  12  16
BRANCH  11  22
ATOM     22  O   UNL     1       5.191   4.710  19.397  0.00  0.00    +0.000 OA
ATOM     23  C   UNL     1       4.744   3.360  19.395  0.00  0.00    +0.000 C 
ENDBRANCH  11  22
ENDBRANCH   4   9
BRANCH   7  24
ATOM     24  C   UNL     1      -0.639  12.323  22.196  0.00  0.00    +0.000 C 
ATOM     25  F   UNL     1       0.241  13.358  22.310  0.00  0.00    +0.000 F 
ATOM     26  F   UNL     1      -1.618  12.784  21.366  0.00  0.00    +0.000 F 
ATOM     27  F   UNL     1      -1.230  12.197  23.417  0.00  0.00    +0.000 F 
ENDBRANCH   7  24
BRANCH   1  29
ATOM     28  C   UNL     1       0.710  12.488  18.837  0.00  0.00    +0.000 C 
ATOM     29  N   UNL     1       1.380  12.055  20.052  0.00  0.00    +0.000 N 
ATOM     30  H   UNL     1       1.510  12.822  20.708  0.00  0.00    +0.000 HD
ENDBRANCH   1  29
TORSDOF 5
ENDMDL
MODEL 5
REMARK VINA RESULT:      -6.6      4.815      8.671
REMARK  Name = 
REMARK  8 active torsions:
REMARK  status: ('A' for Active; 'I' for Inactive)
REMARK    1  A    between atoms: C_1  and  N_2
REMARK    2  A    between atoms: N_2  and  C_3
REMARK    3  A    between atoms: N_6  and  C_7
REMARK    4  A    between atoms: C_9  and  O_10
REMARK    5  A    between atoms: O_10  and  C_11
REMARK    6  A    between atoms: C_12  and  C_13
REMARK    7  A    between atoms: N_17  and  C_18
REMARK    8  A    between atoms: C_24  and  C_25
REMARK                            x       y       z     vdW  Elec       q    Type
REMARK                         _______ _______ _______ _____ _____    ______ ____
ROOT
ATOM      1  C   UNL     1      -2.616  10.119  18.140  0.00  0.00    +0.000 A 
ATOM      2  N   UNL     1      -1.433   9.698  18.616  0.00  0.00    +0.000 NA
ATOM      3  C   UNL     1      -0.791  10.391  19.565  0.00  0.00    +0.000 A 
ATOM      4  N   UNL     1       0.389   9.887  20.109  0.00  0.00    +0.000 N 
ATOM      5  N   UNL     1      -1.258  11.542  20.051  0.00  0.00    +0.000 NA
ATOM      6  C   UNL     1      -2.425  11.978  19.532  0.00  0.00    +0.000 A 
ATOM      7  C   UNL     1      -3.165  11.298  18.585  0.00  0.00    +0.000 A 
ATOM      8  H   UNL     1       0.655  10.373  20.954  0.00  0.00    +0.000 HD
ENDROOT
BRANCH   4   9
ATOM      9  C   UNL     1       1.214   8.835  19.677  0.00  0.00    +0.000 A 
ATOM     10  C   UNL     1       1.376   7.676  20.449  0.00  0.00    +0.000 A 
ATOM     11  C   UNL     1       2.209   6.612  20.073  0.00  0.00    +0.000 A 
ATOM     12  C   UNL     1       2.958   6.701  18.888  0.00  0.00    +0.000 A 
ATOM     13  C   UNL     1       2.820   7.872  18.114  0.00  0.00    +0.000 A 
ATOM     14  C   UNL     1       1.960   8.916  18.498  0.00  0.00    +0.000 A 
ATOM     15 CL   UNL     1       1.834  10.295  17.462  0.00  0.00    +0.000 Cl
BRANCH  12  16
ATOM     16  C   UNL     1       3.777   5.595  18.347  0.00  0.00    +0.000 A 
ATOM     17  C   UNL     1       5.160   5.471  18.354  0.00  0.00    +0.000 A 
ATOM     18  N   UNL     1       5.550   4.327  17.732  0.00  0.00    +0.000 NA
ATOM     19  N   UNL     1       4.456   3.701  17.332  0.00  0.00    +0.000 NA
ATOM     20  N   UNL     1       3.393   4.438  17.699  0.00  0.00    +0.000 N 
ATOM     21  C   UNL     1       2.086   3.886  17.449  0.00  0.00    +0.000 C 
ENDBRANCH  12  16
BRANCH  11  22
ATOM     22  O   UNL     1       2.316   5.465  20.811  0.00  0.00    +0.000 OA
ATOM     23  C   UNL     1       1.250   4.525  20.752  0.00  0.00    +0.000 C 
ENDBRANCH  11  22
ENDBRANCH   4   9
BRANCH   7  24
ATOM     24  C   UNL     1      -4.469  11.856  18.141  0.00  0.00    +0.000 C 
ATOM     25  F   UNL     1      -4.528  12.256  16.839  0.00  0.00    +0.000 F 
ATOM     26  F   UNL     1      -5.471  10.940  18.272  0.00  0.00    +0.000 F 
ATOM     27  F   UNL     1      -4.860  12.930  18.881  0.00  0.00    +0.000 F 
ENDBRANCH   7  24
BRANCH   1  29
ATOM     28  C   UNL     1      -2.813   9.645  15.776  0.00  0.00    +0.000 C 
ATOM     29  N   UNL     1      -3.233   9.362  17.139  0.00  0.00    +0.000 N 
ATOM     30  H   UNL     1      -3.200   8.366  17.347  0.00  0.00    +0.000 HD
ENDBRANCH   1  29
TORSDOF 5
ENDMDL
MODEL 6
REMARK VINA RESULT:      -6.6      3.410      5.045
REMARK  Name = 
REMARK  8 active torsions:
REMARK  status: ('A' for Active; 'I' for Inactive)
REMARK    1  A    between atoms: C_1  and  N_2
REMARK    2  A    between atoms: N_2  and  C_3
REMARK    3  A    between atoms: N_6  and  C_7
REMARK    4  A    between atoms: C_9  and  O_10
REMARK    5  A    between atoms: O_10  and  C_11
REMARK    6  A    between atoms: C_12  and  C_13
REMARK    7  A    between atoms: N_17  and  C_18
REMARK    8  A    between atoms: C_24  and  C_25
REMARK                            x       y       z     vdW  Elec       q    Type
REMARK                         _______ _______ _______ _____ _____    ______ ____
ROOT
ATOM      1  C   UNL     1       5.559   5.872  16.501  0.00  0.00    +0.000 A 
ATOM      2  N   UNL     1       4.534   5.873  17.367  0.00  0.00    +0.000 NA
ATOM      3  C   UNL     1       3.759   4.791  17.513  0.00  0.00    +0.000 A 
ATOM      4  N   UNL     1       2.758   4.783  18.482  0.00  0.00    +0.000 N 
ATOM      5  N   UNL     1       3.930   3.685  16.786  0.00  0.00    +0.000 NA
ATOM      6  C   UNL     1       4.936   3.712  15.887  0.00  0.00    +0.000 A 
ATOM      7  C   UNL     1       5.802   4.773  15.711  0.00  0.00    +0.000 A 
ATOM      8  H   UNL     1       2.398   3.853  18.647  0.00  0.00    +0.000 HD
ENDROOT
BRANCH   4   9
ATOM      9  C   UNL     1       2.217   5.834  19.241  0.00  0.00    +0.000 A 
ATOM     10  C   UNL     1       2.369   7.169  18.844  0.00  0.00    +0.000 A 
ATOM     11  C   UNL     1       1.870   8.252  19.582  0.00  0.00    +0.000 A 
ATOM     12  C   UNL     1       1.214   8.019  20.802  0.00  0.00    +0.000 A 
ATOM     13  C   UNL     1       1.075   6.679  21.224  0.00  0.00    +0.000 A 
ATOM     14  C   UNL     1       1.561   5.608  20.455  0.00  0.00    +0.000 A 
ATOM     15 CL   UNL     1       1.309   4.000  21.041  0.00  0.00    +0.000 Cl
BRANCH  12  16
ATOM     16  C   UNL     1       0.558   9.077  21.600  0.00  0.00    +0.000 A 
ATOM     17  C   UNL     1       0.745   9.379  22.941  0.00  0.00    +0.000 A 
ATOM     18  N   UNL     1      -0.064  10.400  23.330  0.00  0.00    +0.000 NA
ATOM     19  N   UNL     1      -0.763  10.776  22.272  0.00  0.00    +0.000 NA
ATOM     20  N   UNL     1      -0.397  10.004  21.233  0.00  0.00    +0.000 N 
ATOM     21  C   UNL     1      -0.967  10.312  19.946  0.00  0.00    +0.000 C 
ENDBRANCH  12  16
BRANCH  11  22
ATOM     22  O   UNL     1       1.980   9.547  19.155  0.00  0.00    +0.000 OA
ATOM     23  C   UNL     1       1.895   9.805  17.759  0.00  0.00    +0.000 C 
ENDBRANCH  11  22
ENDBRANCH   4   9
BRANCH   7  24
ATOM     24  C   UNL     1       6.911   4.654  14.729  0.00  0.00    +0.000 C 
ATOM     25  F   UNL     1       6.997   5.655  13.808  0.00  0.00    +0.000 F 
ATOM     26  F   UNL     1       8.125   4.643  15.350  0.00  0.00    +0.000 F 
ATOM     27  F   UNL     1       6.858   3.494  14.017  0.00  0.00    +0.000 F 
ENDBRANCH   7  24
BRANCH   1  29
ATOM     28  C   UNL     1       7.321   7.252  17.418  0.00  0.00    +0.000 C 
ATOM     29  N   UNL     1       6.325   7.036  16.381  0.00  0.00    +0.000 N 
ATOM     30  H   UNL     1       6.722   7.130  15.448  0.00  0.00    +0.000 HD
ENDBRANCH   1  29
TORSDOF 5
ENDMDL
MODEL 7
REMARK VINA RESULT:      -6.5      4.561      9.127
REMARK  Name = 
REMARK  8 active torsions:
REMARK  status: ('A' for Active; 'I' for Inactive)
REMARK    1  A    between atoms: C_1  and  N_2
REMARK    2  A    between atoms: N_2  and  C_3
REMARK    3  A    between atoms: N_6  and  C_7
REMARK    4  A    between atoms: C_9  and  O_10
REMARK    5  A    between atoms: O_10  and  C_11
REMARK    6  A    between atoms: C_12  and  C_13
REMARK    7  A    between atoms: N_17  and  C_18
REMARK    8  A    between atoms: C_24  and  C_25
REMARK                            x       y       z     vdW  Elec       q    Type
REMARK                         _______ _______ _______ _____ _____    ______ ____
ROOT
ATOM      1  C   UNL     1       0.923  10.050  19.540  0.00  0.00    +0.000 A 
ATOM      2  N   UNL     1       1.548   8.873  19.378  0.00  0.00    +0.000 NA
ATOM      3  C   UNL     1       1.623   7.993  20.386  0.00  0.00    +0.000 A 
ATOM      4  N   UNL     1       2.195   6.742  20.169  0.00  0.00    +0.000 N 
ATOM      5  N   UNL     1       1.130   8.251  21.598  0.00  0.00    +0.000 NA
ATOM      6  C   UNL     1       0.544   9.455  21.761  0.00  0.00    +0.000 A 
ATOM      7  C   UNL     1       0.391  10.394  20.759  0.00  0.00    +0.000 A 
ATOM      8  H   UNL     1       1.996   6.098  20.923  0.00  0.00    +0.000 HD
ENDROOT
BRANCH   4   9
ATOM      9  C   UNL     1       2.960   6.264  19.091  0.00  0.00    +0.000 A 
ATOM     10  C   UNL     1       3.922   7.072  18.470  0.00  0.00    +0.000 A 
ATOM     11  C   UNL     1       4.689   6.649  17.375  0.00  0.00    +0.000 A 
ATOM     12  C   UNL     1       4.480   5.370  16.831  0.00  0.00    +0.000 A 
ATOM     13  C   UNL     1       3.499   4.556  17.436  0.00  0.00    +0.000 A 
ATOM     14  C   UNL     1       2.758   4.992  18.548  0.00  0.00    +0.000 A 
ATOM     15 CL   UNL     1       1.603   3.905  19.238  0.00  0.00    +0.000 Cl
BRANCH  12  16
ATOM     16  C   UNL     1       5.307   4.788  15.754  0.00  0.00    +0.000 A 
ATOM     17  C   UNL     1       4.949   4.547  14.434  0.00  0.00    +0.000 A 
ATOM     18  N   UNL     1       5.972   3.969  13.748  0.00  0.00    +0.000 NA
ATOM     19  N   UNL     1       6.987   3.840  14.586  0.00  0.00    +0.000 NA
ATOM     20  N   UNL     1       6.610   4.332  15.780  0.00  0.00    +0.000 N 
ATOM     21  C   UNL     1       7.606   4.383  16.819  0.00  0.00    +0.000 C 
ENDBRANCH  12  16
BRANCH  11  22
ATOM     22  O   UNL     1       5.661   7.430  16.812  0.00  0.00    +0.000 OA
ATOM     23  C   UNL     1       6.868   7.631  17.537  0.00  0.00    +0.000 C 
ENDBRANCH  11  22
ENDBRANCH   4   9
BRANCH   7  24
ATOM     24  C   UNL     1      -0.331  11.660  21.052  0.00  0.00    +0.000 C 
ATOM     25  F   UNL     1      -1.396  11.933  20.247  0.00  0.00    +0.000 F 
ATOM     26  F   UNL     1      -0.839  11.660  22.318  0.00  0.00    +0.000 F 
ATOM     27  F   UNL     1       0.479  12.753  20.986  0.00  0.00    +0.000 F 
ENDBRANCH   7  24
BRANCH   1  29
ATOM     28  C   UNL     1       2.089  11.724  18.241  0.00  0.00    +0.000 C 
ATOM     29  N   UNL     1       0.888  10.934  18.456  0.00  0.00    +0.000 N 
ATOM     30  H   UNL     1       0.581  10.471  17.604  0.00  0.00    +0.000 HD
ENDBRANCH   1  29
TORSDOF 5
ENDMDL
MODEL 8
REMARK VINA RESULT:      -6.5      4.788      8.734
REMARK  Name = 
REMARK  8 active torsions:
REMARK  status: ('A' for Active; 'I' for Inactive)
REMARK    1  A    between atoms: C_1  and  N_2
REMARK    2  A    between atoms: N_2  and  C_3
REMARK    3  A    between atoms: N_6  and  C_7
REMARK    4  A    between atoms: C_9  and  O_10
REMARK    5  A    between atoms: O_10  and  C_11
REMARK    6  A    between atoms: C_12  and  C_13
REMARK    7  A    between atoms: N_17  and  C_18
REMARK    8  A    between atoms: C_24  and  C_25
REMARK                            x       y       z     vdW  Elec       q    Type
REMARK                         _______ _______ _______ _____ _____    ______ ____
ROOT
ATOM      1  C   UNL     1      -2.499  10.193  18.303  0.00  0.00    +0.000 A 
ATOM      2  N   UNL     1      -1.293   9.744  18.686  0.00  0.00    +0.000 NA
ATOM      3  C   UNL     1      -0.606  10.365  19.654  0.00  0.00    +0.000 A 
ATOM      4  N   UNL     1       0.600   9.829  20.098  0.00  0.00    +0.000 N 
ATOM      5  N   UNL     1      -1.053  11.472  20.250  0.00  0.00    +0.000 NA
ATOM      6  C   UNL     1      -2.244  11.939  19.825  0.00  0.00    +0.000 A 
ATOM      7  C   UNL     1      -3.029  11.330  18.865  0.00  0.00    +0.000 A 
ATOM      8  H   UNL     1       0.906  10.250  20.965  0.00  0.00    +0.000 HD
ENDROOT
BRANCH   4   9
ATOM      9  C   UNL     1       1.406   8.818  19.547  0.00  0.00    +0.000 A 
ATOM     10  C   UNL     1       1.573   7.587  20.196  0.00  0.00    +0.000 A 
ATOM     11  C   UNL     1       2.387   6.560  19.697  0.00  0.00    +0.000 A 
ATOM     12  C   UNL     1       3.112   6.761  18.511  0.00  0.00    +0.000 A 
ATOM     13  C   UNL     1       2.969   8.005  17.860  0.00  0.00    +0.000 A 
ATOM     14  C   UNL     1       2.128   9.011  18.364  0.00  0.00    +0.000 A 
ATOM     15 CL   UNL     1       1.993  10.488  17.474  0.00  0.00    +0.000 Cl
BRANCH  12  16
ATOM     16  C   UNL     1       3.909   5.709  17.845  0.00  0.00    +0.000 A 
ATOM     17  C   UNL     1       3.484   4.464  17.402  0.00  0.00    +0.000 A 
ATOM     18  N   UNL     1       4.515   3.757  16.867  0.00  0.00    +0.000 NA
ATOM     19  N   UNL     1       5.596   4.516  16.941  0.00  0.00    +0.000 NA
ATOM     20  N   UNL     1       5.249   5.684  17.512  0.00  0.00    +0.000 N 
ATOM     21  C   UNL     1       6.261   6.706  17.598  0.00  0.00    +0.000 C 
ENDBRANCH  12  16
BRANCH  11  22
ATOM     22  O   UNL     1       2.499   5.345  20.315  0.00  0.00    +0.000 OA
ATOM     23  C   UNL     1       1.314   4.591  20.537  0.00  0.00    +0.000 C 
ENDBRANCH  11  22
ENDBRANCH   4   9
BRANCH   7  24
ATOM     24  C   UNL     1      -4.354  11.913  18.530  0.00  0.00    +0.000 C 
ATOM     25  F   UNL     1      -4.699  13.036  19.221  0.00  0.00    +0.000 F 
ATOM     26  F   UNL     1      -4.419  12.276  17.217  0.00  0.00    +0.000 F 
ATOM     27  F   UNL     1      -5.376  11.031  18.712  0.00  0.00    +0.000 F 
ENDBRANCH   7  24
BRANCH   1  29
ATOM     28  C   UNL     1      -2.725   9.814  15.925  0.00  0.00    +0.000 C 
ATOM     29  N   UNL     1      -3.163   9.512  17.278  0.00  0.00    +0.000 N 
ATOM     30  H   UNL     1      -3.194   8.510  17.452  0.00  0.00    +0.000 HD
ENDBRANCH   1  29
TORSDOF 5
ENDMDL
MODEL 9
REMARK VINA RESULT:      -6.5      1.665      2.028
REMARK  Name = 
REMARK  8 active torsions:
REMARK  status: ('A' for Active; 'I' for Inactive)
REMARK    1  A    between atoms: C_1  and  N_2
REMARK    2  A    between atoms: N_2  and  C_3
REMARK    3  A    between atoms: N_6  and  C_7
REMARK    4  A    between atoms: C_9  and  O_10
REMARK    5  A    between atoms: O_10  and  C_11
REMARK    6  A    between atoms: C_12  and  C_13
REMARK    7  A    between atoms: N_17  and  C_18
REMARK    8  A    between atoms: C_24  and  C_25
REMARK                            x       y       z     vdW  Elec       q    Type
REMARK                         _______ _______ _______ _____ _____    ______ ____
ROOT
ATOM      1  C   UNL     1       2.226   7.432  19.563  0.00  0.00    +0.000 A 
ATOM      2  N   UNL     1       1.565   8.600  19.580  0.00  0.00    +0.000 NA
ATOM      3  C   UNL     1       1.550   9.395  18.502  0.00  0.00    +0.000 A 
ATOM      4  N   UNL     1       0.783  10.558  18.512  0.00  0.00    +0.000 N 
ATOM      5  N   UNL     1       2.216   9.098  17.385  0.00  0.00    +0.000 NA
ATOM      6  C   UNL     1       2.913   7.943  17.396  0.00  0.00    +0.000 A 
ATOM      7  C   UNL     1       2.941   7.053  18.452  0.00  0.00    +0.000 A 
ATOM      8  H   UNL     1       0.675  10.948  17.586  0.00  0.00    +0.000 HD
ENDROOT
BRANCH   4   9
ATOM      9  C   UNL     1       0.152  11.224  19.576  0.00  0.00    +0.000 A 
ATOM     10  C   UNL     1       0.171  10.698  20.875  0.00  0.00    +0.000 A 
ATOM     11  C   UNL     1      -0.467  11.313  21.962  0.00  0.00    +0.000 A 
ATOM     12  C   UNL     1      -1.198  12.496  21.762  0.00  0.00    +0.000 A 
ATOM     13  C   UNL     1      -1.242  13.023  20.454  0.00  0.00    +0.000 A 
ATOM     14  C   UNL     1      -0.575  12.403  19.384  0.00  0.00    +0.000 A 
ATOM     15 CL   UNL     1      -0.661  13.147  17.825  0.00  0.00    +0.000 Cl
BRANCH  12  16
ATOM     16  C   UNL     1      -1.812  13.280  22.855  0.00  0.00    +0.000 A 
ATOM     17  C   UNL     1      -1.191  14.160  23.730  0.00  0.00    +0.000 A 
ATOM     18  N   UNL     1      -2.081  14.669  24.624  0.00  0.00    +0.000 NA
ATOM     19  N   UNL     1      -3.264  14.149  24.344  0.00  0.00    +0.000 NA
ATOM     20  N   UNL     1      -3.122  13.328  23.288  0.00  0.00    +0.000 N 
ATOM     21  C   UNL     1      -4.316  12.730  22.748  0.00  0.00    +0.000 C 
ENDBRANCH  12  16
BRANCH  11  22
ATOM     22  O   UNL     1      -0.395  10.815  23.235  0.00  0.00    +0.000 OA
ATOM     23  C   UNL     1      -0.082   9.438  23.402  0.00  0.00    +0.000 C 
ENDBRANCH  11  22
ENDBRANCH   4   9
BRANCH   7  24
ATOM     24  C   UNL     1       3.699   5.782  18.314  0.00  0.00    +0.000 C 
ATOM     25  F   UNL     1       2.944   4.653  18.196  0.00  0.00    +0.000 F 
ATOM     26  F   UNL     1       4.489   5.794  17.202  0.00  0.00    +0.000 F 
ATOM     27  F   UNL     1       4.545   5.560  19.357  0.00  0.00    +0.000 F 
ENDBRANCH   7  24
BRANCH   1  29
ATOM     28  C   UNL     1       1.334   5.496  20.706  0.00  0.00    +0.000 C 
ATOM     29  N   UNL     1       2.217   6.650  20.723  0.00  0.00    +0.000 N 
ATOM     30  H   UNL     1       3.160   6.402  21.015  0.00  0.00    +0.000 HD
ENDBRANCH   1  29
TORSDOF 5
ENDMDL
