MODEL 1
REMARK VINA RESULT:      -6.9      0.000      0.000
REMARK  Name = 
REMARK  6 active torsions:
REMARK  status: ('A' for Active; 'I' for Inactive)
REMARK    1  A    between atoms: C_1  and  O_2
REMARK    2  A    between atoms: O_2  and  C_3
REMARK    3  A    between atoms: C_4  and  N_5
REMARK    4  A    between atoms: C_8  and  N_9
REMARK    5  A    between atoms: N_17  and  N_18
REMARK    6  A    between atoms: N_21  and  C_22
REMARK                            x       y       z     vdW  Elec       q    Type
REMARK                         _______ _______ _______ _____ _____    ______ ____
ROOT
ATOM      1  C   UNL     1       1.702   7.822  19.814  0.00  0.00    +0.000 A 
ATOM      2  C   UNL     1       1.480   9.091  19.148  0.00  0.00    +0.000 A 
ATOM      3  C   UNL     1       2.189   9.290  17.950  0.00  0.00    +0.000 A 
ATOM      4  F   UNL     1       2.113  10.448  17.273  0.00  0.00    +0.000 F 
ATOM      5  C   UNL     1       3.059   8.350  17.441  0.00  0.00    +0.000 A 
ATOM      6  C   UNL     1       3.244   7.125  18.106  0.00  0.00    +0.000 A 
ATOM      7  C   UNL     1       4.211   6.223  17.480  0.00  0.00    +0.000 A 
ATOM      8  O   UNL     1       4.917   6.603  16.547  0.00  0.00    +0.000 OA
ATOM      9  N   UNL     1       4.307   4.969  18.046  0.00  0.00    +0.000 N 
ATOM     10  C   UNL     1       3.759   4.595  19.270  0.00  0.00    +0.000 A 
ATOM     11  O   UNL     1       4.185   3.570  19.817  0.00  0.00    +0.000 OA
ATOM     12  N   UNL     1       2.770   5.442  19.818  0.00  0.00    +0.000 N 
ATOM     13  C   UNL     1       2.550   6.787  19.275  0.00  0.00    +0.000 A 
ENDROOT
BRANCH   2  14
ATOM     14  N   UNL     1       0.653  10.099  19.621  0.00  0.00    +0.000 N 
ATOM     15  C   UNL     1      -0.809  10.117  19.512  0.00  0.00    +0.000 C 
ATOM     16  C   UNL     1      -1.140  11.598  19.402  0.00  0.00    +0.000 C 
ATOM     17  C   UNL     1      -0.071  12.294  20.244  0.00  0.00    +0.000 C 
ATOM     18  C   UNL     1       1.096  11.274  20.355  0.00  0.00    +0.000 C 
BRANCH  17  19
ATOM     19  N   UNL     1       0.301  13.579  19.636  0.00  0.00    +0.000 NA
ATOM     20  H   UNL     1       0.527  13.425  18.651  0.00  0.00    +0.000 HD
ATOM     21  H   UNL     1       1.158  13.926  20.066  0.00  0.00    +0.000 HD
ENDBRANCH  17  19
ENDBRANCH   2  14
BRANCH   9  22
ATOM     22  N   UNL     1       5.207   4.035  17.413  0.00  0.00    +0.000 N 
ATOM     23  H   UNL     1       5.542   4.484  16.557  0.00  0.00    +0.000 HD
ATOM     24  H   UNL     1       6.012   3.941  18.041  0.00  0.00    +0.000 HD
ENDBRANCH   9  22
BRANCH  12  25
ATOM     25  C   UNL     1       1.903   4.890  20.869  0.00  0.00    +0.000 C 
ATOM     26  C   UNL     1       1.031   3.648  20.765  0.00  0.00    +0.000 C 
ATOM     27  C   UNL     1       2.266   3.604  21.598  0.00  0.00    +0.000 C 
ENDBRANCH  12  25
BRANCH   1  29
ATOM     28  C   UNL     1       1.348   8.394  22.067  0.00  0.00    +0.000 C 
ATOM     29  O   UNL     1       0.948   7.600  20.950  0.00  0.00    +0.000 OA
ENDBRANCH   1  29
TORSDOF 5
ENDMDL
MODEL 2
REMARK VINA RESULT:      -6.7      9.108     10.753
REMARK  Name = 
REMARK  6 active torsions:
REMARK  status: ('A' for Active; 'I' for Inactive)
REMARK    1  A    between atoms: C_1  and  O_2
REMARK    2  A    between atoms: O_2  and  C_3
REMARK    3  A    between atoms: C_4  and  N_5
REMARK    4  A    between atoms: C_8  and  N_9
REMARK    5  A    between atoms: N_17  and  N_18
REMARK    6  A    between atoms: N_21  and  C_22
REMARK                            x       y       z     vdW  Elec       q    Type
REMARK                         _______ _______ _______ _____ _____    ______ ____
ROOT
ATOM      1  C   UNL     1       8.968  14.196  20.788  0.00  0.00    +0.000 A 
ATOM      2  C   UNL     1       8.673  13.059  21.641  0.00  0.00    +0.000 A 
ATOM      3  C   UNL     1       9.166  11.817  21.204  0.00  0.00    +0.000 A 
ATOM      4  F   UNL     1       8.906  10.683  21.876  0.00  0.00    +0.000 F 
ATOM      5  C   UNL     1       9.872  11.673  20.030  0.00  0.00    +0.000 A 
ATOM      6  C   UNL     1      10.151  12.797  19.231  0.00  0.00    +0.000 A 
ATOM      7  C   UNL     1      10.885  12.511  17.999  0.00  0.00    +0.000 A 
ATOM      8  O   UNL     1      11.077  11.352  17.632  0.00  0.00    +0.000 OA
ATOM      9  N   UNL     1      11.279  13.614  17.270  0.00  0.00    +0.000 N 
ATOM     10  C   UNL     1      10.833  14.916  17.481  0.00  0.00    +0.000 A 
ATOM     11  O   UNL     1      10.991  15.745  16.576  0.00  0.00    +0.000 OA
ATOM     12  N   UNL     1      10.196  15.188  18.712  0.00  0.00    +0.000 N 
ATOM     13  C   UNL     1       9.764  14.095  19.590  0.00  0.00    +0.000 A 
ENDROOT
BRANCH   2  14
ATOM     14  N   UNL     1       7.934  13.121  22.813  0.00  0.00    +0.000 N 
ATOM     15  C   UNL     1       8.467  13.472  24.133  0.00  0.00    +0.000 C 
ATOM     16  C   UNL     1       7.601  12.669  25.092  0.00  0.00    +0.000 C 
ATOM     17  C   UNL     1       6.232  12.611  24.417  0.00  0.00    +0.000 C 
ATOM     18  C   UNL     1       6.499  12.905  22.914  0.00  0.00    +0.000 C 
BRANCH  17  19
ATOM     19  N   UNL     1       5.588  11.316  24.676  0.00  0.00    +0.000 NA
ATOM     20  H   UNL     1       4.672  11.481  25.098  0.00  0.00    +0.000 HD
ATOM     21  H   UNL     1       6.125  10.799  25.371  0.00  0.00    +0.000 HD
ENDBRANCH  17  19
ENDBRANCH   2  14
BRANCH   9  22
ATOM     22  N   UNL     1      12.058  13.367  16.082  0.00  0.00    +0.000 N 
ATOM     23  H   UNL     1      12.834  14.034  16.096  0.00  0.00    +0.000 HD
ATOM     24  H   UNL     1      12.461  12.431  16.192  0.00  0.00    +0.000 HD
ENDBRANCH   9  22
BRANCH  12  25
ATOM     25  C   UNL     1      10.082  16.593  19.127  0.00  0.00    +0.000 C 
ATOM     26  C   UNL     1      10.516  17.812  18.328  0.00  0.00    +0.000 C 
ATOM     27  C   UNL     1       9.062  17.526  18.491  0.00  0.00    +0.000 C 
ENDBRANCH  12  25
BRANCH   1  29
ATOM     28  C   UNL     1       7.202  15.744  20.900  0.00  0.00    +0.000 C 
ATOM     29  O   UNL     1       8.546  15.424  21.258  0.00  0.00    +0.000 OA
ENDBRANCH   1  29
TORSDOF 5
ENDMDL
MODEL 3
REMARK VINA RESULT:      -6.7      8.713     10.668
REMARK  Name = 
REMARK  6 active torsions:
REMARK  status: ('A' for Active; 'I' for Inactive)
REMARK    1  A    between atoms: C_1  and  O_2
REMARK    2  A    between atoms: O_2  and  C_3
REMARK    3  A    between atoms: C_4  and  N_5
REMARK    4  A    between atoms: C_8  and  N_9
REMARK    5  A    between atoms: N_17  and  N_18
REMARK    6  A    between atoms: N_21  and  C_22
REMARK                            x       y       z     vdW  Elec       q    Type
REMARK                         _______ _______ _______ _____ _____    ______ ____
ROOT
ATOM      1  C   UNL     1       8.652  14.304  20.457  0.00  0.00    +0.000 A 
ATOM      2  C   UNL     1       9.928  13.746  20.051  0.00  0.00    +0.000 A 
ATOM      3  C   UNL     1      10.337  12.585  20.729  0.00  0.00    +0.000 A 
ATOM      4  F   UNL     1      11.526  12.010  20.484  0.00  0.00    +0.000 F 
ATOM      5  C   UNL     1       9.586  12.013  21.735  0.00  0.00    +0.000 A 
ATOM      6  C   UNL     1       8.348  12.573  22.097  0.00  0.00    +0.000 A 
ATOM      7  C   UNL     1       7.661  11.891  23.193  0.00  0.00    +0.000 A 
ATOM      8  O   UNL     1       8.223  11.008  23.841  0.00  0.00    +0.000 OA
ATOM      9  N   UNL     1       6.389  12.347  23.475  0.00  0.00    +0.000 N 
ATOM     10  C   UNL     1       5.831  13.523  22.981  0.00  0.00    +0.000 A 
ATOM     11  O   UNL     1       4.837  13.987  23.553  0.00  0.00    +0.000 OA
ATOM     12  N   UNL     1       6.468  14.122  21.871  0.00  0.00    +0.000 N 
ATOM     13  C   UNL     1       7.808  13.694  21.455  0.00  0.00    +0.000 A 
ENDROOT
BRANCH   2  14
ATOM     14  N   UNL     1      10.755  14.289  19.078  0.00  0.00    +0.000 N 
ATOM     15  C   UNL     1      11.929  15.129  19.336  0.00  0.00    +0.000 C 
ATOM     16  C   UNL     1      11.975  16.055  18.130  0.00  0.00    +0.000 C 
ATOM     17  C   UNL     1      11.433  15.212  16.976  0.00  0.00    +0.000 C 
ATOM     18  C   UNL     1      10.627  14.065  17.646  0.00  0.00    +0.000 C 
BRANCH  17  19
ATOM     19  N   UNL     1      10.648  16.048  16.057  0.00  0.00    +0.000 NA
ATOM     20  H   UNL     1       9.663  15.784  16.129  0.00  0.00    +0.000 HD
ATOM     21  H   UNL     1      10.919  15.848  15.095  0.00  0.00    +0.000 HD
ENDBRANCH  17  19
ENDBRANCH   2  14
BRANCH   9  22
ATOM     22  N   UNL     1       5.661  11.653  24.508  0.00  0.00    +0.000 N 
ATOM     23  H   UNL     1       6.313  11.514  25.285  0.00  0.00    +0.000 HD
ATOM     24  H   UNL     1       4.937  12.302  24.834  0.00  0.00    +0.000 HD
ENDBRANCH   9  22
BRANCH  12  25
ATOM     25  C   UNL     1       5.701  15.104  21.091  0.00  0.00    +0.000 C 
ATOM     26  C   UNL     1       4.312  15.632  21.414  0.00  0.00    +0.000 C 
ATOM     27  C   UNL     1       5.492  16.525  21.594  0.00  0.00    +0.000 C 
ENDBRANCH  12  25
BRANCH   1  29
ATOM     28  C   UNL     1       8.770  16.638  20.193  0.00  0.00    +0.000 C 
ATOM     29  O   UNL     1       8.220  15.401  19.738  0.00  0.00    +0.000 OA
ENDBRANCH   1  29
TORSDOF 5
ENDMDL
MODEL 4
REMARK VINA RESULT:      -6.6      0.848      1.209
REMARK  Name = 
REMARK  6 active torsions:
REMARK  status: ('A' for Active; 'I' for Inactive)
REMARK    1  A    between atoms: C_1  and  O_2
REMARK    2  A    between atoms: O_2  and  C_3
REMARK    3  A    between atoms: C_4  and  N_5
REMARK    4  A    between atoms: C_8  and  N_9
REMARK    5  A    between atoms: N_17  and  N_18
REMARK    6  A    between atoms: N_21  and  C_22
REMARK                            x       y       z     vdW  Elec       q    Type
REMARK                         _______ _______ _______ _____ _____    ______ ____
ROOT
ATOM      1  C   UNL     1       1.826   7.762  19.851  0.00  0.00    +0.000 A 
ATOM      2  C   UNL     1       1.601   9.027  19.177  0.00  0.00    +0.000 A 
ATOM      3  C   UNL     1       2.236   9.184  17.932  0.00  0.00    +0.000 A 
ATOM      4  F   UNL     1       2.153  10.333  17.240  0.00  0.00    +0.000 F 
ATOM      5  C   UNL     1       3.041   8.208  17.385  0.00  0.00    +0.000 A 
ATOM      6  C   UNL     1       3.231   6.988  18.060  0.00  0.00    +0.000 A 
ATOM      7  C   UNL     1       4.126   6.046  17.389  0.00  0.00    +0.000 A 
ATOM      8  O   UNL     1       4.782   6.387  16.405  0.00  0.00    +0.000 OA
ATOM      9  N   UNL     1       4.220   4.798  17.970  0.00  0.00    +0.000 N 
ATOM     10  C   UNL     1       3.742   4.463  19.234  0.00  0.00    +0.000 A 
ATOM     11  O   UNL     1       4.170   3.434  19.771  0.00  0.00    +0.000 OA
ATOM     12  N   UNL     1       2.817   5.350  19.829  0.00  0.00    +0.000 N 
ATOM     13  C   UNL     1       2.604   6.692  19.277  0.00  0.00    +0.000 A 
ENDROOT
BRANCH   2  14
ATOM     14  N   UNL     1       0.838  10.069  19.684  0.00  0.00    +0.000 N 
ATOM     15  C   UNL     1       1.292  11.455  19.838  0.00  0.00    +0.000 C 
ATOM     16  C   UNL     1       0.528  11.947  21.058  0.00  0.00    +0.000 C 
ATOM     17  C   UNL     1      -0.807  11.205  20.999  0.00  0.00    +0.000 C 
ATOM     18  C   UNL     1      -0.555   9.970  20.091  0.00  0.00    +0.000 C 
BRANCH  17  19
ATOM     19  N   UNL     1      -1.270  10.877  22.354  0.00  0.00    +0.000 NA
ATOM     20  H   UNL     1      -1.504   9.883  22.392  0.00  0.00    +0.000 HD
ATOM     21  H   UNL     1      -2.139  11.374  22.550  0.00  0.00    +0.000 HD
ENDBRANCH  17  19
ENDBRANCH   2  14
BRANCH   9  22
ATOM     22  N   UNL     1       5.047   3.826  17.298  0.00  0.00    +0.000 N 
ATOM     23  H   UNL     1       6.001   4.196  17.305  0.00  0.00    +0.000 HD
ATOM     24  H   UNL     1       5.042   2.988  17.888  0.00  0.00    +0.000 HD
ENDBRANCH   9  22
BRANCH  12  25
ATOM     25  C   UNL     1       2.004   4.843  20.944  0.00  0.00    +0.000 C 
ATOM     26  C   UNL     1       1.054   3.656  20.906  0.00  0.00    +0.000 C 
ATOM     27  C   UNL     1       2.345   3.534  21.640  0.00  0.00    +0.000 C 
ENDBRANCH  12  25
BRANCH   1  29
ATOM     28  C   UNL     1       1.609   8.414  22.100  0.00  0.00    +0.000 C 
ATOM     29  O   UNL     1       1.142   7.584  21.037  0.00  0.00    +0.000 OA
ENDBRANCH   1  29
TORSDOF 5
ENDMDL
MODEL 5
REMARK VINA RESULT:      -6.4      9.074     10.613
REMARK  Name = 
REMARK  6 active torsions:
REMARK  status: ('A' for Active; 'I' for Inactive)
REMARK    1  A    between atoms: C_1  and  O_2
REMARK    2  A    between atoms: O_2  and  C_3
REMARK    3  A    between atoms: C_4  and  N_5
REMARK    4  A    between atoms: C_8  and  N_9
REMARK    5  A    between atoms: N_17  and  N_18
REMARK    6  A    between atoms: N_21  and  C_22
REMARK                            x       y       z     vdW  Elec       q    Type
REMARK                         _______ _______ _______ _____ _____    ______ ____
ROOT
ATOM      1  C   UNL     1       9.102  13.849  21.160  0.00  0.00    +0.000 A 
ATOM      2  C   UNL     1       8.047  14.509  21.905  0.00  0.00    +0.000 A 
ATOM      3  C   UNL     1       7.522  15.678  21.325  0.00  0.00    +0.000 A 
ATOM      4  F   UNL     1       6.584  16.411  21.948  0.00  0.00    +0.000 F 
ATOM      5  C   UNL     1       7.987  16.184  20.130  0.00  0.00    +0.000 A 
ATOM      6  C   UNL     1       9.004  15.513  19.428  0.00  0.00    +0.000 A 
ATOM      7  C   UNL     1       9.428  16.163  18.188  0.00  0.00    +0.000 A 
ATOM      8  O   UNL     1       9.032  17.291  17.897  0.00  0.00    +0.000 OA
ATOM      9  N   UNL     1      10.330  15.453  17.422  0.00  0.00    +0.000 N 
ATOM     10  C   UNL     1      11.029  14.326  17.844  0.00  0.00    +0.000 A 
ATOM     11  O   UNL     1      12.033  13.984  17.206  0.00  0.00    +0.000 OA
ATOM     12  N   UNL     1      10.554  13.668  19.001  0.00  0.00    +0.000 N 
ATOM     13  C   UNL     1       9.565  14.309  19.874  0.00  0.00    +0.000 A 
ENDROOT
BRANCH   2  14
ATOM     14  N   UNL     1       7.558  14.082  23.131  0.00  0.00    +0.000 N 
ATOM     15  C   UNL     1       8.308  14.085  24.390  0.00  0.00    +0.000 C 
ATOM     16  C   UNL     1       7.739  12.894  25.147  0.00  0.00    +0.000 C 
ATOM     17  C   UNL     1       6.274  12.830  24.716  0.00  0.00    +0.000 C 
ATOM     18  C   UNL     1       6.202  13.618  23.378  0.00  0.00    +0.000 C 
BRANCH  17  19
ATOM     19  N   UNL     1       5.830  11.432  24.622  0.00  0.00    +0.000 NA
ATOM     20  H   UNL     1       6.570  10.826  24.981  0.00  0.00    +0.000 HD
ATOM     21  H   UNL     1       5.711  11.175  23.643  0.00  0.00    +0.000 HD
ENDBRANCH  17  19
ENDBRANCH   2  14
BRANCH   9  22
ATOM     22  N   UNL     1      10.720  16.039  16.163  0.00  0.00    +0.000 N 
ATOM     23  H   UNL     1      11.080  16.974  16.372  0.00  0.00    +0.000 HD
ATOM     24  H   UNL     1      11.508  15.481  15.818  0.00  0.00    +0.000 HD
ENDBRANCH   9  22
BRANCH  12  25
ATOM     25  C   UNL     1      11.001  12.288  19.234  0.00  0.00    +0.000 C 
ATOM     26  C   UNL     1      12.114  11.559  18.499  0.00  0.00    +0.000 C 
ATOM     27  C   UNL     1      12.332  11.991  19.908  0.00  0.00    +0.000 C 
ENDBRANCH  12  25
BRANCH   1  29
ATOM     28  C   UNL     1       8.672  11.563  21.507  0.00  0.00    +0.000 C 
ATOM     29  O   UNL     1       9.564  12.662  21.696  0.00  0.00    +0.000 OA
ENDBRANCH   1  29
TORSDOF 5
ENDMDL
MODEL 6
REMARK VINA RESULT:      -6.4      4.578      6.460
REMARK  Name = 
REMARK  6 active torsions:
REMARK  status: ('A' for Active; 'I' for Inactive)
REMARK    1  A    between atoms: C_1  and  O_2
REMARK    2  A    between atoms: O_2  and  C_3
REMARK    3  A    between atoms: C_4  and  N_5
REMARK    4  A    between atoms: C_8  and  N_9
REMARK    5  A    between atoms: N_17  and  N_18
REMARK    6  A    between atoms: N_21  and  C_22
REMARK                            x       y       z     vdW  Elec       q    Type
REMARK                         _______ _______ _______ _____ _____    ______ ____
ROOT
ATOM      1  C   UNL     1       4.376   4.477  18.280  0.00  0.00    +0.000 A 
ATOM      2  C   UNL     1       3.371   3.439  18.141  0.00  0.00    +0.000 A 
ATOM      3  C   UNL     1       3.355   2.758  16.912  0.00  0.00    +0.000 A 
ATOM      4  F   UNL     1       2.433   1.818  16.642  0.00  0.00    +0.000 F 
ATOM      5  C   UNL     1       4.224   3.062  15.886  0.00  0.00    +0.000 A 
ATOM      6  C   UNL     1       5.193   4.067  16.056  0.00  0.00    +0.000 A 
ATOM      7  C   UNL     1       6.038   4.312  14.887  0.00  0.00    +0.000 A 
ATOM      8  O   UNL     1       5.785   3.789  13.802  0.00  0.00    +0.000 OA
ATOM      9  N   UNL     1       7.076   5.201  15.079  0.00  0.00    +0.000 N 
ATOM     10  C   UNL     1       7.223   6.037  16.183  0.00  0.00    +0.000 A 
ATOM     11  O   UNL     1       7.989   7.005  16.089  0.00  0.00    +0.000 OA
ATOM     12  N   UNL     1       6.454   5.733  17.328  0.00  0.00    +0.000 N 
ATOM     13  C   UNL     1       5.347   4.775  17.255  0.00  0.00    +0.000 A 
ENDROOT
BRANCH   2  14
ATOM     14  N   UNL     1       2.439   3.107  19.113  0.00  0.00    +0.000 N 
ATOM     15  C   UNL     1       1.038   3.540  19.126  0.00  0.00    +0.000 C 
ATOM     16  C   UNL     1       0.710   3.637  20.609  0.00  0.00    +0.000 C 
ATOM     17  C   UNL     1       1.549   2.538  21.261  0.00  0.00    +0.000 C 
ATOM     18  C   UNL     1       2.683   2.226  20.245  0.00  0.00    +0.000 C 
BRANCH  17  19
ATOM     19  N   UNL     1       2.022   2.973  22.583  0.00  0.00    +0.000 NA
ATOM     20  H   UNL     1       1.212   3.145  23.182  0.00  0.00    +0.000 HD
ATOM     21  H   UNL     1       2.500   3.869  22.499  0.00  0.00    +0.000 HD
ENDBRANCH  17  19
ENDBRANCH   2  14
BRANCH   9  22
ATOM     22  N   UNL     1       7.964   5.417  13.963  0.00  0.00    +0.000 N 
ATOM     23  H   UNL     1       8.900   5.145  14.276  0.00  0.00    +0.000 HD
ATOM     24  H   UNL     1       7.681   4.751  13.238  0.00  0.00    +0.000 HD
ENDBRANCH   9  22
BRANCH  12  25
ATOM     25  C   UNL     1       6.872   6.324  18.608  0.00  0.00    +0.000 C 
ATOM     26  C   UNL     1       7.849   5.726  19.607  0.00  0.00    +0.000 C 
ATOM     27  C   UNL     1       8.267   6.903  18.794  0.00  0.00    +0.000 C 
ENDBRANCH  12  25
BRANCH   1  29
ATOM     28  C   UNL     1       3.469   6.127  19.687  0.00  0.00    +0.000 C 
ATOM     29  O   UNL     1       4.437   5.093  19.514  0.00  0.00    +0.000 OA
ENDBRANCH   1  29
TORSDOF 5
ENDMDL
MODEL 7
REMARK VINA RESULT:      -6.4      5.723      8.345
REMARK  Name = 
REMARK  6 active torsions:
REMARK  status: ('A' for Active; 'I' for Inactive)
REMARK    1  A    between atoms: C_1  and  O_2
REMARK    2  A    between atoms: O_2  and  C_3
REMARK    3  A    between atoms: C_4  and  N_5
REMARK    4  A    between atoms: C_8  and  N_9
REMARK    5  A    between atoms: N_17  and  N_18
REMARK    6  A    between atoms: N_21  and  C_22
REMARK                            x       y       z     vdW  Elec       q    Type
REMARK                         _______ _______ _______ _____ _____    ______ ____
ROOT
ATOM      1  C   UNL     1      -4.109  12.507  20.469  0.00  0.00    +0.000 A 
ATOM      2  C   UNL     1      -4.429  13.125  21.743  0.00  0.00    +0.000 A 
ATOM      3  C   UNL     1      -3.377  13.202  22.672  0.00  0.00    +0.000 A 
ATOM      4  F   UNL     1      -3.565  13.698  23.907  0.00  0.00    +0.000 F 
ATOM      5  C   UNL     1      -2.118  12.708  22.407  0.00  0.00    +0.000 A 
ATOM      6  C   UNL     1      -1.837  12.124  21.158  0.00  0.00    +0.000 A 
ATOM      7  C   UNL     1      -0.474  11.615  21.009  0.00  0.00    +0.000 A 
ATOM      8  O   UNL     1       0.290  11.559  21.972  0.00  0.00    +0.000 OA
ATOM      9  N   UNL     1      -0.144  11.159  19.750  0.00  0.00    +0.000 N 
ATOM     10  C   UNL     1      -1.049  10.923  18.718  0.00  0.00    +0.000 A 
ATOM     11  O   UNL     1      -0.689  10.214  17.770  0.00  0.00    +0.000 OA
ATOM     12  N   UNL     1      -2.336  11.491  18.848  0.00  0.00    +0.000 N 
ATOM     13  C   UNL     1      -2.786  12.042  20.131  0.00  0.00    +0.000 A 
ENDROOT
BRANCH   2  14
ATOM     14  N   UNL     1      -5.681  13.607  22.095  0.00  0.00    +0.000 N 
ATOM     15  C   UNL     1      -6.169  14.966  21.839  0.00  0.00    +0.000 C 
ATOM     16  C   UNL     1      -7.107  15.233  23.007  0.00  0.00    +0.000 C 
ATOM     17  C   UNL     1      -7.713  13.868  23.333  0.00  0.00    +0.000 C 
ATOM     18  C   UNL     1      -6.736  12.825  22.721  0.00  0.00    +0.000 C 
BRANCH  17  19
ATOM     19  N   UNL     1      -7.917  13.732  24.782  0.00  0.00    +0.000 NA
ATOM     20  H   UNL     1      -8.053  14.661  25.185  0.00  0.00    +0.000 HD
ATOM     21  H   UNL     1      -7.070  13.364  25.214  0.00  0.00    +0.000 HD
ENDBRANCH  17  19
ENDBRANCH   2  14
BRANCH   9  22
ATOM     22  N   UNL     1       1.212  10.708  19.554  0.00  0.00    +0.000 N 
ATOM     23  H   UNL     1       1.417  10.052  20.312  0.00  0.00    +0.000 HD
ATOM     24  H   UNL     1       1.213  10.171  18.680  0.00  0.00    +0.000 HD
ENDBRANCH   9  22
BRANCH  12  25
ATOM     25  C   UNL     1      -3.158  11.607  17.635  0.00  0.00    +0.000 C 
ATOM     26  C   UNL     1      -2.810  11.080  16.252  0.00  0.00    +0.000 C 
ATOM     27  C   UNL     1      -3.872  10.400  17.046  0.00  0.00    +0.000 C 
ENDBRANCH  12  25
BRANCH   1  29
ATOM     28  C   UNL     1      -6.030  11.406  19.679  0.00  0.00    +0.000 C 
ATOM     29  O   UNL     1      -5.123  12.499  19.533  0.00  0.00    +0.000 OA
ENDBRANCH   1  29
TORSDOF 5
ENDMDL
MODEL 8
REMARK VINA RESULT:      -6.3      9.163     10.760
REMARK  Name = 
REMARK  6 active torsions:
REMARK  status: ('A' for Active; 'I' for Inactive)
REMARK    1  A    between atoms: C_1  and  O_2
REMARK    2  A    between atoms: O_2  and  C_3
REMARK    3  A    between atoms: C_4  and  N_5
REMARK    4  A    between atoms: C_8  and  N_9
REMARK    5  A    between atoms: N_17  and  N_18
REMARK    6  A    between atoms: N_21  and  C_22
REMARK                            x       y       z     vdW  Elec       q    Type
REMARK                         _______ _______ _______ _____ _____    ______ ____
ROOT
ATOM      1  C   UNL     1       8.920  14.312  20.759  0.00  0.00    +0.000 A 
ATOM      2  C   UNL     1       8.629  13.204  21.650  0.00  0.00    +0.000 A 
ATOM      3  C   UNL     1       9.127  11.950  21.256  0.00  0.00    +0.000 A 
ATOM      4  F   UNL     1       8.873  10.839  21.966  0.00  0.00    +0.000 F 
ATOM      5  C   UNL     1       9.834  11.769  20.086  0.00  0.00    +0.000 A 
ATOM      6  C   UNL     1      10.108  12.867  19.250  0.00  0.00    +0.000 A 
ATOM      7  C   UNL     1      10.843  12.541  18.028  0.00  0.00    +0.000 A 
ATOM      8  O   UNL     1      11.040  11.371  17.700  0.00  0.00    +0.000 OA
ATOM      9  N   UNL     1      11.232  13.621  17.261  0.00  0.00    +0.000 N 
ATOM     10  C   UNL     1      10.780  14.927  17.428  0.00  0.00    +0.000 A 
ATOM     11  O   UNL     1      10.935  15.726  16.495  0.00  0.00    +0.000 OA
ATOM     12  N   UNL     1      10.143  15.238  18.649  0.00  0.00    +0.000 N 
ATOM     13  C   UNL     1       9.715  14.174  19.564  0.00  0.00    +0.000 A 
ENDROOT
BRANCH   2  14
ATOM     14  N   UNL     1       7.891  13.303  22.820  0.00  0.00    +0.000 N 
ATOM     15  C   UNL     1       6.501  12.866  22.984  0.00  0.00    +0.000 C 
ATOM     16  C   UNL     1       5.942  13.836  24.015  0.00  0.00    +0.000 C 
ATOM     17  C   UNL     1       7.129  14.159  24.921  0.00  0.00    +0.000 C 
ATOM     18  C   UNL     1       8.393  13.802  24.091  0.00  0.00    +0.000 C 
BRANCH  17  19
ATOM     19  N   UNL     1       7.068  15.559  25.362  0.00  0.00    +0.000 NA
ATOM     20  H   UNL     1       6.454  16.078  24.731  0.00  0.00    +0.000 HD
ATOM     21  H   UNL     1       7.988  15.989  25.270  0.00  0.00    +0.000 HD
ENDBRANCH  17  19
ENDBRANCH   2  14
BRANCH   9  22
ATOM     22  N   UNL     1      12.012  13.337  16.082  0.00  0.00    +0.000 N 
ATOM     23  H   UNL     1      12.963  13.134  16.401  0.00  0.00    +0.000 HD
ATOM     24  H   UNL     1      11.633  12.470  15.689  0.00  0.00    +0.000 HD
ENDBRANCH   9  22
BRANCH  12  25
ATOM     25  C   UNL     1      10.023  16.657  19.017  0.00  0.00    +0.000 C 
ATOM     26  C   UNL     1      10.408  17.850  18.157  0.00  0.00    +0.000 C 
ATOM     27  C   UNL     1       8.966  17.551  18.385  0.00  0.00    +0.000 C 
ENDBRANCH  12  25
BRANCH   1  29
ATOM     28  C   UNL     1       7.120  15.819  20.898  0.00  0.00    +0.000 C 
ATOM     29  O   UNL     1       8.493  15.554  21.186  0.00  0.00    +0.000 OA
ENDBRANCH   1  29
TORSDOF 5
ENDMDL
MODEL 9
REMARK VINA RESULT:      -6.3      8.839      9.971
REMARK  Name = 
REMARK  6 active torsions:
REMARK  status: ('A' for Active; 'I' for Inactive)
REMARK    1  A    between atoms: C_1  and  O_2
REMARK    2  A    between atoms: O_2  and  C_3
REMARK    3  A    between atoms: C_4  and  N_5
REMARK    4  A    between atoms: C_8  and  N_9
REMARK    5  A    between atoms: N_17  and  N_18
REMARK    6  A    between atoms: N_21  and  C_22
REMARK                            x       y       z     vdW  Elec       q    Type
REMARK                         _______ _______ _______ _____ _____    ______ ____
ROOT
ATOM      1  C   UNL     1       8.379  14.665  20.193  0.00  0.00    +0.000 A 
ATOM      2  C   UNL     1       7.932  16.036  20.358  0.00  0.00    +0.000 A 
ATOM      3  C   UNL     1       8.456  16.968  19.446  0.00  0.00    +0.000 A 
ATOM      4  F   UNL     1       8.164  18.277  19.533  0.00  0.00    +0.000 F 
ATOM      5  C   UNL     1       9.355  16.616  18.462  0.00  0.00    +0.000 A 
ATOM      6  C   UNL     1       9.760  15.276  18.322  0.00  0.00    +0.000 A 
ATOM      7  C   UNL     1      10.735  15.035  17.259  0.00  0.00    +0.000 A 
ATOM      8  O   UNL     1      11.270  15.972  16.666  0.00  0.00    +0.000 OA
ATOM      9  N   UNL     1      11.045  13.711  17.023  0.00  0.00    +0.000 N 
ATOM     10  C   UNL     1      10.702  12.647  17.854  0.00  0.00    +0.000 A 
ATOM     11  O   UNL     1      11.308  11.577  17.717  0.00  0.00    +0.000 OA
ATOM     12  N   UNL     1       9.701  12.882  18.822  0.00  0.00    +0.000 N 
ATOM     13  C   UNL     1       9.264  14.247  19.132  0.00  0.00    +0.000 A 
ENDROOT
BRANCH   2  14
ATOM     14  N   UNL     1       7.064  16.470  21.348  0.00  0.00    +0.000 N 
ATOM     15  C   UNL     1       7.457  17.185  22.566  0.00  0.00    +0.000 C 
ATOM     16  C   UNL     1       6.427  16.735  23.591  0.00  0.00    +0.000 C 
ATOM     17  C   UNL     1       5.148  16.520  22.782  0.00  0.00    +0.000 C 
ATOM     18  C   UNL     1       5.615  16.340  21.311  0.00  0.00    +0.000 C 
BRANCH  17  19
ATOM     19  N   UNL     1       4.388  15.383  23.320  0.00  0.00    +0.000 NA
ATOM     20  H   UNL     1       4.795  14.516  22.964  0.00  0.00    +0.000 HD
ATOM     21  H   UNL     1       3.433  15.408  22.963  0.00  0.00    +0.000 HD
ENDBRANCH  17  19
ENDBRANCH   2  14
BRANCH   9  22
ATOM     22  N   UNL     1      11.956  13.437  15.940  0.00  0.00    +0.000 N 
ATOM     23  H   UNL     1      11.657  12.552  15.522  0.00  0.00    +0.000 HD
ATOM     24  H   UNL     1      11.800  14.170  15.241  0.00  0.00    +0.000 HD
ENDBRANCH   9  22
BRANCH  12  25
ATOM     25  C   UNL     1       9.043  11.713  19.423  0.00  0.00    +0.000 C 
ATOM     26  C   UNL     1       9.404  10.254  19.194  0.00  0.00    +0.000 C 
ATOM     27  C   UNL     1       9.729  10.888  20.502  0.00  0.00    +0.000 C 
ENDBRANCH  12  25
BRANCH   1  29
ATOM     28  C   UNL     1       8.435  13.671  22.323  0.00  0.00    +0.000 C 
ATOM     29  O   UNL     1       7.807  13.740  21.043  0.00  0.00    +0.000 OA
ENDBRANCH   1  29
TORSDOF 5
ENDMDL
