MODEL 1
REMARK VINA RESULT:      -8.6      0.000      0.000
REMARK  Name = 
REMARK  8 active torsions:
REMARK  status: ('A' for Active; 'I' for Inactive)
REMARK    1  A    between atoms: C_1  and  C_2
REMARK    2  A    between atoms: N_4  and  C_5
REMARK    3  A    between atoms: C_8  and  C_9
REMARK    4  A    between atoms: C_12  and  N_13
REMARK    5  A    between atoms: N_13  and  C_14
REMARK    6  A    between atoms: C_14  and  C_15
REMARK    7  A    between atoms: C_24  and  C_25
REMARK    8  A    between atoms: C_24  and  C_26
REMARK                            x       y       z     vdW  Elec       q    Type
REMARK                         _______ _______ _______ _____ _____    ______ ____
ROOT
ATOM      1  C   UNL     1       2.054   7.851  19.066  0.00  0.00    +0.000 A 
ATOM      2  C   UNL     1       1.913   7.709  20.447  0.00  0.00    +0.000 A 
ATOM      3  C   UNL     1       1.289   8.706  21.194  0.00  0.00    +0.000 A 
ATOM      4  C   UNL     1       0.758   9.842  20.566  0.00  0.00    +0.000 A 
ATOM      5  C   UNL     1       0.826   9.972  19.155  0.00  0.00    +0.000 A 
ATOM      6  C   UNL     1       1.460   8.948  18.425  0.00  0.00    +0.000 A 
ENDROOT
BRANCH   1  10
ATOM      7  C   UNL     1       5.886   6.423  16.467  0.00  0.00    +0.000 C 
ATOM      8  C   UNL     1       4.584   6.325  17.173  0.00  0.00    +0.000 A 
ATOM      9  N   UNL     1       4.050   7.398  17.772  0.00  0.00    +0.000 NA
ATOM     10  N   UNL     1       2.875   6.969  18.308  0.00  0.00    +0.000 N 
ATOM     11  C   UNL     1       2.705   5.614  18.098  0.00  0.00    +0.000 A 
ATOM     12  C   UNL     1       3.785   5.183  17.360  0.00  0.00    +0.000 A 
ATOM     13  C   UNL     1       3.959   3.787  17.001  0.00  0.00    +0.000 C 
ATOM     14  O   UNL     1       4.929   3.386  16.365  0.00  0.00    +0.000 OA
ATOM     15  C   UNL     1       2.815   2.850  17.405  0.00  0.00    +0.000 C 
ATOM     16  C   UNL     1       2.120   3.263  18.731  0.00  0.00    +0.000 C 
ATOM     17  C   UNL     1       0.872   2.393  18.963  0.00  0.00    +0.000 C 
ATOM     18  C   UNL     1       3.075   3.058  19.926  0.00  0.00    +0.000 C 
ATOM     19  C   UNL     1       1.646   4.738  18.663  0.00  0.00    +0.000 C 
ENDBRANCH   1  10
BRANCH   4  20
ATOM     20  C   UNL     1       0.132  10.910  21.409  0.00  0.00    +0.000 C 
ATOM     21  N   UNL     1      -0.984  10.577  22.133  0.00  0.00    +0.000 N 
ATOM     22  O   UNL     1       0.550  12.061  21.443  0.00  0.00    +0.000 OA
ATOM     23  H   UNL     1      -1.543   9.762  21.930  0.00  0.00    +0.000 HD
ATOM     24  H   UNL     1      -1.439  11.343  22.611  0.00  0.00    +0.000 HD
ENDBRANCH   4  20
BRANCH   5  25
ATOM     25  N   UNL     1       0.405  11.141  18.507  0.00  0.00    +0.000 N 
ATOM     26  H   UNL     1       0.903  11.974  18.840  0.00  0.00    +0.000 HD
BRANCH  25  27
ATOM     27  C   UNL     1      -1.002  11.362  18.237  0.00  0.00    +0.000 C 
BRANCH  27  28
ATOM     28  C   UNL     1      -1.540  10.158  17.527  0.00  0.00    +0.000 C 
ATOM     29  C   UNL     1      -2.998   9.783  17.649  0.00  0.00    +0.000 C 
ATOM     30  C   UNL     1      -2.470  10.309  16.345  0.00  0.00    +0.000 C 
ENDBRANCH  27  28
ENDBRANCH  25  27
ENDBRANCH   5  25
TORSDOF 5
ENDMDL
MODEL 2
REMARK VINA RESULT:      -8.0      1.948      3.969
REMARK  Name = 
REMARK  8 active torsions:
REMARK  status: ('A' for Active; 'I' for Inactive)
REMARK    1  A    between atoms: C_1  and  C_2
REMARK    2  A    between atoms: N_4  and  C_5
REMARK    3  A    between atoms: C_8  and  C_9
REMARK    4  A    between atoms: C_12  and  N_13
REMARK    5  A    between atoms: N_13  and  C_14
REMARK    6  A    between atoms: C_14  and  C_15
REMARK    7  A    between atoms: C_24  and  C_25
REMARK    8  A    between atoms: C_24  and  C_26
REMARK                            x       y       z     vdW  Elec       q    Type
REMARK                         _______ _______ _______ _____ _____    ______ ____
ROOT
ATOM      1  C   UNL     1       1.968   7.726  19.521  0.00  0.00    +0.000 A 
ATOM      2  C   UNL     1       2.110   8.321  18.268  0.00  0.00    +0.000 A 
ATOM      3  C   UNL     1       1.388   9.469  17.950  0.00  0.00    +0.000 A 
ATOM      4  C   UNL     1       0.542  10.065  18.899  0.00  0.00    +0.000 A 
ATOM      5  C   UNL     1       0.439   9.518  20.203  0.00  0.00    +0.000 A 
ATOM      6  C   UNL     1       1.183   8.358  20.497  0.00  0.00    +0.000 A 
ENDROOT
BRANCH   1  10
ATOM      7  C   UNL     1       2.198   3.277  21.427  0.00  0.00    +0.000 C 
ATOM      8  C   UNL     1       2.608   4.457  20.626  0.00  0.00    +0.000 A 
ATOM      9  N   UNL     1       1.859   5.568  20.615  0.00  0.00    +0.000 NA
ATOM     10  N   UNL     1       2.512   6.440  19.800  0.00  0.00    +0.000 N 
ATOM     11  C   UNL     1       3.637   5.853  19.253  0.00  0.00    +0.000 A 
ATOM     12  C   UNL     1       3.724   4.583  19.780  0.00  0.00    +0.000 A 
ATOM     13  C   UNL     1       4.768   3.657  19.377  0.00  0.00    +0.000 C 
ATOM     14  O   UNL     1       4.842   2.516  19.820  0.00  0.00    +0.000 OA
ATOM     15  C   UNL     1       5.818   4.219  18.414  0.00  0.00    +0.000 C 
ATOM     16  C   UNL     1       5.247   5.272  17.425  0.00  0.00    +0.000 C 
ATOM     17  C   UNL     1       6.393   5.921  16.629  0.00  0.00    +0.000 C 
ATOM     18  C   UNL     1       4.286   4.601  16.421  0.00  0.00    +0.000 C 
ATOM     19  C   UNL     1       4.521   6.405  18.194  0.00  0.00    +0.000 C 
ENDBRANCH   1  10
BRANCH   4  20
ATOM     20  C   UNL     1      -0.248  11.275  18.505  0.00  0.00    +0.000 C 
ATOM     21  N   UNL     1       0.442  12.431  18.249  0.00  0.00    +0.000 N 
ATOM     22  O   UNL     1      -1.472  11.278  18.444  0.00  0.00    +0.000 OA
ATOM     23  H   UNL     1       1.391  12.580  18.559  0.00  0.00    +0.000 HD
ATOM     24  H   UNL     1      -0.126  13.252  18.084  0.00  0.00    +0.000 HD
ENDBRANCH   4  20
BRANCH   5  25
ATOM     25  N   UNL     1      -0.476  10.022  21.137  0.00  0.00    +0.000 N 
ATOM     26  H   UNL     1      -1.423  10.104  20.752  0.00  0.00    +0.000 HD
BRANCH  25  27
ATOM     27  C   UNL     1      -0.099  11.110  22.017  0.00  0.00    +0.000 C 
BRANCH  27  28
ATOM     28  C   UNL     1      -1.232  12.088  22.068  0.00  0.00    +0.000 C 
ATOM     29  C   UNL     1      -2.289  11.982  23.142  0.00  0.00    +0.000 C 
ATOM     30  C   UNL     1      -1.311  13.123  23.168  0.00  0.00    +0.000 C 
ENDBRANCH  27  28
ENDBRANCH  25  27
ENDBRANCH   5  25
TORSDOF 5
ENDMDL
MODEL 3
REMARK VINA RESULT:      -7.9      1.601      2.328
REMARK  Name = 
REMARK  8 active torsions:
REMARK  status: ('A' for Active; 'I' for Inactive)
REMARK    1  A    between atoms: C_1  and  C_2
REMARK    2  A    between atoms: N_4  and  C_5
REMARK    3  A    between atoms: C_8  and  C_9
REMARK    4  A    between atoms: C_12  and  N_13
REMARK    5  A    between atoms: N_13  and  C_14
REMARK    6  A    between atoms: C_14  and  C_15
REMARK    7  A    between atoms: C_24  and  C_25
REMARK    8  A    between atoms: C_24  and  C_26
REMARK                            x       y       z     vdW  Elec       q    Type
REMARK                         _______ _______ _______ _____ _____    ______ ____
ROOT
ATOM      1  C   UNL     1       2.112   7.803  19.132  0.00  0.00    +0.000 A 
ATOM      2  C   UNL     1       1.723   7.525  20.442  0.00  0.00    +0.000 A 
ATOM      3  C   UNL     1       1.126   8.515  21.221  0.00  0.00    +0.000 A 
ATOM      4  C   UNL     1       0.870   9.787  20.686  0.00  0.00    +0.000 A 
ATOM      5  C   UNL     1       1.191  10.067  19.333  0.00  0.00    +0.000 A 
ATOM      6  C   UNL     1       1.792   9.047  18.569  0.00  0.00    +0.000 A 
ENDROOT
BRANCH   1  10
ATOM      7  C   UNL     1       5.955   6.251  16.621  0.00  0.00    +0.000 C 
ATOM      8  C   UNL     1       4.631   6.196  17.292  0.00  0.00    +0.000 A 
ATOM      9  N   UNL     1       4.123   7.285  17.885  0.00  0.00    +0.000 NA
ATOM     10  N   UNL     1       2.919   6.896  18.388  0.00  0.00    +0.000 N 
ATOM     11  C   UNL     1       2.704   5.550  18.163  0.00  0.00    +0.000 A 
ATOM     12  C   UNL     1       3.787   5.084  17.449  0.00  0.00    +0.000 A 
ATOM     13  C   UNL     1       3.917   3.685  17.084  0.00  0.00    +0.000 C 
ATOM     14  O   UNL     1       4.888   3.252  16.471  0.00  0.00    +0.000 OA
ATOM     15  C   UNL     1       2.730   2.789  17.451  0.00  0.00    +0.000 C 
ATOM     16  C   UNL     1       2.016   3.218  18.762  0.00  0.00    +0.000 C 
ATOM     17  C   UNL     1       0.731   2.394  18.956  0.00  0.00    +0.000 C 
ATOM     18  C   UNL     1       2.932   2.970  19.980  0.00  0.00    +0.000 C 
ATOM     19  C   UNL     1       1.600   4.710  18.694  0.00  0.00    +0.000 C 
ENDBRANCH   1  10
BRANCH   4  20
ATOM     20  C   UNL     1       0.264  10.835  21.568  0.00  0.00    +0.000 C 
ATOM     21  N   UNL     1      -0.789  10.465  22.364  0.00  0.00    +0.000 N 
ATOM     22  O   UNL     1       0.643  12.000  21.573  0.00  0.00    +0.000 OA
ATOM     23  H   UNL     1      -1.332   9.631  22.199  0.00  0.00    +0.000 HD
ATOM     24  H   UNL     1      -1.238  11.217  22.871  0.00  0.00    +0.000 HD
ENDBRANCH   4  20
BRANCH   5  25
ATOM     25  N   UNL     1       1.050  11.355  18.800  0.00  0.00    +0.000 N 
ATOM     26  H   UNL     1       0.172  11.470  18.283  0.00  0.00    +0.000 HD
BRANCH  25  27
ATOM     27  C   UNL     1       2.185  12.025  18.195  0.00  0.00    +0.000 C 
BRANCH  27  28
ATOM     28  C   UNL     1       2.066  13.493  18.470  0.00  0.00    +0.000 C 
ATOM     29  C   UNL     1       2.772  14.110  19.653  0.00  0.00    +0.000 C 
ATOM     30  C   UNL     1       3.245  14.415  18.261  0.00  0.00    +0.000 C 
ENDBRANCH  27  28
ENDBRANCH  25  27
ENDBRANCH   5  25
TORSDOF 5
ENDMDL
MODEL 4
REMARK VINA RESULT:      -7.8      1.847      7.837
REMARK  Name = 
REMARK  8 active torsions:
REMARK  status: ('A' for Active; 'I' for Inactive)
REMARK    1  A    between atoms: C_1  and  C_2
REMARK    2  A    between atoms: N_4  and  C_5
REMARK    3  A    between atoms: C_8  and  C_9
REMARK    4  A    between atoms: C_12  and  N_13
REMARK    5  A    between atoms: N_13  and  C_14
REMARK    6  A    between atoms: C_14  and  C_15
REMARK    7  A    between atoms: C_24  and  C_25
REMARK    8  A    between atoms: C_24  and  C_26
REMARK                            x       y       z     vdW  Elec       q    Type
REMARK                         _______ _______ _______ _____ _____    ______ ____
ROOT
ATOM      1  C   UNL     1       1.412   9.208  19.057  0.00  0.00    +0.000 A 
ATOM      2  C   UNL     1       2.034   9.175  17.809  0.00  0.00    +0.000 A 
ATOM      3  C   UNL     1       2.866   8.111  17.467  0.00  0.00    +0.000 A 
ATOM      4  C   UNL     1       3.056   7.040  18.354  0.00  0.00    +0.000 A 
ATOM      5  C   UNL     1       2.375   7.018  19.598  0.00  0.00    +0.000 A 
ATOM      6  C   UNL     1       1.538   8.106  19.916  0.00  0.00    +0.000 A 
ENDROOT
BRANCH   1  10
ATOM      7  C   UNL     1       0.916  13.576  21.093  0.00  0.00    +0.000 C 
ATOM      8  C   UNL     1       0.519  12.321  20.407  0.00  0.00    +0.000 A 
ATOM      9  N   UNL     1       1.427  11.372  20.143  0.00  0.00    +0.000 NA
ATOM     10  N   UNL     1       0.741  10.373  19.523  0.00  0.00    +0.000 N 
ATOM     11  C   UNL     1      -0.583  10.725  19.343  0.00  0.00    +0.000 A 
ATOM     12  C   UNL     1      -0.750  11.968  19.915  0.00  0.00    +0.000 A 
ATOM     13  C   UNL     1      -2.019  12.670  19.862  0.00  0.00    +0.000 C 
ATOM     14  O   UNL     1      -2.174  13.788  20.344  0.00  0.00    +0.000 OA
ATOM     15  C   UNL     1      -3.180  11.898  19.225  0.00  0.00    +0.000 C 
ATOM     16  C   UNL     1      -2.733  10.949  18.079  0.00  0.00    +0.000 C 
ATOM     17  C   UNL     1      -3.917  10.077  17.627  0.00  0.00    +0.000 C 
ATOM     18  C   UNL     1      -2.248  11.765  16.863  0.00  0.00    +0.000 C 
ATOM     19  C   UNL     1      -1.617   9.991  18.568  0.00  0.00    +0.000 C 
ENDBRANCH   1  10
BRANCH   4  20
ATOM     20  C   UNL     1       3.990   5.936  17.966  0.00  0.00    +0.000 C 
ATOM     21  N   UNL     1       5.290   6.271  17.689  0.00  0.00    +0.000 N 
ATOM     22  O   UNL     1       3.631   4.770  17.851  0.00  0.00    +0.000 OA
ATOM     23  H   UNL     1       5.578   7.214  17.477  0.00  0.00    +0.000 HD
ATOM     24  H   UNL     1       5.868   5.519  17.334  0.00  0.00    +0.000 HD
ENDBRANCH   4  20
BRANCH   5  25
ATOM     25  N   UNL     1       2.625   6.021  20.551  0.00  0.00    +0.000 N 
ATOM     26  H   UNL     1       3.570   5.631  20.470  0.00  0.00    +0.000 HD
BRANCH  25  27
ATOM     27  C   UNL     1       1.606   5.041  20.869  0.00  0.00    +0.000 C 
BRANCH  27  28
ATOM     28  C   UNL     1       2.247   3.688  20.901  0.00  0.00    +0.000 C 
ATOM     29  C   UNL     1       1.618   2.559  21.681  0.00  0.00    +0.000 C 
ATOM     30  C   UNL     1       1.618   2.518  20.180  0.00  0.00    +0.000 C 
ENDBRANCH  27  28
ENDBRANCH  25  27
ENDBRANCH   5  25
TORSDOF 5
ENDMDL
MODEL 5
REMARK VINA RESULT:      -7.6      1.847      7.868
REMARK  Name = 
REMARK  8 active torsions:
REMARK  status: ('A' for Active; 'I' for Inactive)
REMARK    1  A    between atoms: C_1  and  C_2
REMARK    2  A    between atoms: N_4  and  C_5
REMARK    3  A    between atoms: C_8  and  C_9
REMARK    4  A    between atoms: C_12  and  N_13
REMARK    5  A    between atoms: N_13  and  C_14
REMARK    6  A    between atoms: C_14  and  C_15
REMARK    7  A    between atoms: C_24  and  C_25
REMARK    8  A    between atoms: C_24  and  C_26
REMARK                            x       y       z     vdW  Elec       q    Type
REMARK                         _______ _______ _______ _____ _____    ______ ____
ROOT
ATOM      1  C   UNL     1       1.877   8.016  19.387  0.00  0.00    +0.000 A 
ATOM      2  C   UNL     1       2.371   8.621  18.232  0.00  0.00    +0.000 A 
ATOM      3  C   UNL     1       3.303   7.957  17.436  0.00  0.00    +0.000 A 
ATOM      4  C   UNL     1       3.723   6.658  17.762  0.00  0.00    +0.000 A 
ATOM      5  C   UNL     1       3.178   5.997  18.892  0.00  0.00    +0.000 A 
ATOM      6  C   UNL     1       2.236   6.691  19.676  0.00  0.00    +0.000 A 
ENDROOT
BRANCH   1  10
ATOM      7  C   UNL     1       0.287   9.409  23.747  0.00  0.00    +0.000 C 
ATOM      8  C   UNL     1       0.410   9.380  22.268  0.00  0.00    +0.000 A 
ATOM      9  N   UNL     1       1.232   8.509  21.669  0.00  0.00    +0.000 NA
ATOM     10  N   UNL     1       1.103   8.744  20.334  0.00  0.00    +0.000 N 
ATOM     11  C   UNL     1       0.247   9.804  20.103  0.00  0.00    +0.000 A 
ATOM     12  C   UNL     1      -0.219  10.220  21.331  0.00  0.00    +0.000 A 
ATOM     13  C   UNL     1      -1.107  11.360  21.467  0.00  0.00    +0.000 C 
ATOM     14  O   UNL     1      -1.509  11.756  22.556  0.00  0.00    +0.000 OA
ATOM     15  C   UNL     1      -1.572  12.000  20.154  0.00  0.00    +0.000 C 
ATOM     16  C   UNL     1      -0.505  11.936  19.026  0.00  0.00    +0.000 C 
ATOM     17  C   UNL     1      -1.113  12.422  17.699  0.00  0.00    +0.000 C 
ATOM     18  C   UNL     1       0.693  12.848  19.366  0.00  0.00    +0.000 C 
ATOM     19  C   UNL     1      -0.029  10.477  18.808  0.00  0.00    +0.000 C 
ENDBRANCH   1  10
BRANCH   4  20
ATOM     20  C   UNL     1       4.756   5.995  16.904  0.00  0.00    +0.000 C 
ATOM     21  N   UNL     1       5.832   6.747  16.507  0.00  0.00    +0.000 N 
ATOM     22  O   UNL     1       4.656   4.837  16.518  0.00  0.00    +0.000 OA
ATOM     23  H   UNL     1       5.833   7.756  16.534  0.00  0.00    +0.000 HD
ATOM     24  H   UNL     1       6.458   6.301  15.849  0.00  0.00    +0.000 HD
ENDBRANCH   4  20
BRANCH   5  25
ATOM     25  N   UNL     1       3.654   4.746  19.307  0.00  0.00    +0.000 N 
ATOM     26  H   UNL     1       4.644   4.609  19.077  0.00  0.00    +0.000 HD
BRANCH  25  27
ATOM     27  C   UNL     1       2.837   3.560  19.140  0.00  0.00    +0.000 C 
BRANCH  27  28
ATOM     28  C   UNL     1       2.700   2.892  20.473  0.00  0.00    +0.000 C 
ATOM     29  C   UNL     1       2.290   3.686  21.690  0.00  0.00    +0.000 C 
ATOM     30  C   UNL     1       1.338   2.686  21.098  0.00  0.00    +0.000 C 
ENDBRANCH  27  28
ENDBRANCH  25  27
ENDBRANCH   5  25
TORSDOF 5
ENDMDL
MODEL 6
REMARK VINA RESULT:      -7.6      1.752      7.809
REMARK  Name = 
REMARK  8 active torsions:
REMARK  status: ('A' for Active; 'I' for Inactive)
REMARK    1  A    between atoms: C_1  and  C_2
REMARK    2  A    between atoms: N_4  and  C_5
REMARK    3  A    between atoms: C_8  and  C_9
REMARK    4  A    between atoms: C_12  and  N_13
REMARK    5  A    between atoms: N_13  and  C_14
REMARK    6  A    between atoms: C_14  and  C_15
REMARK    7  A    between atoms: C_24  and  C_25
REMARK    8  A    between atoms: C_24  and  C_26
REMARK                            x       y       z     vdW  Elec       q    Type
REMARK                         _______ _______ _______ _____ _____    ______ ____
ROOT
ATOM      1  C   UNL     1       1.863   8.009  19.413  0.00  0.00    +0.000 A 
ATOM      2  C   UNL     1       2.261   8.556  18.193  0.00  0.00    +0.000 A 
ATOM      3  C   UNL     1       3.201   7.898  17.402  0.00  0.00    +0.000 A 
ATOM      4  C   UNL     1       3.726   6.659  17.800  0.00  0.00    +0.000 A 
ATOM      5  C   UNL     1       3.281   6.050  19.001  0.00  0.00    +0.000 A 
ATOM      6  C   UNL     1       2.328   6.737  19.779  0.00  0.00    +0.000 A 
ENDROOT
BRANCH   1  10
ATOM      7  C   UNL     1       0.230   9.463  23.737  0.00  0.00    +0.000 C 
ATOM      8  C   UNL     1       0.371   9.416  22.259  0.00  0.00    +0.000 A 
ATOM      9  N   UNL     1       1.195   8.532  21.680  0.00  0.00    +0.000 NA
ATOM     10  N   UNL     1       1.083   8.753  20.342  0.00  0.00    +0.000 N 
ATOM     11  C   UNL     1       0.238   9.816  20.088  0.00  0.00    +0.000 A 
ATOM     12  C   UNL     1      -0.241  10.249  21.306  0.00  0.00    +0.000 A 
ATOM     13  C   UNL     1      -1.122  11.397  21.417  0.00  0.00    +0.000 C 
ATOM     14  O   UNL     1      -1.535  11.808  22.497  0.00  0.00    +0.000 OA
ATOM     15  C   UNL     1      -1.566  12.025  20.092  0.00  0.00    +0.000 C 
ATOM     16  C   UNL     1      -0.486  11.940  18.978  0.00  0.00    +0.000 C 
ATOM     17  C   UNL     1      -1.075  12.416  17.638  0.00  0.00    +0.000 C 
ATOM     18  C   UNL     1       0.714  12.849  19.322  0.00  0.00    +0.000 C 
ATOM     19  C   UNL     1      -0.018  10.476  18.782  0.00  0.00    +0.000 C 
ENDBRANCH   1  10
BRANCH   4  20
ATOM     20  C   UNL     1       4.764   6.004  16.942  0.00  0.00    +0.000 C 
ATOM     21  N   UNL     1       5.632   6.817  16.259  0.00  0.00    +0.000 N 
ATOM     22  O   UNL     1       4.839   4.789  16.799  0.00  0.00    +0.000 OA
ATOM     23  H   UNL     1       5.448   7.796  16.096  0.00  0.00    +0.000 HD
ATOM     24  H   UNL     1       6.254   6.348  15.614  0.00  0.00    +0.000 HD
ENDBRANCH   4  20
BRANCH   5  25
ATOM     25  N   UNL     1       3.862   4.870  19.482  0.00  0.00    +0.000 N 
ATOM     26  H   UNL     1       4.727   4.629  18.985  0.00  0.00    +0.000 HD
BRANCH  25  27
ATOM     27  C   UNL     1       3.033   3.727  19.814  0.00  0.00    +0.000 C 
BRANCH  27  28
ATOM     28  C   UNL     1       2.144   3.436  18.645  0.00  0.00    +0.000 C 
ATOM     29  C   UNL     1       2.342   2.185  17.823  0.00  0.00    +0.000 C 
ATOM     30  C   UNL     1       1.132   2.314  18.705  0.00  0.00    +0.000 C 
ENDBRANCH  27  28
ENDBRANCH  25  27
ENDBRANCH   5  25
TORSDOF 5
ENDMDL
MODEL 7
REMARK VINA RESULT:      -7.6      2.176      8.145
REMARK  Name = 
REMARK  8 active torsions:
REMARK  status: ('A' for Active; 'I' for Inactive)
REMARK    1  A    between atoms: C_1  and  C_2
REMARK    2  A    between atoms: N_4  and  C_5
REMARK    3  A    between atoms: C_8  and  C_9
REMARK    4  A    between atoms: C_12  and  N_13
REMARK    5  A    between atoms: N_13  and  C_14
REMARK    6  A    between atoms: C_14  and  C_15
REMARK    7  A    between atoms: C_24  and  C_25
REMARK    8  A    between atoms: C_24  and  C_26
REMARK                            x       y       z     vdW  Elec       q    Type
REMARK                         _______ _______ _______ _____ _____    ______ ____
ROOT
ATOM      1  C   UNL     1       1.347   9.026  19.534  0.00  0.00    +0.000 A 
ATOM      2  C   UNL     1       1.742   9.274  18.220  0.00  0.00    +0.000 A 
ATOM      3  C   UNL     1       2.571   8.374  17.555  0.00  0.00    +0.000 A 
ATOM      4  C   UNL     1       2.984   7.187  18.181  0.00  0.00    +0.000 A 
ATOM      5  C   UNL     1       2.535   6.881  19.491  0.00  0.00    +0.000 A 
ATOM      6  C   UNL     1       1.695   7.809  20.138  0.00  0.00    +0.000 A 
ENDROOT
BRANCH   1  10
ATOM      7  C   UNL     1      -1.261  10.855  23.185  0.00  0.00    +0.000 C 
ATOM      8  C   UNL     1      -0.448  10.839  21.943  0.00  0.00    +0.000 A 
ATOM      9  N   UNL     1      -0.004   9.682  21.434  0.00  0.00    +0.000 NA
ATOM     10  N   UNL     1       0.691  10.021  20.313  0.00  0.00    +0.000 N 
ATOM     11  C   UNL     1       0.735  11.393  20.158  0.00  0.00    +0.000 A 
ATOM     12  C   UNL     1      -0.001  11.938  21.188  0.00  0.00    +0.000 A 
ATOM     13  C   UNL     1      -0.124  13.374  21.364  0.00  0.00    +0.000 C 
ATOM     14  O   UNL     1      -0.755  13.872  22.291  0.00  0.00    +0.000 OA
ATOM     15  C   UNL     1       0.528  14.235  20.277  0.00  0.00    +0.000 C 
ATOM     16  C   UNL     1       1.813  13.601  19.676  0.00  0.00    +0.000 C 
ATOM     17  C   UNL     1       2.293  14.428  18.471  0.00  0.00    +0.000 C 
ATOM     18  C   UNL     1       2.945  13.585  20.726  0.00  0.00    +0.000 C 
ATOM     19  C   UNL     1       1.527  12.166  19.166  0.00  0.00    +0.000 C 
ENDBRANCH   1  10
BRANCH   4  20
ATOM     20  C   UNL     1       3.909   6.265  17.447  0.00  0.00    +0.000 C 
ATOM     21  N   UNL     1       5.010   6.816  16.844  0.00  0.00    +0.000 N 
ATOM     22  O   UNL     1       3.698   5.064  17.335  0.00  0.00    +0.000 OA
ATOM     23  H   UNL     1       5.088   7.802  16.645  0.00  0.00    +0.000 HD
ATOM     24  H   UNL     1       5.558   6.183  16.275  0.00  0.00    +0.000 HD
ENDBRANCH   4  20
BRANCH   5  25
ATOM     25  N   UNL     1       3.014   5.762  20.185  0.00  0.00    +0.000 N 
ATOM     26  H   UNL     1       3.568   5.139  19.588  0.00  0.00    +0.000 HD
BRANCH  25  27
ATOM     27  C   UNL     1       2.164   5.070  21.134  0.00  0.00    +0.000 C 
BRANCH  27  28
ATOM     28  C   UNL     1       1.196   4.223  20.368  0.00  0.00    +0.000 C 
ATOM     29  C   UNL     1       1.688   3.250  19.323  0.00  0.00    +0.000 C 
ATOM     30  C   UNL     1       1.112   2.733  20.611  0.00  0.00    +0.000 C 
ENDBRANCH  27  28
ENDBRANCH  25  27
ENDBRANCH   5  25
TORSDOF 5
ENDMDL
MODEL 8
REMARK VINA RESULT:      -7.3      1.887      3.068
REMARK  Name = 
REMARK  8 active torsions:
REMARK  status: ('A' for Active; 'I' for Inactive)
REMARK    1  A    between atoms: C_1  and  C_2
REMARK    2  A    between atoms: N_4  and  C_5
REMARK    3  A    between atoms: C_8  and  C_9
REMARK    4  A    between atoms: C_12  and  N_13
REMARK    5  A    between atoms: N_13  and  C_14
REMARK    6  A    between atoms: C_14  and  C_15
REMARK    7  A    between atoms: C_24  and  C_25
REMARK    8  A    between atoms: C_24  and  C_26
REMARK                            x       y       z     vdW  Elec       q    Type
REMARK                         _______ _______ _______ _____ _____    ______ ____
ROOT
ATOM      1  C   UNL     1       2.599   7.569  18.929  0.00  0.00    +0.000 A 
ATOM      2  C   UNL     1       2.440   8.264  17.730  0.00  0.00    +0.000 A 
ATOM      3  C   UNL     1       1.451   9.238  17.609  0.00  0.00    +0.000 A 
ATOM      4  C   UNL     1       0.631   9.562  18.702  0.00  0.00    +0.000 A 
ATOM      5  C   UNL     1       0.824   8.918  19.951  0.00  0.00    +0.000 A 
ATOM      6  C   UNL     1       1.834   7.940  20.044  0.00  0.00    +0.000 A 
ENDROOT
BRANCH   1  10
ATOM      7  C   UNL     1       6.729   5.069  19.340  0.00  0.00    +0.000 C 
ATOM      8  C   UNL     1       5.269   5.311  19.223  0.00  0.00    +0.000 A 
ATOM      9  N   UNL     1       4.792   6.559  19.109  0.00  0.00    +0.000 NA
ATOM     10  N   UNL     1       3.441   6.425  19.018  0.00  0.00    +0.000 N 
ATOM     11  C   UNL     1       3.069   5.099  19.139  0.00  0.00    +0.000 A 
ATOM     12  C   UNL     1       4.229   4.365  19.259  0.00  0.00    +0.000 A 
ATOM     13  C   UNL     1       4.208   2.928  19.459  0.00  0.00    +0.000 C 
ATOM     14  O   UNL     1       5.233   2.267  19.592  0.00  0.00    +0.000 OA
ATOM     15  C   UNL     1       2.824   2.272  19.423  0.00  0.00    +0.000 C 
ATOM     16  C   UNL     1       1.696   3.183  19.982  0.00  0.00    +0.000 C 
ATOM     17  C   UNL     1       0.324   2.532  19.736  0.00  0.00    +0.000 C 
ATOM     18  C   UNL     1       1.867   3.376  21.504  0.00  0.00    +0.000 C 
ATOM     19  C   UNL     1       1.692   4.553  19.260  0.00  0.00    +0.000 C 
ENDBRANCH   1  10
BRANCH   4  20
ATOM     20  C   UNL     1      -0.447  10.584  18.520  0.00  0.00    +0.000 C 
ATOM     21  N   UNL     1      -0.064  11.872  18.246  0.00  0.00    +0.000 N 
ATOM     22  O   UNL     1      -1.638  10.324  18.644  0.00  0.00    +0.000 OA
ATOM     23  H   UNL     1       0.870  12.212  18.420  0.00  0.00    +0.000 HD
ATOM     24  H   UNL     1      -0.810  12.555  18.228  0.00  0.00    +0.000 HD
ENDBRANCH   4  20
BRANCH   5  25
ATOM     25  N   UNL     1      -0.044   9.138  21.029  0.00  0.00    +0.000 N 
ATOM     26  H   UNL     1      -1.030   9.055  20.759  0.00  0.00    +0.000 HD
BRANCH  25  27
ATOM     27  C   UNL     1       0.222  10.200  21.979  0.00  0.00    +0.000 C 
BRANCH  27  28
ATOM     28  C   UNL     1      -0.912  11.176  21.924  0.00  0.00    +0.000 C 
ATOM     29  C   UNL     1      -1.173  12.114  23.077  0.00  0.00    +0.000 C 
ATOM     30  C   UNL     1      -0.650  12.657  21.778  0.00  0.00    +0.000 C 
ENDBRANCH  27  28
ENDBRANCH  25  27
ENDBRANCH   5  25
TORSDOF 5
ENDMDL
MODEL 9
REMARK VINA RESULT:      -7.3      1.962      3.050
REMARK  Name = 
REMARK  8 active torsions:
REMARK  status: ('A' for Active; 'I' for Inactive)
REMARK    1  A    between atoms: C_1  and  C_2
REMARK    2  A    between atoms: N_4  and  C_5
REMARK    3  A    between atoms: C_8  and  C_9
REMARK    4  A    between atoms: C_12  and  N_13
REMARK    5  A    between atoms: N_13  and  C_14
REMARK    6  A    between atoms: C_14  and  C_15
REMARK    7  A    between atoms: C_24  and  C_25
REMARK    8  A    between atoms: C_24  and  C_26
REMARK                            x       y       z     vdW  Elec       q    Type
REMARK                         _______ _______ _______ _____ _____    ______ ____
ROOT
ATOM      1  C   UNL     1       2.710   7.189  18.330  0.00  0.00    +0.000 A 
ATOM      2  C   UNL     1       2.607   8.243  17.422  0.00  0.00    +0.000 A 
ATOM      3  C   UNL     1       1.968   9.426  17.790  0.00  0.00    +0.000 A 
ATOM      4  C   UNL     1       1.459   9.588  19.087  0.00  0.00    +0.000 A 
ATOM      5  C   UNL     1       1.618   8.556  20.048  0.00  0.00    +0.000 A 
ATOM      6  C   UNL     1       2.271   7.373  19.649  0.00  0.00    +0.000 A 
ENDROOT
BRANCH   1  10
ATOM      7  C   UNL     1       5.442   3.907  16.040  0.00  0.00    +0.000 C 
ATOM      8  C   UNL     1       4.375   4.438  16.926  0.00  0.00    +0.000 A 
ATOM      9  N   UNL     1       4.194   5.759  17.058  0.00  0.00    +0.000 NA
ATOM     10  N   UNL     1       3.152   5.899  17.923  0.00  0.00    +0.000 N 
ATOM     11  C   UNL     1       2.725   4.667  18.380  0.00  0.00    +0.000 A 
ATOM     12  C   UNL     1       3.489   3.714  17.742  0.00  0.00    +0.000 A 
ATOM     13  C   UNL     1       3.342   2.298  18.029  0.00  0.00    +0.000 C 
ATOM     14  O   UNL     1       4.034   1.442  17.487  0.00  0.00    +0.000 OA
ATOM     15  C   UNL     1       2.217   1.930  19.002  0.00  0.00    +0.000 C 
ATOM     16  C   UNL     1       1.973   3.006  20.096  0.00  0.00    +0.000 C 
ATOM     17  C   UNL     1       0.713   2.653  20.907  0.00  0.00    +0.000 C 
ATOM     18  C   UNL     1       3.168   3.062  21.070  0.00  0.00    +0.000 C 
ATOM     19  C   UNL     1       1.733   4.395  19.452  0.00  0.00    +0.000 C 
ENDBRANCH   1  10
BRANCH   4  20
ATOM     20  C   UNL     1       0.743  10.858  19.431  0.00  0.00    +0.000 C 
ATOM     21  N   UNL     1      -0.345  11.201  18.670  0.00  0.00    +0.000 N 
ATOM     22  O   UNL     1       1.113  11.609  20.325  0.00  0.00    +0.000 OA
ATOM     23  H   UNL     1      -0.522  10.802  17.760  0.00  0.00    +0.000 HD
ATOM     24  H   UNL     1      -0.744  12.110  18.863  0.00  0.00    +0.000 HD
ENDBRANCH   4  20
BRANCH   5  25
ATOM     25  N   UNL     1       1.028   8.641  21.316  0.00  0.00    +0.000 N 
ATOM     26  H   UNL     1       1.604   8.207  22.045  0.00  0.00    +0.000 HD
BRANCH  25  27
ATOM     27  C   UNL     1      -0.396   8.419  21.478  0.00  0.00    +0.000 C 
BRANCH  27  28
ATOM     28  C   UNL     1      -0.807   8.958  22.813  0.00  0.00    +0.000 C 
ATOM     29  C   UNL     1       0.194   9.661  23.698  0.00  0.00    +0.000 C 
ATOM     30  C   UNL     1      -0.907  10.448  23.046  0.00  0.00    +0.000 C 
ENDBRANCH  27  28
ENDBRANCH  25  27
ENDBRANCH   5  25
TORSDOF 5
ENDMDL
