MODEL 1
REMARK VINA RESULT:      -4.8      0.000      0.000
REMARK  Name = 
REMARK  1 active torsions:
REMARK  status: ('A' for Active; 'I' for Inactive)
REMARK    1  A    between atoms: C_1  and  N_2
REMARK                            x       y       z     vdW  Elec       q    Type
REMARK                         _______ _______ _______ _____ _____    ______ ____
ROOT
ATOM      1  C   UNL     1       4.657   4.269  16.508  0.00  0.00    +0.000 C 
ATOM      2  N   UNL     1       3.830   4.807  17.577  0.00  0.00    +0.000 N 
ATOM      3  C   UNL     1       3.963   6.048  18.004  0.00  0.00    +0.000 A 
ATOM      4  S   UNL     1       2.860   6.392  19.264  0.00  0.00    +0.000 S 
ATOM      5  C   UNL     1       2.203   4.797  19.208  0.00  0.00    +0.000 A 
ATOM      6  C   UNL     1       1.179   4.236  19.985  0.00  0.00    +0.000 A 
ATOM      7  C   UNL     1       0.827   2.905  19.744  0.00  0.00    +0.000 A 
ATOM      8  C   UNL     1       1.470   2.158  18.760  0.00  0.00    +0.000 A 
ATOM      9  C   UNL     1       2.490   2.723  17.984  0.00  0.00    +0.000 A 
ATOM     10  C   UNL     1       2.855   4.062  18.219  0.00  0.00    +0.000 A 
ENDROOT
TORSDOF 0
ENDMDL
MODEL 2
REMARK VINA RESULT:      -4.8      1.692      2.480
REMARK  Name = 
REMARK  1 active torsions:
REMARK  status: ('A' for Active; 'I' for Inactive)
REMARK    1  A    between atoms: C_1  and  N_2
REMARK                            x       y       z     vdW  Elec       q    Type
REMARK                         _______ _______ _______ _____ _____    ______ ____
ROOT
ATOM      1  C   UNL     1       4.494   5.847  17.595  0.00  0.00    +0.000 C 
ATOM      2  N   UNL     1       3.940   4.540  17.910  0.00  0.00    +0.000 N 
ATOM      3  C   UNL     1       4.324   3.449  17.274  0.00  0.00    +0.000 A 
ATOM      4  S   UNL     1       3.500   2.070  17.858  0.00  0.00    +0.000 S 
ATOM      5  C   UNL     1       2.607   3.009  18.997  0.00  0.00    +0.000 A 
ATOM      6  C   UNL     1       1.642   2.588  19.925  0.00  0.00    +0.000 A 
ATOM      7  C   UNL     1       1.055   3.556  20.745  0.00  0.00    +0.000 A 
ATOM      8  C   UNL     1       1.416   4.897  20.646  0.00  0.00    +0.000 A 
ATOM      9  C   UNL     1       2.381   5.312  19.719  0.00  0.00    +0.000 A 
ATOM     10  C   UNL     1       2.979   4.347  18.887  0.00  0.00    +0.000 A 
ENDROOT
TORSDOF 0
ENDMDL
MODEL 3
REMARK VINA RESULT:      -4.8      2.151      3.985
REMARK  Name = 
REMARK  1 active torsions:
REMARK  status: ('A' for Active; 'I' for Inactive)
REMARK    1  A    between atoms: C_1  and  N_2
REMARK                            x       y       z     vdW  Elec       q    Type
REMARK                         _______ _______ _______ _____ _____    ______ ____
ROOT
ATOM      1  C   UNL     1       1.450   2.643  21.581  0.00  0.00    +0.000 C 
ATOM      2  N   UNL     1       1.833   2.983  20.219  0.00  0.00    +0.000 N 
ATOM      3  C   UNL     1       1.995   2.060  19.291  0.00  0.00    +0.000 A 
ATOM      4  S   UNL     1       2.445   2.757  17.796  0.00  0.00    +0.000 S 
ATOM      5  C   UNL     1       2.415   4.350  18.459  0.00  0.00    +0.000 A 
ATOM      6  C   UNL     1       2.689   5.574  17.831  0.00  0.00    +0.000 A 
ATOM      7  C   UNL     1       2.596   6.739  18.597  0.00  0.00    +0.000 A 
ATOM      8  C   UNL     1       2.239   6.689  19.941  0.00  0.00    +0.000 A 
ATOM      9  C   UNL     1       1.963   5.466  20.564  0.00  0.00    +0.000 A 
ATOM     10  C   UNL     1       2.056   4.284  19.804  0.00  0.00    +0.000 A 
ENDROOT
TORSDOF 0
ENDMDL
MODEL 4
REMARK VINA RESULT:      -4.7      1.423      2.392
REMARK  Name = 
REMARK  1 active torsions:
REMARK  status: ('A' for Active; 'I' for Inactive)
REMARK    1  A    between atoms: C_1  and  N_2
REMARK                            x       y       z     vdW  Elec       q    Type
REMARK                         _______ _______ _______ _____ _____    ______ ____
ROOT
ATOM      1  C   UNL     1       2.588   7.047  18.969  0.00  0.00    +0.000 C 
ATOM      2  N   UNL     1       3.017   5.795  18.364  0.00  0.00    +0.000 N 
ATOM      3  C   UNL     1       4.000   5.747  17.486  0.00  0.00    +0.000 A 
ATOM      4  S   UNL     1       4.276   4.147  16.951  0.00  0.00    +0.000 S 
ATOM      5  C   UNL     1       3.012   3.530  17.951  0.00  0.00    +0.000 A 
ATOM      6  C   UNL     1       2.568   2.207  18.096  0.00  0.00    +0.000 A 
ATOM      7  C   UNL     1       1.512   1.963  18.979  0.00  0.00    +0.000 A 
ATOM      8  C   UNL     1       0.919   3.000  19.695  0.00  0.00    +0.000 A 
ATOM      9  C   UNL     1       1.367   4.319  19.548  0.00  0.00    +0.000 A 
ATOM     10  C   UNL     1       2.429   4.578  18.660  0.00  0.00    +0.000 A 
ENDROOT
TORSDOF 0
ENDMDL
MODEL 5
REMARK VINA RESULT:      -4.7      1.924      4.088
REMARK  Name = 
REMARK  1 active torsions:
REMARK  status: ('A' for Active; 'I' for Inactive)
REMARK    1  A    between atoms: C_1  and  N_2
REMARK                            x       y       z     vdW  Elec       q    Type
REMARK                         _______ _______ _______ _____ _____    ______ ____
ROOT
ATOM      1  C   UNL     1       1.076   4.099  20.393  0.00  0.00    +0.000 C 
ATOM      2  N   UNL     1       2.025   3.531  19.448  0.00  0.00    +0.000 N 
ATOM      3  C   UNL     1       2.179   2.227  19.315  0.00  0.00    +0.000 A 
ATOM      4  S   UNL     1       3.361   1.860  18.135  0.00  0.00    +0.000 S 
ATOM      5  C   UNL     1       3.652   3.532  17.818  0.00  0.00    +0.000 A 
ATOM      6  C   UNL     1       4.550   4.115  16.912  0.00  0.00    +0.000 A 
ATOM      7  C   UNL     1       4.600   5.510  16.844  0.00  0.00    +0.000 A 
ATOM      8  C   UNL     1       3.782   6.298  17.650  0.00  0.00    +0.000 A 
ATOM      9  C   UNL     1       2.885   5.712  18.552  0.00  0.00    +0.000 A 
ATOM     10  C   UNL     1       2.827   4.307  18.630  0.00  0.00    +0.000 A 
ENDROOT
TORSDOF 0
ENDMDL
MODEL 6
REMARK VINA RESULT:      -4.7      1.492      3.718
REMARK  Name = 
REMARK  1 active torsions:
REMARK  status: ('A' for Active; 'I' for Inactive)
REMARK    1  A    between atoms: C_1  and  N_2
REMARK                            x       y       z     vdW  Elec       q    Type
REMARK                         _______ _______ _______ _____ _____    ______ ____
ROOT
ATOM      1  C   UNL     1       3.527   1.911  18.175  0.00  0.00    +0.000 C 
ATOM      2  N   UNL     1       3.500   3.342  18.433  0.00  0.00    +0.000 N 
ATOM      3  C   UNL     1       2.901   3.847  19.495  0.00  0.00    +0.000 A 
ATOM      4  S   UNL     1       3.032   5.551  19.529  0.00  0.00    +0.000 S 
ATOM      5  C   UNL     1       3.925   5.574  18.052  0.00  0.00    +0.000 A 
ATOM      6  C   UNL     1       4.442   6.672  17.350  0.00  0.00    +0.000 A 
ATOM      7  C   UNL     1       5.135   6.424  16.162  0.00  0.00    +0.000 A 
ATOM      8  C   UNL     1       5.308   5.126  15.689  0.00  0.00    +0.000 A 
ATOM      9  C   UNL     1       4.791   4.031  16.394  0.00  0.00    +0.000 A 
ATOM     10  C   UNL     1       4.090   4.269  17.591  0.00  0.00    +0.000 A 
ENDROOT
TORSDOF 0
ENDMDL
MODEL 7
REMARK VINA RESULT:      -4.7      1.916      2.571
REMARK  Name = 
REMARK  1 active torsions:
REMARK  status: ('A' for Active; 'I' for Inactive)
REMARK    1  A    between atoms: C_1  and  N_2
REMARK                            x       y       z     vdW  Elec       q    Type
REMARK                         _______ _______ _______ _____ _____    ______ ____
ROOT
ATOM      1  C   UNL     1       2.590   7.209  18.661  0.00  0.00    +0.000 C 
ATOM      2  N   UNL     1       3.316   5.965  18.863  0.00  0.00    +0.000 N 
ATOM      3  C   UNL     1       4.510   5.762  18.340  0.00  0.00    +0.000 A 
ATOM      4  S   UNL     1       5.111   4.214  18.746  0.00  0.00    +0.000 S 
ATOM      5  C   UNL     1       3.692   3.834  19.652  0.00  0.00    +0.000 A 
ATOM      6  C   UNL     1       3.381   2.659  20.352  0.00  0.00    +0.000 A 
ATOM      7  C   UNL     1       2.151   2.596  21.012  0.00  0.00    +0.000 A 
ATOM      8  C   UNL     1       1.261   3.666  20.979  0.00  0.00    +0.000 A 
ATOM      9  C   UNL     1       1.577   4.838  20.280  0.00  0.00    +0.000 A 
ATOM     10  C   UNL     1       2.813   4.913  19.609  0.00  0.00    +0.000 A 
ENDROOT
TORSDOF 0
ENDMDL
MODEL 8
REMARK VINA RESULT:      -4.6      1.943      4.377
REMARK  Name = 
REMARK  1 active torsions:
REMARK  status: ('A' for Active; 'I' for Inactive)
REMARK    1  A    between atoms: C_1  and  N_2
REMARK                            x       y       z     vdW  Elec       q    Type
REMARK                         _______ _______ _______ _____ _____    ______ ____
ROOT
ATOM      1  C   UNL     1       2.545   5.987  19.747  0.00  0.00    +0.000 C 
ATOM      2  N   UNL     1       3.090   4.964  18.868  0.00  0.00    +0.000 N 
ATOM      3  C   UNL     1       2.863   3.680  19.069  0.00  0.00    +0.000 A 
ATOM      4  S   UNL     1       3.630   2.721  17.880  0.00  0.00    +0.000 S 
ATOM      5  C   UNL     1       4.281   4.112  17.091  0.00  0.00    +0.000 A 
ATOM      6  C   UNL     1       5.090   4.180  15.947  0.00  0.00    +0.000 A 
ATOM      7  C   UNL     1       5.492   5.443  15.503  0.00  0.00    +0.000 A 
ATOM      8  C   UNL     1       5.099   6.599  16.172  0.00  0.00    +0.000 A 
ATOM      9  C   UNL     1       4.289   6.526  17.312  0.00  0.00    +0.000 A 
ATOM     10  C   UNL     1       3.880   5.260  17.771  0.00  0.00    +0.000 A 
ENDROOT
TORSDOF 0
ENDMDL
MODEL 9
REMARK VINA RESULT:      -4.6      1.930      3.267
REMARK  Name = 
REMARK  1 active torsions:
REMARK  status: ('A' for Active; 'I' for Inactive)
REMARK    1  A    between atoms: C_1  and  N_2
REMARK                            x       y       z     vdW  Elec       q    Type
REMARK                         _______ _______ _______ _____ _____    ______ ____
ROOT
ATOM      1  C   UNL     1       2.730   2.212  17.606  0.00  0.00    +0.000 C 
ATOM      2  N   UNL     1       2.308   2.896  18.818  0.00  0.00    +0.000 N 
ATOM      3  C   UNL     1       1.844   2.237  19.864  0.00  0.00    +0.000 A 
ATOM      4  S   UNL     1       1.428   3.304  21.134  0.00  0.00    +0.000 S 
ATOM      5  C   UNL     1       1.897   4.684  20.210  0.00  0.00    +0.000 A 
ATOM      6  C   UNL     1       1.858   6.040  20.568  0.00  0.00    +0.000 A 
ATOM      7  C   UNL     1       2.297   6.978  19.629  0.00  0.00    +0.000 A 
ATOM      8  C   UNL     1       2.760   6.581  18.378  0.00  0.00    +0.000 A 
ATOM      9  C   UNL     1       2.799   5.226  18.025  0.00  0.00    +0.000 A 
ATOM     10  C   UNL     1       2.358   4.271  18.962  0.00  0.00    +0.000 A 
ENDROOT
TORSDOF 0
ENDMDL
