MODEL 1
REMARK VINA RESULT:      -9.0      0.000      0.000
REMARK  Name = 
REMARK  8 active torsions:
REMARK  status: ('A' for Active; 'I' for Inactive)
REMARK    1  A    between atoms: C_2  and  O_22
REMARK    2  A    between atoms: N_3  and  C_4
REMARK    3  A    between atoms: C_7  and  S_8
REMARK    4  A    between atoms: S_8  and  N_11
REMARK    5  A    between atoms: C_15  and  C_16
REMARK    6  A    between atoms: N_18  and  O_19
REMARK    7  A    between atoms: O_22  and  C_23
REMARK    8  A    between atoms: C_23  and  C_24
REMARK                            x       y       z     vdW  Elec       q    Type
REMARK                         _______ _______ _______ _____ _____    ______ ____
ROOT
ATOM      1  C   UNL     1       2.140   7.962  18.957  0.00  0.00    +0.000 A 
ATOM      2  C   UNL     1       2.241   6.973  19.950  0.00  0.00    +0.000 A 
ATOM      3  C   UNL     1       3.090   5.877  19.792  0.00  0.00    +0.000 A 
ATOM      4  C   UNL     1       3.872   5.769  18.639  0.00  0.00    +0.000 A 
ATOM      5  C   UNL     1       3.825   6.776  17.677  0.00  0.00    +0.000 A 
ATOM      6  C   UNL     1       2.923   7.834  17.806  0.00  0.00    +0.000 A 
ENDROOT
BRANCH   1   9
ATOM      7  O   UNL     1       2.317  10.598  17.647  0.00  0.00    +0.000 OA
ATOM      8  C   UNL     1       1.448  10.294  18.455  0.00  0.00    +0.000 C 
ATOM      9  N   UNL     1       1.287   9.076  19.060  0.00  0.00    +0.000 N 
ATOM     10  H   UNL     1       0.432   8.986  19.601  0.00  0.00    +0.000 HD
BRANCH   8  11
ATOM     11  O   UNL     1       0.490  11.159  18.894  0.00  0.00    +0.000 OA
BRANCH  11  12
ATOM     12  C   UNL     1      -0.728  10.537  19.336  0.00  0.00    +0.000 C 
BRANCH  12  13
ATOM     13  C   UNL     1      -1.811  10.640  18.290  0.00  0.00    +0.000 A 
ATOM     14  C   UNL     1      -2.913  11.483  18.490  0.00  0.00    +0.000 A 
ATOM     15  C   UNL     1      -3.924  11.571  17.530  0.00  0.00    +0.000 A 
ATOM     16  C   UNL     1      -3.843  10.816  16.361  0.00  0.00    +0.000 A 
ATOM     17  C   UNL     1      -2.747   9.983  16.144  0.00  0.00    +0.000 A 
ATOM     18  C   UNL     1      -1.734   9.895  17.104  0.00  0.00    +0.000 A 
ENDBRANCH  12  13
ENDBRANCH  11  12
ENDBRANCH   8  11
ENDBRANCH   1   9
BRANCH   4  19
ATOM     19  S   UNL     1       4.898   4.342  18.374  0.00  0.00    +0.000 S 
ATOM     20  O   UNL     1       5.706   4.598  17.199  0.00  0.00    +0.000 OA
ATOM     21  O   UNL     1       5.513   3.992  19.637  0.00  0.00    +0.000 OA
BRANCH  19  22
ATOM     22  N   UNL     1       3.825   3.091  18.021  0.00  0.00    +0.000 NA
ATOM     23  C   UNL     1       2.707   3.305  17.086  0.00  0.00    +0.000 C 
ATOM     24  C   UNL     1       1.462   3.130  17.929  0.00  0.00    +0.000 C 
ATOM     25  C   UNL     1       1.869   2.179  19.046  0.00  0.00    +0.000 C 
ATOM     26  C   UNL     1       3.410   2.052  18.997  0.00  0.00    +0.000 C 
BRANCH  26  27
ATOM     27  C   UNL     1       4.042   1.983  20.381  0.00  0.00    +0.000 C 
ATOM     28  O   UNL     1       3.526   2.468  21.394  0.00  0.00    +0.000 OA
ATOM     29  N   UNL     1       5.212   1.259  20.459  0.00  0.00    +0.000 N 
ATOM     30  H   UNL     1       5.872   1.299  19.670  0.00  0.00    +0.000 HD
BRANCH  29  31
ATOM     31  O   UNL     1       5.832   1.291  21.738  0.00  0.00    +0.000 OA
ATOM     32  H   UNL     1       5.912   2.254  21.913  0.00  0.00    +0.000 HD
ENDBRANCH  29  31
ENDBRANCH  26  27
ENDBRANCH  19  22
ENDBRANCH   4  19
TORSDOF 8
ENDMDL
MODEL 2
REMARK VINA RESULT:      -9.0      0.980      1.482
REMARK  Name = 
REMARK  8 active torsions:
REMARK  status: ('A' for Active; 'I' for Inactive)
REMARK    1  A    between atoms: C_2  and  O_22
REMARK    2  A    between atoms: N_3  and  C_4
REMARK    3  A    between atoms: C_7  and  S_8
REMARK    4  A    between atoms: S_8  and  N_11
REMARK    5  A    between atoms: C_15  and  C_16
REMARK    6  A    between atoms: N_18  and  O_19
REMARK    7  A    between atoms: O_22  and  C_23
REMARK    8  A    between atoms: C_23  and  C_24
REMARK                            x       y       z     vdW  Elec       q    Type
REMARK                         _______ _______ _______ _____ _____    ______ ____
ROOT
ATOM      1  C   UNL     1       2.010   8.029  19.419  0.00  0.00    +0.000 A 
ATOM      2  C   UNL     1       2.210   6.977  20.329  0.00  0.00    +0.000 A 
ATOM      3  C   UNL     1       3.026   5.891  20.008  0.00  0.00    +0.000 A 
ATOM      4  C   UNL     1       3.676   5.857  18.772  0.00  0.00    +0.000 A 
ATOM      5  C   UNL     1       3.534   6.925  17.887  0.00  0.00    +0.000 A 
ATOM      6  C   UNL     1       2.662   7.974  18.184  0.00  0.00    +0.000 A 
ENDROOT
BRANCH   1   9
ATOM      7  O   UNL     1      -0.125   8.342  21.428  0.00  0.00    +0.000 OA
ATOM      8  C   UNL     1       0.176   9.204  20.612  0.00  0.00    +0.000 C 
ATOM      9  N   UNL     1       1.184   9.136  19.687  0.00  0.00    +0.000 N 
ATOM     10  H   UNL     1       1.355  10.003  19.188  0.00  0.00    +0.000 HD
BRANCH   8  11
ATOM     11  O   UNL     1      -0.481  10.392  20.493  0.00  0.00    +0.000 OA
BRANCH  11  12
ATOM     12  C   UNL     1      -0.305  11.055  19.229  0.00  0.00    +0.000 C 
BRANCH  12  13
ATOM     13  C   UNL     1      -1.517  10.890  18.346  0.00  0.00    +0.000 A 
ATOM     14  C   UNL     1      -1.496   9.988  17.273  0.00  0.00    +0.000 A 
ATOM     15  C   UNL     1      -2.612   9.843  16.445  0.00  0.00    +0.000 A 
ATOM     16  C   UNL     1      -3.759  10.599  16.680  0.00  0.00    +0.000 A 
ATOM     17  C   UNL     1      -3.797  11.490  17.751  0.00  0.00    +0.000 A 
ATOM     18  C   UNL     1      -2.681  11.636  18.581  0.00  0.00    +0.000 A 
ENDBRANCH  12  13
ENDBRANCH  11  12
ENDBRANCH   8  11
ENDBRANCH   1   9
BRANCH   4  19
ATOM     19  S   UNL     1       4.653   4.448  18.303  0.00  0.00    +0.000 S 
ATOM     20  O   UNL     1       5.322   4.775  17.061  0.00  0.00    +0.000 OA
ATOM     21  O   UNL     1       5.408   4.021  19.463  0.00  0.00    +0.000 OA
BRANCH  19  22
ATOM     22  N   UNL     1       3.537   3.222  18.002  0.00  0.00    +0.000 NA
ATOM     23  C   UNL     1       2.384   3.460  17.116  0.00  0.00    +0.000 C 
ATOM     24  C   UNL     1       1.173   3.316  18.014  0.00  0.00    +0.000 C 
ATOM     25  C   UNL     1       1.606   2.359  19.115  0.00  0.00    +0.000 C 
ATOM     26  C   UNL     1       3.140   2.196  18.999  0.00  0.00    +0.000 C 
BRANCH  26  27
ATOM     27  C   UNL     1       3.831   2.115  20.354  0.00  0.00    +0.000 C 
ATOM     28  O   UNL     1       3.351   2.577  21.395  0.00  0.00    +0.000 OA
ATOM     29  N   UNL     1       5.012   1.407  20.372  0.00  0.00    +0.000 N 
ATOM     30  H   UNL     1       5.639   1.468  19.557  0.00  0.00    +0.000 HD
BRANCH  29  31
ATOM     31  O   UNL     1       5.685   1.429  21.624  0.00  0.00    +0.000 OA
ATOM     32  H   UNL     1       5.702   2.386  21.841  0.00  0.00    +0.000 HD
ENDBRANCH  29  31
ENDBRANCH  26  27
ENDBRANCH  19  22
ENDBRANCH   4  19
TORSDOF 8
ENDMDL
MODEL 3
REMARK VINA RESULT:      -8.6      4.553      7.064
REMARK  Name = 
REMARK  8 active torsions:
REMARK  status: ('A' for Active; 'I' for Inactive)
REMARK    1  A    between atoms: C_2  and  O_22
REMARK    2  A    between atoms: N_3  and  C_4
REMARK    3  A    between atoms: C_7  and  S_8
REMARK    4  A    between atoms: S_8  and  N_11
REMARK    5  A    between atoms: C_15  and  C_16
REMARK    6  A    between atoms: N_18  and  O_19
REMARK    7  A    between atoms: O_22  and  C_23
REMARK    8  A    between atoms: C_23  and  C_24
REMARK                            x       y       z     vdW  Elec       q    Type
REMARK                         _______ _______ _______ _____ _____    ______ ____
ROOT
ATOM      1  C   UNL     1       5.394   6.583  17.256  0.00  0.00    +0.000 A 
ATOM      2  C   UNL     1       5.512   5.235  16.876  0.00  0.00    +0.000 A 
ATOM      3  C   UNL     1       4.430   4.360  16.975  0.00  0.00    +0.000 A 
ATOM      4  C   UNL     1       3.199   4.833  17.437  0.00  0.00    +0.000 A 
ATOM      5  C   UNL     1       3.054   6.181  17.758  0.00  0.00    +0.000 A 
ATOM      6  C   UNL     1       4.158   7.037  17.724  0.00  0.00    +0.000 A 
ENDROOT
BRANCH   1   9
ATOM      7  O   UNL     1       7.957   6.597  18.715  0.00  0.00    +0.000 OA
ATOM      8  C   UNL     1       7.612   7.473  17.932  0.00  0.00    +0.000 C 
ATOM      9  N   UNL     1       6.459   7.500  17.193  0.00  0.00    +0.000 N 
ATOM     10  H   UNL     1       6.416   8.248  16.508  0.00  0.00    +0.000 HD
BRANCH   8  11
ATOM     11  O   UNL     1       8.346   8.596  17.684  0.00  0.00    +0.000 OA
BRANCH  11  12
ATOM     12  C   UNL     1       8.893   9.228  18.854  0.00  0.00    +0.000 C 
BRANCH  12  13
ATOM     13  C   UNL     1       9.277  10.660  18.577  0.00  0.00    +0.000 A 
ATOM     14  C   UNL     1      10.466  11.191  19.098  0.00  0.00    +0.000 A 
ATOM     15  C   UNL     1      10.817  12.520  18.855  0.00  0.00    +0.000 A 
ATOM     16  C   UNL     1       9.983  13.334  18.091  0.00  0.00    +0.000 A 
ATOM     17  C   UNL     1       8.805  12.816  17.557  0.00  0.00    +0.000 A 
ATOM     18  C   UNL     1       8.452  11.485  17.798  0.00  0.00    +0.000 A 
ENDBRANCH  12  13
ENDBRANCH  11  12
ENDBRANCH   8  11
ENDBRANCH   1   9
BRANCH   4  19
ATOM     19  S   UNL     1       1.828   3.722  17.652  0.00  0.00    +0.000 S 
ATOM     20  O   UNL     1       0.659   4.357  17.077  0.00  0.00    +0.000 OA
ATOM     21  O   UNL     1       2.246   2.406  17.220  0.00  0.00    +0.000 OA
BRANCH  19  22
ATOM     22  N   UNL     1       1.611   3.614  19.320  0.00  0.00    +0.000 NA
ATOM     23  C   UNL     1       0.951   4.703  20.061  0.00  0.00    +0.000 C 
ATOM     24  C   UNL     1       2.020   5.238  20.990  0.00  0.00    +0.000 C 
ATOM     25  C   UNL     1       2.948   4.060  21.249  0.00  0.00    +0.000 C 
ATOM     26  C   UNL     1       2.567   2.950  20.241  0.00  0.00    +0.000 C 
BRANCH  26  27
ATOM     27  C   UNL     1       3.777   2.199  19.702  0.00  0.00    +0.000 C 
ATOM     28  O   UNL     1       4.945   2.556  19.892  0.00  0.00    +0.000 OA
ATOM     29  N   UNL     1       3.495   1.022  19.044  0.00  0.00    +0.000 N 
ATOM     30  H   UNL     1       2.645   0.970  18.464  0.00  0.00    +0.000 HD
BRANCH  29  31
ATOM     31  O   UNL     1       4.631   0.391  18.467  0.00  0.00    +0.000 OA
ATOM     32  H   UNL     1       4.897   1.026  17.768  0.00  0.00    +0.000 HD
ENDBRANCH  29  31
ENDBRANCH  26  27
ENDBRANCH  19  22
ENDBRANCH   4  19
TORSDOF 8
ENDMDL
MODEL 4
REMARK VINA RESULT:      -8.6      0.799      1.009
REMARK  Name = 
REMARK  8 active torsions:
REMARK  status: ('A' for Active; 'I' for Inactive)
REMARK    1  A    between atoms: C_2  and  O_22
REMARK    2  A    between atoms: N_3  and  C_4
REMARK    3  A    between atoms: C_7  and  S_8
REMARK    4  A    between atoms: S_8  and  N_11
REMARK    5  A    between atoms: C_15  and  C_16
REMARK    6  A    between atoms: N_18  and  O_19
REMARK    7  A    between atoms: O_22  and  C_23
REMARK    8  A    between atoms: C_23  and  C_24
REMARK                            x       y       z     vdW  Elec       q    Type
REMARK                         _______ _______ _______ _____ _____    ______ ____
ROOT
ATOM      1  C   UNL     1       2.239   7.973  18.566  0.00  0.00    +0.000 A 
ATOM      2  C   UNL     1       2.244   7.011  19.590  0.00  0.00    +0.000 A 
ATOM      3  C   UNL     1       3.132   5.935  19.564  0.00  0.00    +0.000 A 
ATOM      4  C   UNL     1       4.049   5.821  18.516  0.00  0.00    +0.000 A 
ATOM      5  C   UNL     1       4.094   6.803  17.528  0.00  0.00    +0.000 A 
ATOM      6  C   UNL     1       3.158   7.839  17.521  0.00  0.00    +0.000 A 
ENDROOT
BRANCH   1   9
ATOM      7  O   UNL     1       1.134   9.562  20.790  0.00  0.00    +0.000 OA
ATOM      8  C   UNL     1       0.841   9.737  19.614  0.00  0.00    +0.000 C 
ATOM      9  N   UNL     1       1.353   9.065  18.536  0.00  0.00    +0.000 N 
ATOM     10  H   UNL     1       1.077   9.445  17.635  0.00  0.00    +0.000 HD
BRANCH   8  11
ATOM     11  O   UNL     1      -0.080  10.651  19.195  0.00  0.00    +0.000 OA
BRANCH  11  12
ATOM     12  C   UNL     1      -0.602  10.419  17.875  0.00  0.00    +0.000 C 
BRANCH  12  13
ATOM     13  C   UNL     1      -2.032  10.887  17.758  0.00  0.00    +0.000 A 
ATOM     14  C   UNL     1      -2.669  11.502  18.845  0.00  0.00    +0.000 A 
ATOM     15  C   UNL     1      -3.997  11.923  18.745  0.00  0.00    +0.000 A 
ATOM     16  C   UNL     1      -4.702  11.732  17.558  0.00  0.00    +0.000 A 
ATOM     17  C   UNL     1      -4.077  11.133  16.467  0.00  0.00    +0.000 A 
ATOM     18  C   UNL     1      -2.748  10.711  16.565  0.00  0.00    +0.000 A 
ENDBRANCH  12  13
ENDBRANCH  11  12
ENDBRANCH   8  11
ENDBRANCH   1   9
BRANCH   4  19
ATOM     19  S   UNL     1       5.134   4.416  18.414  0.00  0.00    +0.000 S 
ATOM     20  O   UNL     1       6.073   4.668  17.341  0.00  0.00    +0.000 OA
ATOM     21  O   UNL     1       5.597   4.111  19.751  0.00  0.00    +0.000 OA
BRANCH  19  22
ATOM     22  N   UNL     1       4.142   3.130  17.964  0.00  0.00    +0.000 NA
ATOM     23  C   UNL     1       3.103   3.309  16.935  0.00  0.00    +0.000 C 
ATOM     24  C   UNL     1       1.796   3.084  17.665  0.00  0.00    +0.000 C 
ATOM     25  C   UNL     1       2.137   2.141  18.810  0.00  0.00    +0.000 C 
ATOM     26  C   UNL     1       3.680   2.071  18.897  0.00  0.00    +0.000 C 
BRANCH  26  27
ATOM     27  C   UNL     1       4.191   2.016  20.331  0.00  0.00    +0.000 C 
ATOM     28  O   UNL     1       3.598   2.525  21.288  0.00  0.00    +0.000 OA
ATOM     29  N   UNL     1       5.337   1.275  20.520  0.00  0.00    +0.000 N 
ATOM     30  H   UNL     1       6.064   1.291  19.790  0.00  0.00    +0.000 HD
BRANCH  29  31
ATOM     31  O   UNL     1       5.846   1.320  21.847  0.00  0.00    +0.000 OA
ATOM     32  H   UNL     1       6.412   0.518  21.886  0.00  0.00    +0.000 HD
ENDBRANCH  29  31
ENDBRANCH  26  27
ENDBRANCH  19  22
ENDBRANCH   4  19
TORSDOF 8
ENDMDL
MODEL 5
REMARK VINA RESULT:      -8.5      2.226      3.833
REMARK  Name = 
REMARK  8 active torsions:
REMARK  status: ('A' for Active; 'I' for Inactive)
REMARK    1  A    between atoms: C_2  and  O_22
REMARK    2  A    between atoms: N_3  and  C_4
REMARK    3  A    between atoms: C_7  and  S_8
REMARK    4  A    between atoms: S_8  and  N_11
REMARK    5  A    between atoms: C_15  and  C_16
REMARK    6  A    between atoms: N_18  and  O_19
REMARK    7  A    between atoms: O_22  and  C_23
REMARK    8  A    between atoms: C_23  and  C_24
REMARK                            x       y       z     vdW  Elec       q    Type
REMARK                         _______ _______ _______ _____ _____    ______ ____
ROOT
ATOM      1  C   UNL     1       2.246   7.762  19.009  0.00  0.00    +0.000 A 
ATOM      2  C   UNL     1       2.336   6.700  19.924  0.00  0.00    +0.000 A 
ATOM      3  C   UNL     1       3.118   5.577  19.651  0.00  0.00    +0.000 A 
ATOM      4  C   UNL     1       3.844   5.514  18.459  0.00  0.00    +0.000 A 
ATOM      5  C   UNL     1       3.810   6.589  17.573  0.00  0.00    +0.000 A 
ATOM      6  C   UNL     1       2.972   7.679  17.817  0.00  0.00    +0.000 A 
ENDROOT
BRANCH   1   9
ATOM      7  O   UNL     1       1.169   8.851  21.528  0.00  0.00    +0.000 OA
ATOM      8  C   UNL     1       0.952   9.338  20.426  0.00  0.00    +0.000 C 
ATOM      9  N   UNL     1       1.458   8.907  19.229  0.00  0.00    +0.000 N 
ATOM     10  H   UNL     1       1.261   9.520  18.444  0.00  0.00    +0.000 HD
BRANCH   8  11
ATOM     11  O   UNL     1       0.133  10.410  20.223  0.00  0.00    +0.000 OA
BRANCH  11  12
ATOM     12  C   UNL     1       0.067  10.869  18.862  0.00  0.00    +0.000 C 
BRANCH  12  13
ATOM     13  C   UNL     1      -1.344  10.813  18.330  0.00  0.00    +0.000 A 
ATOM     14  C   UNL     1      -2.334  11.656  18.854  0.00  0.00    +0.000 A 
ATOM     15  C   UNL     1      -3.644  11.597  18.374  0.00  0.00    +0.000 A 
ATOM     16  C   UNL     1      -3.978  10.695  17.366  0.00  0.00    +0.000 A 
ATOM     17  C   UNL     1      -3.001   9.860  16.828  0.00  0.00    +0.000 A 
ATOM     18  C   UNL     1      -1.689   9.918  17.307  0.00  0.00    +0.000 A 
ENDBRANCH  12  13
ENDBRANCH  11  12
ENDBRANCH   8  11
ENDBRANCH   1   9
BRANCH   4  19
ATOM     19  S   UNL     1       4.781   4.060  18.047  0.00  0.00    +0.000 S 
ATOM     20  O   UNL     1       4.664   3.138  19.158  0.00  0.00    +0.000 OA
ATOM     21  O   UNL     1       4.415   3.657  16.706  0.00  0.00    +0.000 OA
BRANCH  19  22
ATOM     22  N   UNL     1       6.380   4.583  17.952  0.00  0.00    +0.000 NA
ATOM     23  C   UNL     1       7.003   5.297  19.080  0.00  0.00    +0.000 C 
ATOM     24  C   UNL     1       7.306   6.678  18.540  0.00  0.00    +0.000 C 
ATOM     25  C   UNL     1       7.504   6.486  17.043  0.00  0.00    +0.000 C 
ATOM     26  C   UNL     1       7.027   5.054  16.702  0.00  0.00    +0.000 C 
BRANCH  26  27
ATOM     27  C   UNL     1       6.298   4.975  15.367  0.00  0.00    +0.000 C 
ATOM     28  O   UNL     1       5.677   5.921  14.870  0.00  0.00    +0.000 OA
ATOM     29  N   UNL     1       6.443   3.786  14.686  0.00  0.00    +0.000 N 
ATOM     30  H   UNL     1       6.482   2.909  15.223  0.00  0.00    +0.000 HD
BRANCH  29  31
ATOM     31  O   UNL     1       5.675   3.702  13.492  0.00  0.00    +0.000 OA
ATOM     32  H   UNL     1       4.859   4.195  13.728  0.00  0.00    +0.000 HD
ENDBRANCH  29  31
ENDBRANCH  26  27
ENDBRANCH  19  22
ENDBRANCH   4  19
TORSDOF 8
ENDMDL
MODEL 6
REMARK VINA RESULT:      -8.5      2.082      2.668
REMARK  Name = 
REMARK  8 active torsions:
REMARK  status: ('A' for Active; 'I' for Inactive)
REMARK    1  A    between atoms: C_2  and  O_22
REMARK    2  A    between atoms: N_3  and  C_4
REMARK    3  A    between atoms: C_7  and  S_8
REMARK    4  A    between atoms: S_8  and  N_11
REMARK    5  A    between atoms: C_15  and  C_16
REMARK    6  A    between atoms: N_18  and  O_19
REMARK    7  A    between atoms: O_22  and  C_23
REMARK    8  A    between atoms: C_23  and  C_24
REMARK                            x       y       z     vdW  Elec       q    Type
REMARK                         _______ _______ _______ _____ _____    ______ ____
ROOT
ATOM      1  C   UNL     1       2.113   8.028  18.872  0.00  0.00    +0.000 A 
ATOM      2  C   UNL     1       2.213   7.064  19.890  0.00  0.00    +0.000 A 
ATOM      3  C   UNL     1       3.070   5.970  19.766  0.00  0.00    +0.000 A 
ATOM      4  C   UNL     1       3.862   5.840  18.623  0.00  0.00    +0.000 A 
ATOM      5  C   UNL     1       3.818   6.822  17.636  0.00  0.00    +0.000 A 
ATOM      6  C   UNL     1       2.908   7.877  17.732  0.00  0.00    +0.000 A 
ENDROOT
BRANCH   1   9
ATOM      7  O   UNL     1       2.527  10.794  17.938  0.00  0.00    +0.000 OA
ATOM      8  C   UNL     1       1.522  10.415  18.524  0.00  0.00    +0.000 C 
ATOM      9  N   UNL     1       1.252   9.138  18.941  0.00  0.00    +0.000 N 
ATOM     10  H   UNL     1       0.310   9.003  19.295  0.00  0.00    +0.000 HD
BRANCH   8  11
ATOM     11  O   UNL     1       0.494  11.242  18.872  0.00  0.00    +0.000 OA
BRANCH  11  12
ATOM     12  C   UNL     1       0.787  12.146  19.951  0.00  0.00    +0.000 C 
BRANCH  12  13
ATOM     13  C   UNL     1      -0.144  11.930  21.118  0.00  0.00    +0.000 A 
ATOM     14  C   UNL     1      -0.032  10.780  21.913  0.00  0.00    +0.000 A 
ATOM     15  C   UNL     1      -0.902  10.570  22.985  0.00  0.00    +0.000 A 
ATOM     16  C   UNL     1      -1.893  11.506  23.274  0.00  0.00    +0.000 A 
ATOM     17  C   UNL     1      -2.008  12.659  22.499  0.00  0.00    +0.000 A 
ATOM     18  C   UNL     1      -1.138  12.871  21.426  0.00  0.00    +0.000 A 
ENDBRANCH  12  13
ENDBRANCH  11  12
ENDBRANCH   8  11
ENDBRANCH   1   9
BRANCH   4  19
ATOM     19  S   UNL     1       4.900   4.413  18.401  0.00  0.00    +0.000 S 
ATOM     20  O   UNL     1       5.743   4.662  17.250  0.00  0.00    +0.000 OA
ATOM     21  O   UNL     1       5.477   4.076  19.685  0.00  0.00    +0.000 OA
BRANCH  19  22
ATOM     22  N   UNL     1       3.842   3.157  18.026  0.00  0.00    +0.000 NA
ATOM     23  C   UNL     1       2.732   3.369  17.080  0.00  0.00    +0.000 C 
ATOM     24  C   UNL     1       1.480   3.176  17.908  0.00  0.00    +0.000 C 
ATOM     25  C   UNL     1       1.882   2.219  19.022  0.00  0.00    +0.000 C 
ATOM     26  C   UNL     1       3.425   2.106  18.989  0.00  0.00    +0.000 C 
BRANCH  26  27
ATOM     27  C   UNL     1       4.042   2.030  20.379  0.00  0.00    +0.000 C 
ATOM     28  O   UNL     1       3.524   2.526  21.385  0.00  0.00    +0.000 OA
ATOM     29  N   UNL     1       5.199   1.288  20.470  0.00  0.00    +0.000 N 
ATOM     30  H   UNL     1       5.868   1.314  19.687  0.00  0.00    +0.000 HD
BRANCH  29  31
ATOM     31  O   UNL     1       5.807   1.313  21.755  0.00  0.00    +0.000 OA
ATOM     32  H   UNL     1       6.683   1.716  21.569  0.00  0.00    +0.000 HD
ENDBRANCH  29  31
ENDBRANCH  26  27
ENDBRANCH  19  22
ENDBRANCH   4  19
TORSDOF 8
ENDMDL
MODEL 7
REMARK VINA RESULT:      -8.5      2.136      3.849
REMARK  Name = 
REMARK  8 active torsions:
REMARK  status: ('A' for Active; 'I' for Inactive)
REMARK    1  A    between atoms: C_2  and  O_22
REMARK    2  A    between atoms: N_3  and  C_4
REMARK    3  A    between atoms: C_7  and  S_8
REMARK    4  A    between atoms: S_8  and  N_11
REMARK    5  A    between atoms: C_15  and  C_16
REMARK    6  A    between atoms: N_18  and  O_19
REMARK    7  A    between atoms: O_22  and  C_23
REMARK    8  A    between atoms: C_23  and  C_24
REMARK                            x       y       z     vdW  Elec       q    Type
REMARK                         _______ _______ _______ _____ _____    ______ ____
ROOT
ATOM      1  C   UNL     1       2.364   7.909  18.505  0.00  0.00    +0.000 A 
ATOM      2  C   UNL     1       2.334   6.959  19.540  0.00  0.00    +0.000 A 
ATOM      3  C   UNL     1       3.145   5.824  19.501  0.00  0.00    +0.000 A 
ATOM      4  C   UNL     1       4.021   5.638  18.429  0.00  0.00    +0.000 A 
ATOM      5  C   UNL     1       4.104   6.604  17.429  0.00  0.00    +0.000 A 
ATOM      6  C   UNL     1       3.240   7.702  17.436  0.00  0.00    +0.000 A 
ENDROOT
BRANCH   1   9
ATOM      7  O   UNL     1       1.170   9.404  20.749  0.00  0.00    +0.000 OA
ATOM      8  C   UNL     1       0.993   9.684  19.570  0.00  0.00    +0.000 C 
ATOM      9  N   UNL     1       1.554   9.059  18.489  0.00  0.00    +0.000 N 
ATOM     10  H   UNL     1       1.382   9.520  17.601  0.00  0.00    +0.000 HD
BRANCH   8  11
ATOM     11  O   UNL     1       0.171  10.688  19.149  0.00  0.00    +0.000 OA
BRANCH  11  12
ATOM     12  C   UNL     1      -1.215  10.517  19.495  0.00  0.00    +0.000 C 
BRANCH  12  13
ATOM     13  C   UNL     1      -2.102  10.620  18.279  0.00  0.00    +0.000 A 
ATOM     14  C   UNL     1      -1.791   9.912  17.110  0.00  0.00    +0.000 A 
ATOM     15  C   UNL     1      -2.603  10.016  15.979  0.00  0.00    +0.000 A 
ATOM     16  C   UNL     1      -3.734  10.831  16.003  0.00  0.00    +0.000 A 
ATOM     17  C   UNL     1      -4.061  11.531  17.163  0.00  0.00    +0.000 A 
ATOM     18  C   UNL     1      -3.250  11.427  18.297  0.00  0.00    +0.000 A 
ENDBRANCH  12  13
ENDBRANCH  11  12
ENDBRANCH   8  11
ENDBRANCH   1   9
BRANCH   4  19
ATOM     19  S   UNL     1       5.004   4.161  18.312  0.00  0.00    +0.000 S 
ATOM     20  O   UNL     1       4.863   3.443  19.562  0.00  0.00    +0.000 OA
ATOM     21  O   UNL     1       4.701   3.521  17.050  0.00  0.00    +0.000 OA
BRANCH  19  22
ATOM     22  N   UNL     1       6.595   4.703  18.185  0.00  0.00    +0.000 NA
ATOM     23  C   UNL     1       7.191   5.532  19.248  0.00  0.00    +0.000 C 
ATOM     24  C   UNL     1       7.475   6.862  18.584  0.00  0.00    +0.000 C 
ATOM     25  C   UNL     1       7.694   6.535  17.114  0.00  0.00    +0.000 C 
ATOM     26  C   UNL     1       7.248   5.069  16.903  0.00  0.00    +0.000 C 
BRANCH  26  27
ATOM     27  C   UNL     1       6.537   4.852  15.574  0.00  0.00    +0.000 C 
ATOM     28  O   UNL     1       5.951   5.749  14.957  0.00  0.00    +0.000 OA
ATOM     29  N   UNL     1       6.656   3.587  15.041  0.00  0.00    +0.000 N 
ATOM     30  H   UNL     1       6.661   2.779  15.679  0.00  0.00    +0.000 HD
BRANCH  29  31
ATOM     31  O   UNL     1       5.904   3.383  13.852  0.00  0.00    +0.000 OA
ATOM     32  H   UNL     1       5.766   2.411  13.849  0.00  0.00    +0.000 HD
ENDBRANCH  29  31
ENDBRANCH  26  27
ENDBRANCH  19  22
ENDBRANCH   4  19
TORSDOF 8
ENDMDL
MODEL 8
REMARK VINA RESULT:      -8.4      1.651      2.611
REMARK  Name = 
REMARK  8 active torsions:
REMARK  status: ('A' for Active; 'I' for Inactive)
REMARK    1  A    between atoms: C_2  and  O_22
REMARK    2  A    between atoms: N_3  and  C_4
REMARK    3  A    between atoms: C_7  and  S_8
REMARK    4  A    between atoms: S_8  and  N_11
REMARK    5  A    between atoms: C_15  and  C_16
REMARK    6  A    between atoms: N_18  and  O_19
REMARK    7  A    between atoms: O_22  and  C_23
REMARK    8  A    between atoms: C_23  and  C_24
REMARK                            x       y       z     vdW  Elec       q    Type
REMARK                         _______ _______ _______ _____ _____    ______ ____
ROOT
ATOM      1  C   UNL     1       2.305   7.910  18.662  0.00  0.00    +0.000 A 
ATOM      2  C   UNL     1       3.354   7.834  17.730  0.00  0.00    +0.000 A 
ATOM      3  C   UNL     1       4.350   6.865  17.844  0.00  0.00    +0.000 A 
ATOM      4  C   UNL     1       4.295   5.936  18.886  0.00  0.00    +0.000 A 
ATOM      5  C   UNL     1       3.227   5.964  19.780  0.00  0.00    +0.000 A 
ATOM      6  C   UNL     1       2.270   6.979  19.704  0.00  0.00    +0.000 A 
ENDROOT
BRANCH   1   9
ATOM      7  O   UNL     1       2.466  10.772  17.970  0.00  0.00    +0.000 OA
ATOM      8  C   UNL     1       1.434  10.209  18.313  0.00  0.00    +0.000 C 
ATOM      9  N   UNL     1       1.286   8.879  18.602  0.00  0.00    +0.000 N 
ATOM     10  H   UNL     1       0.325   8.584  18.743  0.00  0.00    +0.000 HD
BRANCH   8  11
ATOM     11  O   UNL     1       0.243  10.853  18.476  0.00  0.00    +0.000 OA
BRANCH  11  12
ATOM     12  C   UNL     1      -0.885   9.989  18.695  0.00  0.00    +0.000 C 
BRANCH  12  13
ATOM     13  C   UNL     1      -2.044  10.358  17.803  0.00  0.00    +0.000 A 
ATOM     14  C   UNL     1      -3.056  11.208  18.268  0.00  0.00    +0.000 A 
ATOM     15  C   UNL     1      -4.138  11.541  17.450  0.00  0.00    +0.000 A 
ATOM     16  C   UNL     1      -4.218  11.027  16.157  0.00  0.00    +0.000 A 
ATOM     17  C   UNL     1      -3.212  10.191  15.677  0.00  0.00    +0.000 A 
ATOM     18  C   UNL     1      -2.129   9.857  16.495  0.00  0.00    +0.000 A 
ENDBRANCH  12  13
ENDBRANCH  11  12
ENDBRANCH   8  11
ENDBRANCH   1   9
BRANCH   4  19
ATOM     19  S   UNL     1       5.596   4.744  19.104  0.00  0.00    +0.000 S 
ATOM     20  O   UNL     1       6.739   5.442  19.656  0.00  0.00    +0.000 OA
ATOM     21  O   UNL     1       5.037   3.589  19.772  0.00  0.00    +0.000 OA
BRANCH  19  22
ATOM     22  N   UNL     1       5.986   4.233  17.546  0.00  0.00    +0.000 NA
ATOM     23  C   UNL     1       6.864   5.047  16.687  0.00  0.00    +0.000 C 
ATOM     24  C   UNL     1       5.988   5.462  15.525  0.00  0.00    +0.000 C 
ATOM     25  C   UNL     1       4.947   4.359  15.397  0.00  0.00    +0.000 C 
ATOM     26  C   UNL     1       5.060   3.477  16.663  0.00  0.00    +0.000 C 
BRANCH  26  27
ATOM     27  C   UNL     1       3.708   3.000  17.176  0.00  0.00    +0.000 C 
ATOM     28  O   UNL     1       2.645   3.592  16.955  0.00  0.00    +0.000 OA
ATOM     29  N   UNL     1       3.723   1.797  17.846  0.00  0.00    +0.000 N 
ATOM     30  H   UNL     1       4.529   1.574  18.447  0.00  0.00    +0.000 HD
BRANCH  29  31
ATOM     31  O   UNL     1       2.467   1.422  18.397  0.00  0.00    +0.000 OA
ATOM     32  H   UNL     1       2.694   0.627  18.926  0.00  0.00    +0.000 HD
ENDBRANCH  29  31
ENDBRANCH  26  27
ENDBRANCH  19  22
ENDBRANCH   4  19
TORSDOF 8
ENDMDL
MODEL 9
REMARK VINA RESULT:      -8.4      4.541      7.083
REMARK  Name = 
REMARK  8 active torsions:
REMARK  status: ('A' for Active; 'I' for Inactive)
REMARK    1  A    between atoms: C_2  and  O_22
REMARK    2  A    between atoms: N_3  and  C_4
REMARK    3  A    between atoms: C_7  and  S_8
REMARK    4  A    between atoms: S_8  and  N_11
REMARK    5  A    between atoms: C_15  and  C_16
REMARK    6  A    between atoms: N_18  and  O_19
REMARK    7  A    between atoms: O_22  and  C_23
REMARK    8  A    between atoms: C_23  and  C_24
REMARK                            x       y       z     vdW  Elec       q    Type
REMARK                         _______ _______ _______ _____ _____    ______ ____
ROOT
ATOM      1  C   UNL     1       5.567   6.585  17.534  0.00  0.00    +0.000 A 
ATOM      2  C   UNL     1       4.308   7.075  17.922  0.00  0.00    +0.000 A 
ATOM      3  C   UNL     1       3.194   6.238  17.975  0.00  0.00    +0.000 A 
ATOM      4  C   UNL     1       3.331   4.884  17.662  0.00  0.00    +0.000 A 
ATOM      5  C   UNL     1       4.587   4.374  17.336  0.00  0.00    +0.000 A 
ATOM      6  C   UNL     1       5.685   5.229  17.216  0.00  0.00    +0.000 A 
ENDROOT
BRANCH   1   9
ATOM      7  O   UNL     1       8.111   6.403  19.014  0.00  0.00    +0.000 OA
ATOM      8  C   UNL     1       7.857   7.279  18.197  0.00  0.00    +0.000 C 
ATOM      9  N   UNL     1       6.717   7.391  17.447  0.00  0.00    +0.000 N 
ATOM     10  H   UNL     1       6.751   8.115  16.736  0.00  0.00    +0.000 HD
BRANCH   8  11
ATOM     11  O   UNL     1       8.699   8.315  17.917  0.00  0.00    +0.000 OA
BRANCH  11  12
ATOM     12  C   UNL     1       8.056   9.594  17.780  0.00  0.00    +0.000 C 
BRANCH  12  13
ATOM     13  C   UNL     1       8.876  10.693  18.410  0.00  0.00    +0.000 A 
ATOM     14  C   UNL     1       9.560  10.468  19.612  0.00  0.00    +0.000 A 
ATOM     15  C   UNL     1      10.309  11.487  20.205  0.00  0.00    +0.000 A 
ATOM     16  C   UNL     1      10.381  12.742  19.602  0.00  0.00    +0.000 A 
ATOM     17  C   UNL     1       9.715  12.975  18.401  0.00  0.00    +0.000 A 
ATOM     18  C   UNL     1       8.966  11.956  17.806  0.00  0.00    +0.000 A 
ENDBRANCH  12  13
ENDBRANCH  11  12
ENDBRANCH   8  11
ENDBRANCH   1   9
BRANCH   4  19
ATOM     19  S   UNL     1       1.912   3.813  17.640  0.00  0.00    +0.000 S 
ATOM     20  O   UNL     1       0.821   4.548  17.034  0.00  0.00    +0.000 OA
ATOM     21  O   UNL     1       2.327   2.531  17.112  0.00  0.00    +0.000 OA
BRANCH  19  22
ATOM     22  N   UNL     1       1.541   3.546  19.262  0.00  0.00    +0.000 NA
ATOM     23  C   UNL     1       0.831   4.571  20.046  0.00  0.00    +0.000 C 
ATOM     24  C   UNL     1       1.818   4.988  21.116  0.00  0.00    +0.000 C 
ATOM     25  C   UNL     1       2.701   3.768  21.339  0.00  0.00    +0.000 C 
ATOM     26  C   UNL     1       2.399   2.772  20.195  0.00  0.00    +0.000 C 
BRANCH  26  27
ATOM     27  C   UNL     1       3.643   2.050  19.694  0.00  0.00    +0.000 C 
ATOM     28  O   UNL     1       4.791   2.341  20.047  0.00  0.00    +0.000 OA
ATOM     29  N   UNL     1       3.407   0.972  18.870  0.00  0.00    +0.000 N 
ATOM     30  H   UNL     1       2.623   1.020  18.204  0.00  0.00    +0.000 HD
BRANCH  29  31
ATOM     31  O   UNL     1       4.584   0.376  18.340  0.00  0.00    +0.000 OA
ATOM     32  H   UNL     1       4.817   0.981  17.603  0.00  0.00    +0.000 HD
ENDBRANCH  29  31
ENDBRANCH  26  27
ENDBRANCH  19  22
ENDBRANCH   4  19
TORSDOF 8
ENDMDL
