MODEL 1
REMARK VINA RESULT:      -8.9      0.000      0.000
REMARK  Name = 
REMARK  8 active torsions:
REMARK  status: ('A' for Active; 'I' for Inactive)
REMARK    1  A    between atoms: C_1  and  O_2
REMARK    2  A    between atoms: O_2  and  C_3
REMARK    3  A    between atoms: C_7  and  C_8
REMARK    4  A    between atoms: C_14  and  C_15
REMARK    5  A    between atoms: C_15  and  C_16
REMARK    6  A    between atoms: C_16  and  C_17
REMARK    7  A    between atoms: N_19  and  C_20
REMARK    8  A    between atoms: C_20  and  C_21
REMARK                            x       y       z     vdW  Elec       q    Type
REMARK                         _______ _______ _______ _____ _____    ______ ____
ROOT
ATOM      1  C   UNL     1       4.152   3.338  18.230  0.00  0.00    +0.000 C 
ATOM      2  O   UNL     1       3.963   2.128  18.102  0.00  0.00    +0.000 OA
ATOM      3  N   UNL     1       3.615   4.071  19.292  0.00  0.00    +0.000 N 
ATOM      4  C   UNL     1       3.018   3.354  20.416  0.00  0.00    +0.000 C 
ATOM      5  C   UNL     1       1.575   3.795  20.634  0.00  0.00    +0.000 C 
ATOM      6  C   UNL     1       1.478   5.313  20.803  0.00  0.00    +0.000 C 
ATOM      7  C   UNL     1       2.130   6.049  19.622  0.00  0.00    +0.000 C 
ATOM      8  C   UNL     1       3.546   5.523  19.383  0.00  0.00    +0.000 C 
ENDROOT
BRANCH   1  13
ATOM      9  C   UNL     1       6.765   5.538  16.540  0.00  0.00    +0.000 A 
ATOM     10  C   UNL     1       6.535   5.217  15.201  0.00  0.00    +0.000 A 
ATOM     11  C   UNL     1       5.561   4.279  14.854  0.00  0.00    +0.000 A 
ATOM     12  C   UNL     1       4.776   3.689  15.846  0.00  0.00    +0.000 A 
ATOM     13  C   UNL     1       4.996   4.005  17.192  0.00  0.00    +0.000 A 
ATOM     14  C   UNL     1       6.041   4.878  17.529  0.00  0.00    +0.000 A 
BRANCH   9  16
ATOM     15  C   UNL     1       7.727   7.109  18.050  0.00  0.00    +0.000 C 
ATOM     16  O   UNL     1       7.708   6.505  16.760  0.00  0.00    +0.000 OA
ENDBRANCH   9  16
ENDBRANCH   1  13
BRANCH   7  17
ATOM     17  C   UNL     1       2.149   7.572  19.855  0.00  0.00    +0.000 C 
BRANCH  17  18
ATOM     18  C   UNL     1       1.327   8.033  21.070  0.00  0.00    +0.000 C 
BRANCH  18  19
ATOM     19  C   UNL     1       0.847   9.460  20.926  0.00  0.00    +0.000 C 
ATOM     20  O   UNL     1       0.779  10.247  21.870  0.00  0.00    +0.000 OA
ATOM     21  N   UNL     1       0.528   9.806  19.632  0.00  0.00    +0.000 N 
ATOM     22  H   UNL     1       0.562   9.108  18.903  0.00  0.00    +0.000 HD
BRANCH  21  23
ATOM     23  C   UNL     1       0.049  11.128  19.300  0.00  0.00    +0.000 C 
BRANCH  23  24
ATOM     24  C   UNL     1      -1.318  11.084  18.664  0.00  0.00    +0.000 A 
ATOM     25  C   UNL     1      -2.357  11.897  19.149  0.00  0.00    +0.000 A 
ATOM     26  C   UNL     1      -3.638  11.823  18.596  0.00  0.00    +0.000 A 
ATOM     27  C   UNL     1      -3.884  10.945  17.547  0.00  0.00    +0.000 A 
ATOM     28  F   UNL     1      -5.116  10.865  17.026  0.00  0.00    +0.000 F 
ATOM     29  C   UNL     1      -2.858  10.155  17.042  0.00  0.00    +0.000 A 
ATOM     30  F   UNL     1      -3.093   9.312  16.027  0.00  0.00    +0.000 F 
ATOM     31  C   UNL     1      -1.579  10.220  17.589  0.00  0.00    +0.000 A 
ENDBRANCH  23  24
ENDBRANCH  21  23
ENDBRANCH  18  19
ENDBRANCH  17  18
ENDBRANCH   7  17
TORSDOF 7
ENDMDL
MODEL 2
REMARK VINA RESULT:      -8.7      0.980      1.998
REMARK  Name = 
REMARK  8 active torsions:
REMARK  status: ('A' for Active; 'I' for Inactive)
REMARK    1  A    between atoms: C_1  and  O_2
REMARK    2  A    between atoms: O_2  and  C_3
REMARK    3  A    between atoms: C_7  and  C_8
REMARK    4  A    between atoms: C_14  and  C_15
REMARK    5  A    between atoms: C_15  and  C_16
REMARK    6  A    between atoms: C_16  and  C_17
REMARK    7  A    between atoms: N_19  and  C_20
REMARK    8  A    between atoms: C_20  and  C_21
REMARK                            x       y       z     vdW  Elec       q    Type
REMARK                         _______ _______ _______ _____ _____    ______ ____
ROOT
ATOM      1  C   UNL     1       4.244   3.517  18.506  0.00  0.00    +0.000 C 
ATOM      2  O   UNL     1       4.044   2.333  18.232  0.00  0.00    +0.000 OA
ATOM      3  N   UNL     1       3.500   4.195  19.476  0.00  0.00    +0.000 N 
ATOM      4  C   UNL     1       2.629   3.429  20.363  0.00  0.00    +0.000 C 
ATOM      5  C   UNL     1       1.192   3.933  20.279  0.00  0.00    +0.000 C 
ATOM      6  C   UNL     1       1.115   5.437  20.555  0.00  0.00    +0.000 C 
ATOM      7  C   UNL     1       2.054   6.223  19.626  0.00  0.00    +0.000 C 
ATOM      8  C   UNL     1       3.466   5.637  19.675  0.00  0.00    +0.000 C 
ENDROOT
BRANCH   1  13
ATOM      9  C   UNL     1       6.345   4.973  15.680  0.00  0.00    +0.000 A 
ATOM     10  C   UNL     1       7.398   5.526  16.410  0.00  0.00    +0.000 A 
ATOM     11  C   UNL     1       7.413   5.448  17.804  0.00  0.00    +0.000 A 
ATOM     12  C   UNL     1       6.392   4.773  18.475  0.00  0.00    +0.000 A 
ATOM     13  C   UNL     1       5.332   4.213  17.754  0.00  0.00    +0.000 A 
ATOM     14  C   UNL     1       5.285   4.382  16.362  0.00  0.00    +0.000 A 
BRANCH   9  16
ATOM     15  C   UNL     1       6.113   3.910  13.561  0.00  0.00    +0.000 C 
ATOM     16  O   UNL     1       6.460   5.065  14.319  0.00  0.00    +0.000 OA
ENDBRANCH   9  16
ENDBRANCH   1  13
BRANCH   7  17
ATOM     17  C   UNL     1       2.074   7.720  19.991  0.00  0.00    +0.000 C 
BRANCH  17  18
ATOM     18  C   UNL     1       1.228   8.080  21.223  0.00  0.00    +0.000 C 
BRANCH  18  19
ATOM     19  C   UNL     1       0.635   9.468  21.124  0.00  0.00    +0.000 C 
ATOM     20  O   UNL     1       0.846  10.351  21.953  0.00  0.00    +0.000 OA
ATOM     21  N   UNL     1      -0.132   9.659  19.996  0.00  0.00    +0.000 N 
ATOM     22  H   UNL     1      -0.306   8.886  19.370  0.00  0.00    +0.000 HD
BRANCH  21  23
ATOM     23  C   UNL     1      -0.781  10.922  19.731  0.00  0.00    +0.000 C 
BRANCH  23  24
ATOM     24  C   UNL     1      -1.764  10.817  18.592  0.00  0.00    +0.000 A 
ATOM     25  C   UNL     1      -1.497   9.981  17.493  0.00  0.00    +0.000 A 
ATOM     26  C   UNL     1      -2.380   9.919  16.413  0.00  0.00    +0.000 A 
ATOM     27  C   UNL     1      -3.541  10.683  16.429  0.00  0.00    +0.000 A 
ATOM     28  F   UNL     1      -4.381  10.633  15.386  0.00  0.00    +0.000 F 
ATOM     29  C   UNL     1      -3.829  11.494  17.521  0.00  0.00    +0.000 A 
ATOM     30  F   UNL     1      -4.951  12.227  17.540  0.00  0.00    +0.000 F 
ATOM     31  C   UNL     1      -2.952  11.563  18.601  0.00  0.00    +0.000 A 
ENDBRANCH  23  24
ENDBRANCH  21  23
ENDBRANCH  18  19
ENDBRANCH  17  18
ENDBRANCH   7  17
TORSDOF 7
ENDMDL
MODEL 3
REMARK VINA RESULT:      -8.7      0.613      1.259
REMARK  Name = 
REMARK  8 active torsions:
REMARK  status: ('A' for Active; 'I' for Inactive)
REMARK    1  A    between atoms: C_1  and  O_2
REMARK    2  A    between atoms: O_2  and  C_3
REMARK    3  A    between atoms: C_7  and  C_8
REMARK    4  A    between atoms: C_14  and  C_15
REMARK    5  A    between atoms: C_15  and  C_16
REMARK    6  A    between atoms: C_16  and  C_17
REMARK    7  A    between atoms: N_19  and  C_20
REMARK    8  A    between atoms: C_20  and  C_21
REMARK                            x       y       z     vdW  Elec       q    Type
REMARK                         _______ _______ _______ _____ _____    ______ ____
ROOT
ATOM      1  C   UNL     1       4.000   3.249  18.049  0.00  0.00    +0.000 C 
ATOM      2  O   UNL     1       3.718   2.077  17.796  0.00  0.00    +0.000 OA
ATOM      3  N   UNL     1       3.521   3.905  19.186  0.00  0.00    +0.000 N 
ATOM      4  C   UNL     1       2.870   3.121  20.233  0.00  0.00    +0.000 C 
ATOM      5  C   UNL     1       1.464   3.645  20.508  0.00  0.00    +0.000 C 
ATOM      6  C   UNL     1       1.485   5.140  20.837  0.00  0.00    +0.000 C 
ATOM      7  C   UNL     1       2.192   5.944  19.734  0.00  0.00    +0.000 C 
ATOM      8  C   UNL     1       3.564   5.340  19.430  0.00  0.00    +0.000 C 
ENDROOT
BRANCH   1  13
ATOM      9  C   UNL     1       6.627   5.577  16.567  0.00  0.00    +0.000 A 
ATOM     10  C   UNL     1       6.530   5.237  15.217  0.00  0.00    +0.000 A 
ATOM     11  C   UNL     1       5.640   4.247  14.796  0.00  0.00    +0.000 A 
ATOM     12  C   UNL     1       4.806   3.621  15.723  0.00  0.00    +0.000 A 
ATOM     13  C   UNL     1       4.892   3.955  17.080  0.00  0.00    +0.000 A 
ATOM     14  C   UNL     1       5.857   4.884  17.497  0.00  0.00    +0.000 A 
BRANCH   9  16
ATOM     15  C   UNL     1       7.820   6.797  18.229  0.00  0.00    +0.000 C 
ATOM     16  O   UNL     1       7.495   6.595  16.857  0.00  0.00    +0.000 OA
ENDBRANCH   9  16
ENDBRANCH   1  13
BRANCH   7  17
ATOM     17  C   UNL     1       2.328   7.429  20.126  0.00  0.00    +0.000 C 
BRANCH  17  18
ATOM     18  C   UNL     1       1.174   7.960  20.991  0.00  0.00    +0.000 C 
BRANCH  18  19
ATOM     19  C   UNL     1       0.755   9.357  20.591  0.00  0.00    +0.000 C 
ATOM     20  O   UNL     1       0.604  10.273  21.398  0.00  0.00    +0.000 OA
ATOM     21  N   UNL     1       0.594   9.514  19.232  0.00  0.00    +0.000 N 
ATOM     22  H   UNL     1       0.690   8.718  18.620  0.00  0.00    +0.000 HD
BRANCH  21  23
ATOM     23  C   UNL     1       0.195  10.780  18.662  0.00  0.00    +0.000 C 
BRANCH  23  24
ATOM     24  C   UNL     1      -1.264  10.785  18.279  0.00  0.00    +0.000 A 
ATOM     25  C   UNL     1      -1.732   9.960  17.242  0.00  0.00    +0.000 A 
ATOM     26  C   UNL     1      -3.072   9.998  16.850  0.00  0.00    +0.000 A 
ATOM     27  C   UNL     1      -3.955  10.853  17.500  0.00  0.00    +0.000 A 
ATOM     28  F   UNL     1      -5.237  10.898  17.114  0.00  0.00    +0.000 F 
ATOM     29  C   UNL     1      -3.509  11.655  18.543  0.00  0.00    +0.000 A 
ATOM     30  F   UNL     1      -4.360  12.477  19.174  0.00  0.00    +0.000 F 
ATOM     31  C   UNL     1      -2.173  11.625  18.939  0.00  0.00    +0.000 A 
ENDBRANCH  23  24
ENDBRANCH  21  23
ENDBRANCH  18  19
ENDBRANCH  17  18
ENDBRANCH   7  17
TORSDOF 7
ENDMDL
MODEL 4
REMARK VINA RESULT:      -8.7      0.905      1.535
REMARK  Name = 
REMARK  8 active torsions:
REMARK  status: ('A' for Active; 'I' for Inactive)
REMARK    1  A    between atoms: C_1  and  O_2
REMARK    2  A    between atoms: O_2  and  C_3
REMARK    3  A    between atoms: C_7  and  C_8
REMARK    4  A    between atoms: C_14  and  C_15
REMARK    5  A    between atoms: C_15  and  C_16
REMARK    6  A    between atoms: C_16  and  C_17
REMARK    7  A    between atoms: N_19  and  C_20
REMARK    8  A    between atoms: C_20  and  C_21
REMARK                            x       y       z     vdW  Elec       q    Type
REMARK                         _______ _______ _______ _____ _____    ______ ____
ROOT
ATOM      1  C   UNL     1       4.125   3.224  18.530  0.00  0.00    +0.000 C 
ATOM      2  O   UNL     1       3.887   2.027  18.364  0.00  0.00    +0.000 OA
ATOM      3  N   UNL     1       3.496   3.980  19.523  0.00  0.00    +0.000 N 
ATOM      4  C   UNL     1       2.718   3.291  20.551  0.00  0.00    +0.000 C 
ATOM      5  C   UNL     1       1.285   3.812  20.585  0.00  0.00    +0.000 C 
ATOM      6  C   UNL     1       1.252   5.332  20.760  0.00  0.00    +0.000 C 
ATOM      7  C   UNL     1       2.092   6.036  19.683  0.00  0.00    +0.000 C 
ATOM      8  C   UNL     1       3.496   5.433  19.623  0.00  0.00    +0.000 C 
ENDROOT
BRANCH   1  13
ATOM      9  C   UNL     1       5.921   4.449  15.401  0.00  0.00    +0.000 A 
ATOM     10  C   UNL     1       7.054   5.031  15.974  0.00  0.00    +0.000 A 
ATOM     11  C   UNL     1       7.220   5.045  17.360  0.00  0.00    +0.000 A 
ATOM     12  C   UNL     1       6.271   4.436  18.182  0.00  0.00    +0.000 A 
ATOM     13  C   UNL     1       5.132   3.848  17.619  0.00  0.00    +0.000 A 
ATOM     14  C   UNL     1       4.935   3.925  16.232  0.00  0.00    +0.000 A 
BRANCH   9  16
ATOM     15  C   UNL     1       7.120   4.681  13.356  0.00  0.00    +0.000 C 
ATOM     16  O   UNL     1       5.888   4.448  14.033  0.00  0.00    +0.000 OA
ENDBRANCH   9  16
ENDBRANCH   1  13
BRANCH   7  17
ATOM     17  C   UNL     1       2.165   7.555  19.936  0.00  0.00    +0.000 C 
BRANCH  17  18
ATOM     18  C   UNL     1       1.212   8.057  21.033  0.00  0.00    +0.000 C 
BRANCH  18  19
ATOM     19  C   UNL     1       0.698   9.451  20.751  0.00  0.00    +0.000 C 
ATOM     20  O   UNL     1       0.334  10.227  21.633  0.00  0.00    +0.000 OA
ATOM     21  N   UNL     1       0.711   9.781  19.413  0.00  0.00    +0.000 N 
ATOM     22  H   UNL     1       0.980   9.090  18.728  0.00  0.00    +0.000 HD
BRANCH  21  23
ATOM     23  C   UNL     1       0.255  11.071  18.951  0.00  0.00    +0.000 C 
BRANCH  23  24
ATOM     24  C   UNL     1      -1.172  11.018  18.464  0.00  0.00    +0.000 A 
ATOM     25  C   UNL     1      -2.163  11.808  19.072  0.00  0.00    +0.000 A 
ATOM     26  C   UNL     1      -3.495  11.725  18.658  0.00  0.00    +0.000 A 
ATOM     27  C   UNL     1      -3.841  10.860  17.626  0.00  0.00    +0.000 A 
ATOM     28  F   UNL     1      -5.121  10.771  17.239  0.00  0.00    +0.000 F 
ATOM     29  C   UNL     1      -2.865  10.093  17.000  0.00  0.00    +0.000 A 
ATOM     30  F   UNL     1      -3.198   9.263  16.002  0.00  0.00    +0.000 F 
ATOM     31  C   UNL     1      -1.536  10.168  17.409  0.00  0.00    +0.000 A 
ENDBRANCH  23  24
ENDBRANCH  21  23
ENDBRANCH  18  19
ENDBRANCH  17  18
ENDBRANCH   7  17
TORSDOF 7
ENDMDL
MODEL 5
REMARK VINA RESULT:      -8.5      0.891      1.452
REMARK  Name = 
REMARK  8 active torsions:
REMARK  status: ('A' for Active; 'I' for Inactive)
REMARK    1  A    between atoms: C_1  and  O_2
REMARK    2  A    between atoms: O_2  and  C_3
REMARK    3  A    between atoms: C_7  and  C_8
REMARK    4  A    between atoms: C_14  and  C_15
REMARK    5  A    between atoms: C_15  and  C_16
REMARK    6  A    between atoms: C_16  and  C_17
REMARK    7  A    between atoms: N_19  and  C_20
REMARK    8  A    between atoms: C_20  and  C_21
REMARK                            x       y       z     vdW  Elec       q    Type
REMARK                         _______ _______ _______ _____ _____    ______ ____
ROOT
ATOM      1  C   UNL     1       3.926   3.332  18.524  0.00  0.00    +0.000 C 
ATOM      2  O   UNL     1       3.654   2.135  18.429  0.00  0.00    +0.000 OA
ATOM      3  N   UNL     1       3.384   4.145  19.524  0.00  0.00    +0.000 N 
ATOM      4  C   UNL     1       2.668   3.520  20.633  0.00  0.00    +0.000 C 
ATOM      5  C   UNL     1       1.251   4.073  20.744  0.00  0.00    +0.000 C 
ATOM      6  C   UNL     1       1.259   5.600  20.852  0.00  0.00    +0.000 C 
ATOM      7  C   UNL     1       2.034   6.237  19.688  0.00  0.00    +0.000 C 
ATOM      8  C   UNL     1       3.419   5.601  19.557  0.00  0.00    +0.000 C 
ENDROOT
BRANCH   1  13
ATOM      9  C   UNL     1       6.831   5.215  16.931  0.00  0.00    +0.000 A 
ATOM     10  C   UNL     1       6.618   4.910  15.585  0.00  0.00    +0.000 A 
ATOM     11  C   UNL     1       5.560   4.084  15.203  0.00  0.00    +0.000 A 
ATOM     12  C   UNL     1       4.677   3.593  16.165  0.00  0.00    +0.000 A 
ATOM     13  C   UNL     1       4.878   3.893  17.518  0.00  0.00    +0.000 A 
ATOM     14  C   UNL     1       6.000   4.647  17.893  0.00  0.00    +0.000 A 
BRANCH   9  16
ATOM     15  C   UNL     1       7.527   7.399  17.575  0.00  0.00    +0.000 C 
ATOM     16  O   UNL     1       7.866   6.073  17.183  0.00  0.00    +0.000 OA
ENDBRANCH   9  16
ENDBRANCH   1  13
BRANCH   7  17
ATOM     17  C   UNL     1       2.154   7.764  19.867  0.00  0.00    +0.000 C 
BRANCH  17  18
ATOM     18  C   UNL     1       0.987   8.400  20.640  0.00  0.00    +0.000 C 
BRANCH  18  19
ATOM     19  C   UNL     1       0.582   9.738  20.063  0.00  0.00    +0.000 C 
ATOM     20  O   UNL     1       1.390  10.558  19.628  0.00  0.00    +0.000 OA
ATOM     21  N   UNL     1      -0.781   9.935  20.037  0.00  0.00    +0.000 N 
ATOM     22  H   UNL     1      -1.396   9.247  20.446  0.00  0.00    +0.000 HD
BRANCH  21  23
ATOM     23  C   UNL     1      -1.356  11.156  19.522  0.00  0.00    +0.000 C 
BRANCH  23  24
ATOM     24  C   UNL     1      -2.166  10.910  18.273  0.00  0.00    +0.000 A 
ATOM     25  C   UNL     1      -1.671  10.075  17.256  0.00  0.00    +0.000 A 
ATOM     26  C   UNL     1      -2.395   9.884  16.076  0.00  0.00    +0.000 A 
ATOM     27  C   UNL     1      -3.622  10.516  15.911  0.00  0.00    +0.000 A 
ATOM     28  F   UNL     1      -4.308  10.342  14.774  0.00  0.00    +0.000 F 
ATOM     29  C   UNL     1      -4.133  11.322  16.921  0.00  0.00    +0.000 A 
ATOM     30  F   UNL     1      -5.319  11.928  16.766  0.00  0.00    +0.000 F 
ATOM     31  C   UNL     1      -3.417  11.521  18.100  0.00  0.00    +0.000 A 
ENDBRANCH  23  24
ENDBRANCH  21  23
ENDBRANCH  18  19
ENDBRANCH  17  18
ENDBRANCH   7  17
TORSDOF 7
ENDMDL
MODEL 6
REMARK VINA RESULT:      -8.3      1.197      2.062
REMARK  Name = 
REMARK  8 active torsions:
REMARK  status: ('A' for Active; 'I' for Inactive)
REMARK    1  A    between atoms: C_1  and  O_2
REMARK    2  A    between atoms: O_2  and  C_3
REMARK    3  A    between atoms: C_7  and  C_8
REMARK    4  A    between atoms: C_14  and  C_15
REMARK    5  A    between atoms: C_15  and  C_16
REMARK    6  A    between atoms: C_16  and  C_17
REMARK    7  A    between atoms: N_19  and  C_20
REMARK    8  A    between atoms: C_20  and  C_21
REMARK                            x       y       z     vdW  Elec       q    Type
REMARK                         _______ _______ _______ _____ _____    ______ ____
ROOT
ATOM      1  C   UNL     1       4.083   3.099  18.176  0.00  0.00    +0.000 C 
ATOM      2  O   UNL     1       3.843   1.942  17.832  0.00  0.00    +0.000 OA
ATOM      3  N   UNL     1       3.425   3.713  19.246  0.00  0.00    +0.000 N 
ATOM      4  C   UNL     1       2.608   2.894  20.138  0.00  0.00    +0.000 C 
ATOM      5  C   UNL     1       1.178   3.421  20.198  0.00  0.00    +0.000 C 
ATOM      6  C   UNL     1       1.149   4.900  20.589  0.00  0.00    +0.000 C 
ATOM      7  C   UNL     1       2.031   5.742  19.652  0.00  0.00    +0.000 C 
ATOM      8  C   UNL     1       3.432   5.137  19.552  0.00  0.00    +0.000 C 
ENDROOT
BRANCH   1  13
ATOM      9  C   UNL     1       6.086   4.588  15.296  0.00  0.00    +0.000 A 
ATOM     10  C   UNL     1       7.104   5.229  16.005  0.00  0.00    +0.000 A 
ATOM     11  C   UNL     1       7.126   5.198  17.400  0.00  0.00    +0.000 A 
ATOM     12  C   UNL     1       6.150   4.484  18.096  0.00  0.00    +0.000 A 
ATOM     13  C   UNL     1       5.125   3.836  17.398  0.00  0.00    +0.000 A 
ATOM     14  C   UNL     1       5.066   3.956  16.001  0.00  0.00    +0.000 A 
BRANCH   9  16
ATOM     15  C   UNL     1       7.461   5.010  13.398  0.00  0.00    +0.000 C 
ATOM     16  O   UNL     1       6.194   4.642  13.933  0.00  0.00    +0.000 OA
ENDBRANCH   9  16
ENDBRANCH   1  13
BRANCH   7  17
ATOM     17  C   UNL     1       2.105   7.208  20.122  0.00  0.00    +0.000 C 
BRANCH  17  18
ATOM     18  C   UNL     1       2.027   8.239  18.985  0.00  0.00    +0.000 C 
BRANCH  18  19
ATOM     19  C   UNL     1       1.220   9.458  19.373  0.00  0.00    +0.000 C 
ATOM     20  O   UNL     1       0.949   9.744  20.538  0.00  0.00    +0.000 OA
ATOM     21  N   UNL     1       0.851  10.237  18.299  0.00  0.00    +0.000 N 
ATOM     22  H   UNL     1       1.064   9.932  17.360  0.00  0.00    +0.000 HD
BRANCH  21  23
ATOM     23  C   UNL     1       0.074  11.443  18.474  0.00  0.00    +0.000 C 
BRANCH  23  24
ATOM     24  C   UNL     1      -1.399  11.194  18.263  0.00  0.00    +0.000 A 
ATOM     25  C   UNL     1      -1.834  10.185  17.387  0.00  0.00    +0.000 A 
ATOM     26  C   UNL     1      -3.196   9.984  17.150  0.00  0.00    +0.000 A 
ATOM     27  C   UNL     1      -4.132  10.783  17.798  0.00  0.00    +0.000 A 
ATOM     28  F   UNL     1      -5.437  10.598  17.560  0.00  0.00    +0.000 F 
ATOM     29  C   UNL     1      -3.714  11.767  18.687  0.00  0.00    +0.000 A 
ATOM     30  F   UNL     1      -4.615  12.534  19.316  0.00  0.00    +0.000 F 
ATOM     31  C   UNL     1      -2.357  11.975  18.926  0.00  0.00    +0.000 A 
ENDBRANCH  23  24
ENDBRANCH  21  23
ENDBRANCH  18  19
ENDBRANCH  17  18
ENDBRANCH   7  17
TORSDOF 7
ENDMDL
MODEL 7
REMARK VINA RESULT:      -8.3      6.004     10.261
REMARK  Name = 
REMARK  8 active torsions:
REMARK  status: ('A' for Active; 'I' for Inactive)
REMARK    1  A    between atoms: C_1  and  O_2
REMARK    2  A    between atoms: O_2  and  C_3
REMARK    3  A    between atoms: C_7  and  C_8
REMARK    4  A    between atoms: C_14  and  C_15
REMARK    5  A    between atoms: C_15  and  C_16
REMARK    6  A    between atoms: C_16  and  C_17
REMARK    7  A    between atoms: N_19  and  C_20
REMARK    8  A    between atoms: C_20  and  C_21
REMARK                            x       y       z     vdW  Elec       q    Type
REMARK                         _______ _______ _______ _____ _____    ______ ____
ROOT
ATOM      1  C   UNL     1       9.206  14.879  19.075  0.00  0.00    +0.000 C 
ATOM      2  O   UNL     1       9.808  15.887  18.700  0.00  0.00    +0.000 OA
ATOM      3  N   UNL     1       9.857  13.665  19.313  0.00  0.00    +0.000 N 
ATOM      4  C   UNL     1      11.317  13.642  19.357  0.00  0.00    +0.000 C 
ATOM      5  C   UNL     1      11.874  12.647  18.344  0.00  0.00    +0.000 C 
ATOM      6  C   UNL     1      11.270  11.255  18.545  0.00  0.00    +0.000 C 
ATOM      7  C   UNL     1       9.734  11.304  18.516  0.00  0.00    +0.000 C 
ATOM      8  C   UNL     1       9.216  12.368  19.484  0.00  0.00    +0.000 C 
ENDROOT
BRANCH   1  13
ATOM      9  C   UNL     1       5.463  15.138  18.411  0.00  0.00    +0.000 A 
ATOM     10  C   UNL     1       4.984  15.245  19.718  0.00  0.00    +0.000 A 
ATOM     11  C   UNL     1       5.863  15.210  20.801  0.00  0.00    +0.000 A 
ATOM     12  C   UNL     1       7.238  15.112  20.580  0.00  0.00    +0.000 A 
ATOM     13  C   UNL     1       7.731  15.006  19.275  0.00  0.00    +0.000 A 
ATOM     14  C   UNL     1       6.827  14.948  18.204  0.00  0.00    +0.000 A 
BRANCH   9  16
ATOM     15  C   UNL     1       3.158  15.327  17.844  0.00  0.00    +0.000 C 
ATOM     16  O   UNL     1       4.517  15.235  17.428  0.00  0.00    +0.000 OA
ENDBRANCH   9  16
ENDBRANCH   1  13
BRANCH   7  17
ATOM     17  C   UNL     1       9.126   9.927  18.847  0.00  0.00    +0.000 C 
BRANCH  17  18
ATOM     18  C   UNL     1       8.095   9.430  17.820  0.00  0.00    +0.000 C 
BRANCH  18  19
ATOM     19  C   UNL     1       7.904   7.931  17.882  0.00  0.00    +0.000 C 
ATOM     20  O   UNL     1       8.407   7.222  18.752  0.00  0.00    +0.000 OA
ATOM     21  N   UNL     1       7.081   7.441  16.892  0.00  0.00    +0.000 N 
ATOM     22  H   UNL     1       6.729   8.062  16.178  0.00  0.00    +0.000 HD
BRANCH  21  23
ATOM     23  C   UNL     1       6.782   6.031  16.789  0.00  0.00    +0.000 C 
BRANCH  23  24
ATOM     24  C   UNL     1       5.405   5.712  17.316  0.00  0.00    +0.000 A 
ATOM     25  C   UNL     1       4.413   6.707  17.368  0.00  0.00    +0.000 A 
ATOM     26  C   UNL     1       3.152   6.429  17.901  0.00  0.00    +0.000 A 
ATOM     27  C   UNL     1       2.871   5.152  18.375  0.00  0.00    +0.000 A 
ATOM     28  F   UNL     1       1.666   4.891  18.898  0.00  0.00    +0.000 F 
ATOM     29  C   UNL     1       3.836   4.154  18.304  0.00  0.00    +0.000 A 
ATOM     30  F   UNL     1       3.565   2.921  18.756  0.00  0.00    +0.000 F 
ATOM     31  C   UNL     1       5.097   4.424  17.777  0.00  0.00    +0.000 A 
ENDBRANCH  23  24
ENDBRANCH  21  23
ENDBRANCH  18  19
ENDBRANCH  17  18
ENDBRANCH   7  17
TORSDOF 7
ENDMDL
MODEL 8
REMARK VINA RESULT:      -8.3      2.659      3.365
REMARK  Name = 
REMARK  8 active torsions:
REMARK  status: ('A' for Active; 'I' for Inactive)
REMARK    1  A    between atoms: C_1  and  O_2
REMARK    2  A    between atoms: O_2  and  C_3
REMARK    3  A    between atoms: C_7  and  C_8
REMARK    4  A    between atoms: C_14  and  C_15
REMARK    5  A    between atoms: C_15  and  C_16
REMARK    6  A    between atoms: C_16  and  C_17
REMARK    7  A    between atoms: N_19  and  C_20
REMARK    8  A    between atoms: C_20  and  C_21
REMARK                            x       y       z     vdW  Elec       q    Type
REMARK                         _______ _______ _______ _____ _____    ______ ____
ROOT
ATOM      1  C   UNL     1       4.228   3.448  18.645  0.00  0.00    +0.000 C 
ATOM      2  O   UNL     1       4.029   2.234  18.706  0.00  0.00    +0.000 OA
ATOM      3  N   UNL     1       3.626   4.350  19.528  0.00  0.00    +0.000 N 
ATOM      4  C   UNL     1       2.935   3.832  20.706  0.00  0.00    +0.000 C 
ATOM      5  C   UNL     1       1.487   4.308  20.738  0.00  0.00    +0.000 C 
ATOM      6  C   UNL     1       1.403   5.834  20.646  0.00  0.00    +0.000 C 
ATOM      7  C   UNL     1       2.153   6.360  19.411  0.00  0.00    +0.000 C 
ATOM      8  C   UNL     1       3.574   5.797  19.371  0.00  0.00    +0.000 C 
ENDROOT
BRANCH   1  13
ATOM      9  C   UNL     1       5.664   4.428  15.254  0.00  0.00    +0.000 A 
ATOM     10  C   UNL     1       6.942   4.841  15.633  0.00  0.00    +0.000 A 
ATOM     11  C   UNL     1       7.324   4.825  16.976  0.00  0.00    +0.000 A 
ATOM     12  C   UNL     1       6.441   4.350  17.946  0.00  0.00    +0.000 A 
ATOM     13  C   UNL     1       5.157   3.930  17.578  0.00  0.00    +0.000 A 
ATOM     14  C   UNL     1       4.758   4.042  16.238  0.00  0.00    +0.000 A 
BRANCH   9  16
ATOM     15  C   UNL     1       6.306   3.693  13.081  0.00  0.00    +0.000 C 
ATOM     16  O   UNL     1       5.417   4.439  13.908  0.00  0.00    +0.000 OA
ENDBRANCH   9  16
ENDBRANCH   1  13
BRANCH   7  17
ATOM     17  C   UNL     1       2.179   7.901  19.390  0.00  0.00    +0.000 C 
BRANCH  17  18
ATOM     18  C   UNL     1       1.899   8.516  18.009  0.00  0.00    +0.000 C 
BRANCH  18  19
ATOM     19  C   UNL     1       1.392   9.938  18.109  0.00  0.00    +0.000 C 
ATOM     20  O   UNL     1       2.133  10.919  18.113  0.00  0.00    +0.000 OA
ATOM     21  N   UNL     1       0.018  10.029  18.157  0.00  0.00    +0.000 N 
ATOM     22  H   UNL     1      -0.540   9.188  18.194  0.00  0.00    +0.000 HD
BRANCH  21  23
ATOM     23  C   UNL     1      -0.649  11.306  18.255  0.00  0.00    +0.000 C 
BRANCH  23  24
ATOM     24  C   UNL     1      -0.806  11.746  19.689  0.00  0.00    +0.000 A 
ATOM     25  C   UNL     1      -1.037  13.098  19.999  0.00  0.00    +0.000 A 
ATOM     26  C   UNL     1      -1.133  13.518  21.328  0.00  0.00    +0.000 A 
ATOM     27  C   UNL     1      -1.011  12.588  22.355  0.00  0.00    +0.000 A 
ATOM     28  F   UNL     1      -1.090  12.995  23.629  0.00  0.00    +0.000 F 
ATOM     29  C   UNL     1      -0.808  11.245  22.059  0.00  0.00    +0.000 A 
ATOM     30  F   UNL     1      -0.695  10.347  23.047  0.00  0.00    +0.000 F 
ATOM     31  C   UNL     1      -0.708  10.818  20.736  0.00  0.00    +0.000 A 
ENDBRANCH  23  24
ENDBRANCH  21  23
ENDBRANCH  18  19
ENDBRANCH  17  18
ENDBRANCH   7  17
TORSDOF 7
ENDMDL
MODEL 9
REMARK VINA RESULT:      -8.2      4.995      8.642
REMARK  Name = 
REMARK  8 active torsions:
REMARK  status: ('A' for Active; 'I' for Inactive)
REMARK    1  A    between atoms: C_1  and  O_2
REMARK    2  A    between atoms: O_2  and  C_3
REMARK    3  A    between atoms: C_7  and  C_8
REMARK    4  A    between atoms: C_14  and  C_15
REMARK    5  A    between atoms: C_15  and  C_16
REMARK    6  A    between atoms: C_16  and  C_17
REMARK    7  A    between atoms: N_19  and  C_20
REMARK    8  A    between atoms: C_20  and  C_21
REMARK                            x       y       z     vdW  Elec       q    Type
REMARK                         _______ _______ _______ _____ _____    ______ ____
ROOT
ATOM      1  C   UNL     1       3.231   3.753  17.190  0.00  0.00    +0.000 C 
ATOM      2  O   UNL     1       2.536   3.082  16.426  0.00  0.00    +0.000 OA
ATOM      3  N   UNL     1       4.431   4.346  16.784  0.00  0.00    +0.000 N 
ATOM      4  C   UNL     1       4.755   4.382  15.360  0.00  0.00    +0.000 C 
ATOM      5  C   UNL     1       6.102   3.718  15.094  0.00  0.00    +0.000 C 
ATOM      6  C   UNL     1       7.206   4.341  15.952  0.00  0.00    +0.000 C 
ATOM      7  C   UNL     1       6.836   4.312  17.444  0.00  0.00    +0.000 C 
ATOM      8  C   UNL     1       5.446   4.912  17.661  0.00  0.00    +0.000 C 
ENDROOT
BRANCH   1  13
ATOM      9  C   UNL     1       1.994   5.302  20.444  0.00  0.00    +0.000 A 
ATOM     10  C   UNL     1       1.811   4.153  21.215  0.00  0.00    +0.000 A 
ATOM     11  C   UNL     1       2.063   2.890  20.676  0.00  0.00    +0.000 A 
ATOM     12  C   UNL     1       2.545   2.772  19.372  0.00  0.00    +0.000 A 
ATOM     13  C   UNL     1       2.735   3.917  18.590  0.00  0.00    +0.000 A 
ATOM     14  C   UNL     1       2.388   5.171  19.115  0.00  0.00    +0.000 A 
BRANCH   9  16
ATOM     15  C   UNL     1       1.715   7.662  20.287  0.00  0.00    +0.000 C 
ATOM     16  O   UNL     1       1.765   6.487  21.090  0.00  0.00    +0.000 OA
ENDBRANCH   9  16
ENDBRANCH   1  13
BRANCH   7  17
ATOM     17  C   UNL     1       7.886   5.055  18.293  0.00  0.00    +0.000 C 
BRANCH  17  18
ATOM     18  C   UNL     1       7.434   6.439  18.785  0.00  0.00    +0.000 C 
BRANCH  18  19
ATOM     19  C   UNL     1       7.877   7.549  17.858  0.00  0.00    +0.000 C 
ATOM     20  O   UNL     1       7.871   7.446  16.632  0.00  0.00    +0.000 OA
ATOM     21  N   UNL     1       8.252   8.698  18.517  0.00  0.00    +0.000 N 
ATOM     22  H   UNL     1       8.278   8.713  19.526  0.00  0.00    +0.000 HD
BRANCH  21  23
ATOM     23  C   UNL     1       8.707   9.865  17.797  0.00  0.00    +0.000 C 
BRANCH  23  24
ATOM     24  C   UNL     1       9.164  10.957  18.733  0.00  0.00    +0.000 A 
ATOM     25  C   UNL     1       9.744  10.636  19.973  0.00  0.00    +0.000 A 
ATOM     26  C   UNL     1      10.122  11.643  20.864  0.00  0.00    +0.000 A 
ATOM     27  C   UNL     1       9.935  12.976  20.516  0.00  0.00    +0.000 A 
ATOM     28  F   UNL     1      10.286  13.941  21.378  0.00  0.00    +0.000 F 
ATOM     29  C   UNL     1       9.387  13.305  19.282  0.00  0.00    +0.000 A 
ATOM     30  F   UNL     1       9.211  14.590  18.943  0.00  0.00    +0.000 F 
ATOM     31  C   UNL     1       9.004  12.307  18.388  0.00  0.00    +0.000 A 
ENDBRANCH  23  24
ENDBRANCH  21  23
ENDBRANCH  18  19
ENDBRANCH  17  18
ENDBRANCH   7  17
TORSDOF 7
ENDMDL
