MODEL 1
REMARK VINA RESULT:      -7.7      0.000      0.000
REMARK  Name = 
REMARK  10 active torsions:
REMARK  status: ('A' for Active; 'I' for Inactive)
REMARK    1  A    between atoms: C_1  and  C_2
REMARK    2  A    between atoms: N_4  and  C_5
REMARK    3  A    between atoms: C_5  and  C_6
REMARK    4  A    between atoms: C_5  and  C_7
REMARK    5  A    between atoms: C_10  and  O_11
REMARK    6  A    between atoms: O_11  and  C_12
REMARK    7  A    between atoms: C_19  and  C_20
REMARK    8  A    between atoms: C_20  and  C_21
REMARK    9  A    between atoms: C_20  and  C_22
REMARK   10  A    between atoms: C_20  and  C_23
REMARK                            x       y       z     vdW  Elec       q    Type
REMARK                         _______ _______ _______ _____ _____    ______ ____
ROOT
ATOM      1  C   UNL     1       0.817  10.315  18.822  0.00  0.00    +0.000 C 
ATOM      2  C   UNL     1       1.134  11.532  19.703  0.00  0.00    +0.000 C 
ATOM      3  C   UNL     1      -0.214  11.984  20.260  0.00  0.00    +0.000 C 
ATOM      4  N   UNL     1      -1.129  11.645  19.196  0.00  0.00    +0.000 N 
ATOM      5  C   UNL     1      -2.466  11.929  19.279  0.00  0.00    +0.000 A 
ATOM      6  N   UNL     1      -2.893  12.782  20.220  0.00  0.00    +0.000 NA
ATOM      7  C   UNL     1      -4.210  13.089  20.243  0.00  0.00    +0.000 A 
ATOM      8  C   UNL     1      -5.150  12.585  19.368  0.00  0.00    +0.000 A 
ATOM      9  C   UNL     1      -4.601  11.720  18.441  0.00  0.00    +0.000 A 
ATOM     10  N   UNL     1      -3.294  11.382  18.377  0.00  0.00    +0.000 NA
ATOM     11  C   UNL     1      -0.665  10.505  18.425  0.00  0.00    +0.000 C 
ENDROOT
BRANCH   8  12
ATOM     12  C   UNL     1      -6.638  12.920  19.392  0.00  0.00    +0.000 C 
ATOM     13  C   UNL     1      -7.035  13.862  20.549  0.00  0.00    +0.000 C 
ATOM     14  C   UNL     1      -7.044  13.611  18.071  0.00  0.00    +0.000 C 
ATOM     15  C   UNL     1      -7.465  11.626  19.549  0.00  0.00    +0.000 C 
ENDBRANCH   8  12
BRANCH   1  16
ATOM     16  O   UNL     1       1.046   9.125  19.594  0.00  0.00    +0.000 OA
BRANCH  16  20
ATOM     17  C   UNL     1       3.730   6.216  18.187  0.00  0.00    +0.000 A 
ATOM     18  C   UNL     1       3.127   6.129  19.450  0.00  0.00    +0.000 A 
ATOM     19  C   UNL     1       2.252   7.130  19.893  0.00  0.00    +0.000 A 
ATOM     20  C   UNL     1       1.972   8.243  19.094  0.00  0.00    +0.000 A 
ATOM     21  C   UNL     1       2.586   8.350  17.850  0.00  0.00    +0.000 A 
ATOM     22  C   UNL     1       3.458   7.352  17.403  0.00  0.00    +0.000 A 
BRANCH  17  23
ATOM     23  C   UNL     1       4.621   5.094  17.672  0.00  0.00    +0.000 C 
ATOM     24  C   UNL     1       5.124   5.369  16.253  0.00  0.00    +0.000 C 
BRANCH  23  28
ATOM     25  C   UNL     1       3.333   1.627  18.516  0.00  0.00    +0.000 C 
ATOM     26  C   UNL     1       4.167   2.870  18.680  0.00  0.00    +0.000 C 
ATOM     27  O   UNL     1       4.986   3.001  19.581  0.00  0.00    +0.000 OA
ATOM     28  N   UNL     1       3.902   3.829  17.732  0.00  0.00    +0.000 N 
ATOM     29  H   UNL     1       3.230   3.624  17.005  0.00  0.00    +0.000 HD
ENDBRANCH  23  28
ENDBRANCH  17  23
ENDBRANCH  16  20
ENDBRANCH   1  16
TORSDOF 5
ENDMDL
MODEL 2
REMARK VINA RESULT:      -7.6      0.378      1.310
REMARK  Name = 
REMARK  10 active torsions:
REMARK  status: ('A' for Active; 'I' for Inactive)
REMARK    1  A    between atoms: C_1  and  C_2
REMARK    2  A    between atoms: N_4  and  C_5
REMARK    3  A    between atoms: C_5  and  C_6
REMARK    4  A    between atoms: C_5  and  C_7
REMARK    5  A    between atoms: C_10  and  O_11
REMARK    6  A    between atoms: O_11  and  C_12
REMARK    7  A    between atoms: C_19  and  C_20
REMARK    8  A    between atoms: C_20  and  C_21
REMARK    9  A    between atoms: C_20  and  C_22
REMARK   10  A    between atoms: C_20  and  C_23
REMARK                            x       y       z     vdW  Elec       q    Type
REMARK                         _______ _______ _______ _____ _____    ______ ____
ROOT
ATOM      1  C   UNL     1       0.608  10.438  18.755  0.00  0.00    +0.000 C 
ATOM      2  C   UNL     1       0.931  11.819  19.345  0.00  0.00    +0.000 C 
ATOM      3  C   UNL     1      -0.388  12.324  19.927  0.00  0.00    +0.000 C 
ATOM      4  N   UNL     1      -1.370  11.743  19.042  0.00  0.00    +0.000 N 
ATOM      5  C   UNL     1      -2.709  11.988  19.193  0.00  0.00    +0.000 A 
ATOM      6  N   UNL     1      -3.100  12.997  19.984  0.00  0.00    +0.000 NA
ATOM      7  C   UNL     1      -4.426  13.253  20.070  0.00  0.00    +0.000 A 
ATOM      8  C   UNL     1      -5.408  12.548  19.405  0.00  0.00    +0.000 A 
ATOM      9  C   UNL     1      -4.892  11.535  18.619  0.00  0.00    +0.000 A 
ATOM     10  N   UNL     1      -3.579  11.240  18.499  0.00  0.00    +0.000 NA
ATOM     11  C   UNL     1      -0.911  10.489  18.470  0.00  0.00    +0.000 C 
ENDROOT
BRANCH   8  12
ATOM     12  C   UNL     1      -6.905  12.826  19.502  0.00  0.00    +0.000 C 
ATOM     13  C   UNL     1      -7.560  13.136  18.139  0.00  0.00    +0.000 C 
ATOM     14  C   UNL     1      -7.631  11.598  20.097  0.00  0.00    +0.000 C 
ATOM     15  C   UNL     1      -7.155  14.041  20.420  0.00  0.00    +0.000 C 
ENDBRANCH   8  12
BRANCH   1  16
ATOM     16  O   UNL     1       0.967   9.438  19.721  0.00  0.00    +0.000 OA
BRANCH  16  20
ATOM     17  C   UNL     1       3.512   6.464  18.196  0.00  0.00    +0.000 A 
ATOM     18  C   UNL     1       3.171   7.607  17.459  0.00  0.00    +0.000 A 
ATOM     19  C   UNL     1       2.302   8.568  17.994  0.00  0.00    +0.000 A 
ATOM     20  C   UNL     1       1.744   8.402  19.266  0.00  0.00    +0.000 A 
ATOM     21  C   UNL     1       2.057   7.258  19.994  0.00  0.00    +0.000 A 
ATOM     22  C   UNL     1       2.926   6.298  19.465  0.00  0.00    +0.000 A 
BRANCH  17  23
ATOM     23  C   UNL     1       4.514   5.457  17.650  0.00  0.00    +0.000 C 
ATOM     24  C   UNL     1       5.033   5.859  16.268  0.00  0.00    +0.000 C 
BRANCH  23  28
ATOM     25  C   UNL     1       3.528   1.840  18.236  0.00  0.00    +0.000 C 
ATOM     26  C   UNL     1       4.246   3.138  18.499  0.00  0.00    +0.000 C 
ATOM     27  O   UNL     1       5.040   3.278  19.421  0.00  0.00    +0.000 OA
ATOM     28  N   UNL     1       3.908   4.132  17.612  0.00  0.00    +0.000 N 
ATOM     29  H   UNL     1       3.266   3.920  16.861  0.00  0.00    +0.000 HD
ENDBRANCH  23  28
ENDBRANCH  17  23
ENDBRANCH  16  20
ENDBRANCH   1  16
TORSDOF 5
ENDMDL
MODEL 3
REMARK VINA RESULT:      -7.5      1.360      1.766
REMARK  Name = 
REMARK  10 active torsions:
REMARK  status: ('A' for Active; 'I' for Inactive)
REMARK    1  A    between atoms: C_1  and  C_2
REMARK    2  A    between atoms: N_4  and  C_5
REMARK    3  A    between atoms: C_5  and  C_6
REMARK    4  A    between atoms: C_5  and  C_7
REMARK    5  A    between atoms: C_10  and  O_11
REMARK    6  A    between atoms: O_11  and  C_12
REMARK    7  A    between atoms: C_19  and  C_20
REMARK    8  A    between atoms: C_20  and  C_21
REMARK    9  A    between atoms: C_20  and  C_22
REMARK   10  A    between atoms: C_20  and  C_23
REMARK                            x       y       z     vdW  Elec       q    Type
REMARK                         _______ _______ _______ _____ _____    ______ ____
ROOT
ATOM      1  C   UNL     1       1.140  10.049  18.588  0.00  0.00    +0.000 C 
ATOM      2  C   UNL     1       1.436  11.350  19.348  0.00  0.00    +0.000 C 
ATOM      3  C   UNL     1       0.088  11.800  19.910  0.00  0.00    +0.000 C 
ATOM      4  N   UNL     1      -0.844  11.334  18.913  0.00  0.00    +0.000 N 
ATOM      5  C   UNL     1      -2.189  11.574  19.017  0.00  0.00    +0.000 A 
ATOM      6  N   UNL     1      -2.620  12.491  19.894  0.00  0.00    +0.000 NA
ATOM      7  C   UNL     1      -3.947  12.749  19.936  0.00  0.00    +0.000 A 
ATOM      8  C   UNL     1      -4.893  12.135  19.142  0.00  0.00    +0.000 A 
ATOM      9  C   UNL     1      -4.339  11.212  18.275  0.00  0.00    +0.000 A 
ATOM     10  N   UNL     1      -3.022  10.919  18.196  0.00  0.00    +0.000 NA
ATOM     11  C   UNL     1      -0.360  10.148  18.228  0.00  0.00    +0.000 C 
ENDROOT
BRANCH   8  12
ATOM     12  C   UNL     1      -6.392  12.416  19.188  0.00  0.00    +0.000 C 
ATOM     13  C   UNL     1      -6.730  13.916  19.333  0.00  0.00    +0.000 C 
ATOM     14  C   UNL     1      -7.063  11.912  17.891  0.00  0.00    +0.000 C 
ATOM     15  C   UNL     1      -7.026  11.684  20.390  0.00  0.00    +0.000 C 
ENDBRANCH   8  12
BRANCH   1  16
ATOM     16  O   UNL     1       1.440   8.941  19.453  0.00  0.00    +0.000 OA
BRANCH  16  20
ATOM     17  C   UNL     1       3.533   5.667  17.857  0.00  0.00    +0.000 A 
ATOM     18  C   UNL     1       2.758   5.564  19.020  0.00  0.00    +0.000 A 
ATOM     19  C   UNL     1       2.090   6.685  19.534  0.00  0.00    +0.000 A 
ATOM     20  C   UNL     1       2.193   7.931  18.909  0.00  0.00    +0.000 A 
ATOM     21  C   UNL     1       2.981   8.048  17.767  0.00  0.00    +0.000 A 
ATOM     22  C   UNL     1       3.647   6.932  17.250  0.00  0.00    +0.000 A 
BRANCH  17  23
ATOM     23  C   UNL     1       4.197   4.438  17.253  0.00  0.00    +0.000 C 
ATOM     24  C   UNL     1       3.385   3.166  17.510  0.00  0.00    +0.000 C 
BRANCH  23  28
ATOM     25  C   UNL     1       7.950   4.468  17.807  0.00  0.00    +0.000 C 
ATOM     26  C   UNL     1       6.655   4.761  17.097  0.00  0.00    +0.000 C 
ATOM     27  O   UNL     1       6.608   5.357  16.028  0.00  0.00    +0.000 OA
ATOM     28  N   UNL     1       5.550   4.303  17.776  0.00  0.00    +0.000 N 
ATOM     29  H   UNL     1       5.683   3.794  18.638  0.00  0.00    +0.000 HD
ENDBRANCH  23  28
ENDBRANCH  17  23
ENDBRANCH  16  20
ENDBRANCH   1  16
TORSDOF 5
ENDMDL
MODEL 4
REMARK VINA RESULT:      -7.5      1.485      2.141
REMARK  Name = 
REMARK  10 active torsions:
REMARK  status: ('A' for Active; 'I' for Inactive)
REMARK    1  A    between atoms: C_1  and  C_2
REMARK    2  A    between atoms: N_4  and  C_5
REMARK    3  A    between atoms: C_5  and  C_6
REMARK    4  A    between atoms: C_5  and  C_7
REMARK    5  A    between atoms: C_10  and  O_11
REMARK    6  A    between atoms: O_11  and  C_12
REMARK    7  A    between atoms: C_19  and  C_20
REMARK    8  A    between atoms: C_20  and  C_21
REMARK    9  A    between atoms: C_20  and  C_22
REMARK   10  A    between atoms: C_20  and  C_23
REMARK                            x       y       z     vdW  Elec       q    Type
REMARK                         _______ _______ _______ _____ _____    ______ ____
ROOT
ATOM      1  C   UNL     1       0.799  10.439  19.291  0.00  0.00    +0.000 C 
ATOM      2  C   UNL     1       1.076  11.590  20.269  0.00  0.00    +0.000 C 
ATOM      3  C   UNL     1      -0.299  12.027  20.772  0.00  0.00    +0.000 C 
ATOM      4  N   UNL     1      -1.149  11.773  19.634  0.00  0.00    +0.000 N 
ATOM      5  C   UNL     1      -2.486  12.073  19.653  0.00  0.00    +0.000 A 
ATOM      6  N   UNL     1      -2.959  12.869  20.621  0.00  0.00    +0.000 NA
ATOM      7  C   UNL     1      -4.272  13.196  20.584  0.00  0.00    +0.000 A 
ATOM      8  C   UNL     1      -5.162  12.766  19.622  0.00  0.00    +0.000 A 
ATOM      9  C   UNL     1      -4.567  11.955  18.674  0.00  0.00    +0.000 A 
ATOM     10  N   UNL     1      -3.263  11.600  18.668  0.00  0.00    +0.000 NA
ATOM     11  C   UNL     1      -0.653  10.679  18.817  0.00  0.00    +0.000 C 
ENDROOT
BRANCH   8  12
ATOM     12  C   UNL     1      -6.644  13.123  19.577  0.00  0.00    +0.000 C 
ATOM     13  C   UNL     1      -7.115  13.940  20.800  0.00  0.00    +0.000 C 
ATOM     14  C   UNL     1      -6.946  13.963  18.315  0.00  0.00    +0.000 C 
ATOM     15  C   UNL     1      -7.494  11.836  19.529  0.00  0.00    +0.000 C 
ENDBRANCH   8  12
BRANCH   1  16
ATOM     16  O   UNL     1       0.964   9.197  19.994  0.00  0.00    +0.000 OA
BRANCH  16  20
ATOM     17  C   UNL     1       3.573   6.544  18.044  0.00  0.00    +0.000 A 
ATOM     18  C   UNL     1       3.153   7.746  17.458  0.00  0.00    +0.000 A 
ATOM     19  C   UNL     1       2.265   8.597  18.132  0.00  0.00    +0.000 A 
ATOM     20  C   UNL     1       1.767   8.259  19.394  0.00  0.00    +0.000 A 
ATOM     21  C   UNL     1       2.159   7.055  19.972  0.00  0.00    +0.000 A 
ATOM     22  C   UNL     1       3.047   6.205  19.305  0.00  0.00    +0.000 A 
BRANCH  17  23
ATOM     23  C   UNL     1       4.595   5.655  17.349  0.00  0.00    +0.000 C 
ATOM     24  C   UNL     1       4.047   4.251  17.086  0.00  0.00    +0.000 C 
BRANCH  23  28
ATOM     25  C   UNL     1       8.066   6.123  18.808  0.00  0.00    +0.000 C 
ATOM     26  C   UNL     1       6.904   6.395  17.889  0.00  0.00    +0.000 C 
ATOM     27  O   UNL     1       6.940   7.252  17.015  0.00  0.00    +0.000 OA
ATOM     28  N   UNL     1       5.815   5.596  18.143  0.00  0.00    +0.000 N 
ATOM     29  H   UNL     1       5.884   4.892  18.865  0.00  0.00    +0.000 HD
ENDBRANCH  23  28
ENDBRANCH  17  23
ENDBRANCH  16  20
ENDBRANCH   1  16
TORSDOF 5
ENDMDL
MODEL 5
REMARK VINA RESULT:      -7.5      1.466      2.125
REMARK  Name = 
REMARK  10 active torsions:
REMARK  status: ('A' for Active; 'I' for Inactive)
REMARK    1  A    between atoms: C_1  and  C_2
REMARK    2  A    between atoms: N_4  and  C_5
REMARK    3  A    between atoms: C_5  and  C_6
REMARK    4  A    between atoms: C_5  and  C_7
REMARK    5  A    between atoms: C_10  and  O_11
REMARK    6  A    between atoms: O_11  and  C_12
REMARK    7  A    between atoms: C_19  and  C_20
REMARK    8  A    between atoms: C_20  and  C_21
REMARK    9  A    between atoms: C_20  and  C_22
REMARK   10  A    between atoms: C_20  and  C_23
REMARK                            x       y       z     vdW  Elec       q    Type
REMARK                         _______ _______ _______ _____ _____    ______ ____
ROOT
ATOM      1  C   UNL     1       1.281   9.687  18.449  0.00  0.00    +0.000 C 
ATOM      2  C   UNL     1       1.529  11.130  18.910  0.00  0.00    +0.000 C 
ATOM      3  C   UNL     1       0.168  11.638  19.383  0.00  0.00    +0.000 C 
ATOM      4  N   UNL     1      -0.751  10.936  18.520  0.00  0.00    +0.000 N 
ATOM      5  C   UNL     1      -2.104  11.142  18.590  0.00  0.00    +0.000 A 
ATOM      6  N   UNL     1      -2.566  12.208  19.258  0.00  0.00    +0.000 NA
ATOM      7  C   UNL     1      -3.902  12.419  19.262  0.00  0.00    +0.000 A 
ATOM      8  C   UNL     1      -4.827  11.615  18.631  0.00  0.00    +0.000 A 
ATOM      9  C   UNL     1      -4.242  10.550  17.972  0.00  0.00    +0.000 A 
ATOM     10  N   UNL     1      -2.915  10.296  17.939  0.00  0.00    +0.000 NA
ATOM     11  C   UNL     1      -0.224   9.650  18.097  0.00  0.00    +0.000 C 
ENDROOT
BRANCH   8  12
ATOM     12  C   UNL     1      -6.336  11.842  18.637  0.00  0.00    +0.000 C 
ATOM     13  C   UNL     1      -6.813  12.750  19.791  0.00  0.00    +0.000 C 
ATOM     14  C   UNL     1      -6.775  12.505  17.313  0.00  0.00    +0.000 C 
ATOM     15  C   UNL     1      -7.070  10.492  18.782  0.00  0.00    +0.000 C 
ENDBRANCH   8  12
BRANCH   1  16
ATOM     16  O   UNL     1       1.630   8.801  19.525  0.00  0.00    +0.000 OA
BRANCH  16  20
ATOM     17  C   UNL     1       3.467   5.223  18.313  0.00  0.00    +0.000 A 
ATOM     18  C   UNL     1       3.507   6.386  17.532  0.00  0.00    +0.000 A 
ATOM     19  C   UNL     1       2.864   7.556  17.960  0.00  0.00    +0.000 A 
ATOM     20  C   UNL     1       2.157   7.585  19.166  0.00  0.00    +0.000 A 
ATOM     21  C   UNL     1       2.091   6.428  19.936  0.00  0.00    +0.000 A 
ATOM     22  C   UNL     1       2.733   5.259  19.514  0.00  0.00    +0.000 A 
BRANCH  17  23
ATOM     23  C   UNL     1       4.227   3.974  17.889  0.00  0.00    +0.000 C 
ATOM     24  C   UNL     1       3.655   2.709  18.534  0.00  0.00    +0.000 C 
BRANCH  23  28
ATOM     25  C   UNL     1       7.977   4.544  17.821  0.00  0.00    +0.000 C 
ATOM     26  C   UNL     1       6.575   4.500  17.273  0.00  0.00    +0.000 C 
ATOM     27  O   UNL     1       6.311   4.782  16.110  0.00  0.00    +0.000 OA
ATOM     28  N   UNL     1       5.640   4.126  18.209  0.00  0.00    +0.000 N 
ATOM     29  H   UNL     1       5.950   3.881  19.138  0.00  0.00    +0.000 HD
ENDBRANCH  23  28
ENDBRANCH  17  23
ENDBRANCH  16  20
ENDBRANCH   1  16
TORSDOF 5
ENDMDL
MODEL 6
REMARK VINA RESULT:      -7.5      1.478      2.434
REMARK  Name = 
REMARK  10 active torsions:
REMARK  status: ('A' for Active; 'I' for Inactive)
REMARK    1  A    between atoms: C_1  and  C_2
REMARK    2  A    between atoms: N_4  and  C_5
REMARK    3  A    between atoms: C_5  and  C_6
REMARK    4  A    between atoms: C_5  and  C_7
REMARK    5  A    between atoms: C_10  and  O_11
REMARK    6  A    between atoms: O_11  and  C_12
REMARK    7  A    between atoms: C_19  and  C_20
REMARK    8  A    between atoms: C_20  and  C_21
REMARK    9  A    between atoms: C_20  and  C_22
REMARK   10  A    between atoms: C_20  and  C_23
REMARK                            x       y       z     vdW  Elec       q    Type
REMARK                         _______ _______ _______ _____ _____    ______ ____
ROOT
ATOM      1  C   UNL     1       0.675  10.840  19.707  0.00  0.00    +0.000 C 
ATOM      2  C   UNL     1       0.785  12.047  20.651  0.00  0.00    +0.000 C 
ATOM      3  C   UNL     1      -0.655  12.395  21.024  0.00  0.00    +0.000 C 
ATOM      4  N   UNL     1      -1.388  12.032  19.835  0.00  0.00    +0.000 N 
ATOM      5  C   UNL     1      -2.740  12.228  19.735  0.00  0.00    +0.000 A 
ATOM      6  N   UNL     1      -3.350  13.022  20.626  0.00  0.00    +0.000 NA
ATOM      7  C   UNL     1      -4.675  13.244  20.471  0.00  0.00    +0.000 A 
ATOM      8  C   UNL     1      -5.449  12.709  19.462  0.00  0.00    +0.000 A 
ATOM      9  C   UNL     1      -4.719  11.910  18.602  0.00  0.00    +0.000 A 
ATOM     10  N   UNL     1      -3.397  11.658  18.714  0.00  0.00    +0.000 NA
ATOM     11  C   UNL     1      -0.746  10.949  19.110  0.00  0.00    +0.000 C 
ENDROOT
BRANCH   8  12
ATOM     12  C   UNL     1      -6.945  12.948  19.284  0.00  0.00    +0.000 C 
ATOM     13  C   UNL     1      -7.404  12.884  17.811  0.00  0.00    +0.000 C 
ATOM     14  C   UNL     1      -7.746  11.884  20.067  0.00  0.00    +0.000 C 
ATOM     15  C   UNL     1      -7.321  14.346  19.821  0.00  0.00    +0.000 C 
ENDBRANCH   8  12
BRANCH   1  16
ATOM     16  O   UNL     1       0.874   9.644  20.477  0.00  0.00    +0.000 OA
BRANCH  16  20
ATOM     17  C   UNL     1       2.920   6.641  18.367  0.00  0.00    +0.000 A 
ATOM     18  C   UNL     1       2.601   7.877  17.788  0.00  0.00    +0.000 A 
ATOM     19  C   UNL     1       1.899   8.848  18.518  0.00  0.00    +0.000 A 
ATOM     20  C   UNL     1       1.489   8.599  19.831  0.00  0.00    +0.000 A 
ATOM     21  C   UNL     1       1.779   7.365  20.405  0.00  0.00    +0.000 A 
ATOM     22  C   UNL     1       2.482   6.396  19.682  0.00  0.00    +0.000 A 
BRANCH  17  23
ATOM     23  C   UNL     1       3.748   5.616  17.606  0.00  0.00    +0.000 C 
ATOM     24  C   UNL     1       3.417   4.184  18.031  0.00  0.00    +0.000 C 
BRANCH  23  28
ATOM     25  C   UNL     1       7.385   6.618  17.199  0.00  0.00    +0.000 C 
ATOM     26  C   UNL     1       5.939   6.468  16.804  0.00  0.00    +0.000 C 
ATOM     27  O   UNL     1       5.510   6.835  15.717  0.00  0.00    +0.000 OA
ATOM     28  N   UNL     1       5.166   5.897  17.787  0.00  0.00    +0.000 N 
ATOM     29  H   UNL     1       5.609   5.596  18.643  0.00  0.00    +0.000 HD
ENDBRANCH  23  28
ENDBRANCH  17  23
ENDBRANCH  16  20
ENDBRANCH   1  16
TORSDOF 5
ENDMDL
MODEL 7
REMARK VINA RESULT:      -7.5      0.713      1.172
REMARK  Name = 
REMARK  10 active torsions:
REMARK  status: ('A' for Active; 'I' for Inactive)
REMARK    1  A    between atoms: C_1  and  C_2
REMARK    2  A    between atoms: N_4  and  C_5
REMARK    3  A    between atoms: C_5  and  C_6
REMARK    4  A    between atoms: C_5  and  C_7
REMARK    5  A    between atoms: C_10  and  O_11
REMARK    6  A    between atoms: O_11  and  C_12
REMARK    7  A    between atoms: C_19  and  C_20
REMARK    8  A    between atoms: C_20  and  C_21
REMARK    9  A    between atoms: C_20  and  C_22
REMARK   10  A    between atoms: C_20  and  C_23
REMARK                            x       y       z     vdW  Elec       q    Type
REMARK                         _______ _______ _______ _____ _____    ______ ____
ROOT
ATOM      1  C   UNL     1       0.609  10.531  19.496  0.00  0.00    +0.000 C 
ATOM      2  C   UNL     1       0.842  11.711  20.451  0.00  0.00    +0.000 C 
ATOM      3  C   UNL     1      -0.555  12.165  20.872  0.00  0.00    +0.000 C 
ATOM      4  N   UNL     1      -1.349  11.879  19.702  0.00  0.00    +0.000 N 
ATOM      5  C   UNL     1      -2.684  12.182  19.647  0.00  0.00    +0.000 A 
ATOM      6  N   UNL     1      -3.202  13.008  20.567  0.00  0.00    +0.000 NA
ATOM      7  C   UNL     1      -4.510  13.335  20.455  0.00  0.00    +0.000 A 
ATOM      8  C   UNL     1      -5.353  12.878  19.464  0.00  0.00    +0.000 A 
ATOM      9  C   UNL     1      -4.715  12.037  18.572  0.00  0.00    +0.000 A 
ATOM     10  N   UNL     1      -3.413  11.681  18.640  0.00  0.00    +0.000 NA
ATOM     11  C   UNL     1      -0.817  10.760  18.945  0.00  0.00    +0.000 C 
ENDROOT
BRANCH   8  12
ATOM     12  C   UNL     1      -6.830  13.236  19.336  0.00  0.00    +0.000 C 
ATOM     13  C   UNL     1      -7.662  12.861  20.582  0.00  0.00    +0.000 C 
ATOM     14  C   UNL     1      -6.987  14.757  19.114  0.00  0.00    +0.000 C 
ATOM     15  C   UNL     1      -7.448  12.494  18.131  0.00  0.00    +0.000 C 
ENDBRANCH   8  12
BRANCH   1  16
ATOM     16  O   UNL     1       0.736   9.311  20.243  0.00  0.00    +0.000 OA
BRANCH  16  20
ATOM     17  C   UNL     1       3.333   6.547  18.438  0.00  0.00    +0.000 A 
ATOM     18  C   UNL     1       2.936   7.729  17.797  0.00  0.00    +0.000 A 
ATOM     19  C   UNL     1       2.052   8.618  18.424  0.00  0.00    +0.000 A 
ATOM     20  C   UNL     1       1.534   8.339  19.692  0.00  0.00    +0.000 A 
ATOM     21  C   UNL     1       1.903   7.156  20.325  0.00  0.00    +0.000 A 
ATOM     22  C   UNL     1       2.787   6.267  19.704  0.00  0.00    +0.000 A 
BRANCH  17  23
ATOM     23  C   UNL     1       4.352   5.618  17.793  0.00  0.00    +0.000 C 
ATOM     24  C   UNL     1       4.841   6.152  16.444  0.00  0.00    +0.000 C 
BRANCH  23  28
ATOM     25  C   UNL     1       3.493   1.931  18.047  0.00  0.00    +0.000 C 
ATOM     26  C   UNL     1       4.191   3.216  18.407  0.00  0.00    +0.000 C 
ATOM     27  O   UNL     1       5.030   3.285  19.297  0.00  0.00    +0.000 OA
ATOM     28  N   UNL     1       3.780   4.286  17.647  0.00  0.00    +0.000 N 
ATOM     29  H   UNL     1       3.104   4.132  16.913  0.00  0.00    +0.000 HD
ENDBRANCH  23  28
ENDBRANCH  17  23
ENDBRANCH  16  20
ENDBRANCH   1  16
TORSDOF 5
ENDMDL
MODEL 8
REMARK VINA RESULT:      -7.4      1.241      1.947
REMARK  Name = 
REMARK  10 active torsions:
REMARK  status: ('A' for Active; 'I' for Inactive)
REMARK    1  A    between atoms: C_1  and  C_2
REMARK    2  A    between atoms: N_4  and  C_5
REMARK    3  A    between atoms: C_5  and  C_6
REMARK    4  A    between atoms: C_5  and  C_7
REMARK    5  A    between atoms: C_10  and  O_11
REMARK    6  A    between atoms: O_11  and  C_12
REMARK    7  A    between atoms: C_19  and  C_20
REMARK    8  A    between atoms: C_20  and  C_21
REMARK    9  A    between atoms: C_20  and  C_22
REMARK   10  A    between atoms: C_20  and  C_23
REMARK                            x       y       z     vdW  Elec       q    Type
REMARK                         _______ _______ _______ _____ _____    ______ ____
ROOT
ATOM      1  C   UNL     1       1.285   9.753  18.323  0.00  0.00    +0.000 C 
ATOM      2  C   UNL     1       1.533  11.193  18.795  0.00  0.00    +0.000 C 
ATOM      3  C   UNL     1       0.178  11.686  19.302  0.00  0.00    +0.000 C 
ATOM      4  N   UNL     1      -0.754  10.986  18.451  0.00  0.00    +0.000 N 
ATOM      5  C   UNL     1      -2.106  11.181  18.551  0.00  0.00    +0.000 A 
ATOM      6  N   UNL     1      -2.561  12.236  19.240  0.00  0.00    +0.000 NA
ATOM      7  C   UNL     1      -3.899  12.437  19.275  0.00  0.00    +0.000 A 
ATOM      8  C   UNL     1      -4.831  11.633  18.654  0.00  0.00    +0.000 A 
ATOM      9  C   UNL     1      -4.252  10.579  17.972  0.00  0.00    +0.000 A 
ATOM     10  N   UNL     1      -2.924  10.336  17.907  0.00  0.00    +0.000 NA
ATOM     11  C   UNL     1      -0.226   9.709  18.002  0.00  0.00    +0.000 C 
ENDROOT
BRANCH   8  12
ATOM     12  C   UNL     1      -6.341  11.848  18.694  0.00  0.00    +0.000 C 
ATOM     13  C   UNL     1      -7.142  10.540  18.868  0.00  0.00    +0.000 C 
ATOM     14  C   UNL     1      -6.709  12.778  19.872  0.00  0.00    +0.000 C 
ATOM     15  C   UNL     1      -6.813  12.505  17.379  0.00  0.00    +0.000 C 
ENDBRANCH   8  12
BRANCH   1  16
ATOM     16  O   UNL     1       1.663   8.858  19.381  0.00  0.00    +0.000 OA
BRANCH  16  20
ATOM     17  C   UNL     1       3.453   5.201  18.346  0.00  0.00    +0.000 A 
ATOM     18  C   UNL     1       2.760   5.380  19.552  0.00  0.00    +0.000 A 
ATOM     19  C   UNL     1       2.193   6.622  19.872  0.00  0.00    +0.000 A 
ATOM     20  C   UNL     1       2.319   7.712  19.005  0.00  0.00    +0.000 A 
ATOM     21  C   UNL     1       3.027   7.550  17.818  0.00  0.00    +0.000 A 
ATOM     22  C   UNL     1       3.591   6.312  17.494  0.00  0.00    +0.000 A 
BRANCH  17  23
ATOM     23  C   UNL     1       4.003   3.835  17.961  0.00  0.00    +0.000 C 
ATOM     24  C   UNL     1       3.966   2.852  19.134  0.00  0.00    +0.000 C 
BRANCH  23  28
ATOM     25  C   UNL     1       7.688   4.577  17.450  0.00  0.00    +0.000 C 
ATOM     26  C   UNL     1       6.390   4.476  18.207  0.00  0.00    +0.000 C 
ATOM     27  O   UNL     1       6.285   4.799  19.384  0.00  0.00    +0.000 OA
ATOM     28  N   UNL     1       5.358   3.978  17.447  0.00  0.00    +0.000 N 
ATOM     29  H   UNL     1       5.528   3.766  16.474  0.00  0.00    +0.000 HD
ENDBRANCH  23  28
ENDBRANCH  17  23
ENDBRANCH  16  20
ENDBRANCH   1  16
TORSDOF 5
ENDMDL
MODEL 9
REMARK VINA RESULT:      -7.4      3.082      3.661
REMARK  Name = 
REMARK  10 active torsions:
REMARK  status: ('A' for Active; 'I' for Inactive)
REMARK    1  A    between atoms: C_1  and  C_2
REMARK    2  A    between atoms: N_4  and  C_5
REMARK    3  A    between atoms: C_5  and  C_6
REMARK    4  A    between atoms: C_5  and  C_7
REMARK    5  A    between atoms: C_10  and  O_11
REMARK    6  A    between atoms: O_11  and  C_12
REMARK    7  A    between atoms: C_19  and  C_20
REMARK    8  A    between atoms: C_20  and  C_21
REMARK    9  A    between atoms: C_20  and  C_22
REMARK   10  A    between atoms: C_20  and  C_23
REMARK                            x       y       z     vdW  Elec       q    Type
REMARK                         _______ _______ _______ _____ _____    ______ ____
ROOT
ATOM      1  C   UNL     1       0.926  10.070  21.216  0.00  0.00    +0.000 C 
ATOM      2  C   UNL     1       0.588   9.396  22.554  0.00  0.00    +0.000 C 
ATOM      3  C   UNL     1      -0.732  10.024  22.996  0.00  0.00    +0.000 C 
ATOM      4  N   UNL     1      -0.640  11.364  22.468  0.00  0.00    +0.000 N 
ATOM      5  C   UNL     1      -1.625  12.291  22.682  0.00  0.00    +0.000 A 
ATOM      6  N   UNL     1      -2.548  12.054  23.624  0.00  0.00    +0.000 NA
ATOM      7  C   UNL     1      -3.475  13.011  23.854  0.00  0.00    +0.000 A 
ATOM      8  C   UNL     1      -3.544  14.216  23.186  0.00  0.00    +0.000 A 
ATOM      9  C   UNL     1      -2.545  14.355  22.241  0.00  0.00    +0.000 A 
ATOM     10  N   UNL     1      -1.597  13.430  21.975  0.00  0.00    +0.000 NA
ATOM     11  C   UNL     1       0.175  11.419  21.266  0.00  0.00    +0.000 C 
ENDROOT
BRANCH   8  12
ATOM     12  C   UNL     1      -4.591  15.298  23.434  0.00  0.00    +0.000 C 
ATOM     13  C   UNL     1      -4.245  16.224  24.621  0.00  0.00    +0.000 C 
ATOM     14  C   UNL     1      -4.738  16.187  22.179  0.00  0.00    +0.000 C 
ATOM     15  C   UNL     1      -5.956  14.646  23.742  0.00  0.00    +0.000 C 
ENDBRANCH   8  12
BRANCH   1  16
ATOM     16  O   UNL     1       0.479   9.214  20.153  0.00  0.00    +0.000 OA
BRANCH  16  20
ATOM     17  C   UNL     1       3.330   6.813  18.214  0.00  0.00    +0.000 A 
ATOM     18  C   UNL     1       2.806   6.484  19.472  0.00  0.00    +0.000 A 
ATOM     19  C   UNL     1       1.870   7.321  20.097  0.00  0.00    +0.000 A 
ATOM     20  C   UNL     1       1.451   8.508  19.488  0.00  0.00    +0.000 A 
ATOM     21  C   UNL     1       1.986   8.856  18.252  0.00  0.00    +0.000 A 
ATOM     22  C   UNL     1       2.917   8.022  17.624  0.00  0.00    +0.000 A 
BRANCH  17  23
ATOM     23  C   UNL     1       4.287   5.870  17.500  0.00  0.00    +0.000 C 
ATOM     24  C   UNL     1       3.693   4.469  17.337  0.00  0.00    +0.000 C 
BRANCH  23  28
ATOM     25  C   UNL     1       7.865   6.283  18.691  0.00  0.00    +0.000 C 
ATOM     26  C   UNL     1       6.658   6.534  17.826  0.00  0.00    +0.000 C 
ATOM     27  O   UNL     1       6.674   7.311  16.879  0.00  0.00    +0.000 OA
ATOM     28  N   UNL     1       5.553   5.816  18.218  0.00  0.00    +0.000 N 
ATOM     29  H   UNL     1       5.638   5.175  18.994  0.00  0.00    +0.000 HD
ENDBRANCH  23  28
ENDBRANCH  17  23
ENDBRANCH  16  20
ENDBRANCH   1  16
TORSDOF 5
ENDMDL
