MODEL 1
REMARK VINA RESULT:      -6.6      0.000      0.000
REMARK  Name = 
REMARK  11 active torsions:
REMARK  status: ('A' for Active; 'I' for Inactive)
REMARK    1  A    between atoms: C_1  and  O_2
REMARK    2  A    between atoms: O_2  and  C_3
REMARK    3  A    between atoms: C_3  and  C_4
REMARK    4  A    between atoms: C_4  and  C_5
REMARK    5  A    between atoms: C_4  and  O_6
REMARK    6  A    between atoms: C_4  and  C_7
REMARK    7  A    between atoms: C_7  and  N_8
REMARK    8  A    between atoms: C_9  and  C_11
REMARK    9  A    between atoms: C_11  and  O_12
REMARK   10  A    between atoms: O_12  and  C_13
REMARK   11  A    between atoms: C_18  and  C_19
REMARK                            x       y       z     vdW  Elec       q    Type
REMARK                         _______ _______ _______ _____ _____    ______ ____
ROOT
ATOM      1  N   UNL     1       6.109   4.158  17.082  0.00  0.00    +0.000 N 
ATOM      2  C   UNL     1       6.511   4.555  18.344  0.00  0.00    +0.000 C 
ATOM      3  O   UNL     1       7.664   4.883  18.612  0.00  0.00    +0.000 OA
ATOM      4  H   UNL     1       5.257   3.611  16.994  0.00  0.00    +0.000 HD
ENDROOT
BRANCH   1   5
ATOM      5  C   UNL     1       7.053   4.032  15.988  0.00  0.00    +0.000 C 
BRANCH   5   6
ATOM      6  C   UNL     1       6.596   4.773  14.710  0.00  0.00    +0.000 C 
ATOM      7  C   UNL     1       6.263   3.809  13.566  0.00  0.00    +0.000 C 
BRANCH   6   8
ATOM      8  O   UNL     1       7.685   5.597  14.249  0.00  0.00    +0.000 OA
ATOM      9  H   UNL     1       8.382   5.006  13.915  0.00  0.00    +0.000 HD
ENDBRANCH   6   8
BRANCH   6  10
ATOM     10  C   UNL     1       5.351   5.635  15.039  0.00  0.00    +0.000 C 
BRANCH  10  12
ATOM     11  C   UNL     1       4.711   7.218  16.677  0.00  0.00    +0.000 C 
ATOM     12  O   UNL     1       5.740   6.779  15.801  0.00  0.00    +0.000 OA
ENDBRANCH  10  12
ENDBRANCH   6  10
ENDBRANCH   5   6
ENDBRANCH   1   5
BRANCH   2  13
ATOM     13  C   UNL     1       5.368   4.645  19.352  0.00  0.00    +0.000 C 
BRANCH  13  14
ATOM     14  O   UNL     1       4.865   3.373  19.743  0.00  0.00    +0.000 OA
BRANCH  14  15
ATOM     15  C   UNL     1       3.492   3.316  19.814  0.00  0.00    +0.000 A 
ATOM     16  C   UNL     1       2.738   4.208  20.590  0.00  0.00    +0.000 A 
ATOM     17  C   UNL     1       1.348   4.122  20.635  0.00  0.00    +0.000 A 
ATOM     18  C   UNL     1       0.690   3.159  19.881  0.00  0.00    +0.000 A 
ATOM     19  C   UNL     1       1.424   2.288  19.077  0.00  0.00    +0.000 A 
ATOM     20  C   UNL     1       2.830   2.351  19.034  0.00  0.00    +0.000 A 
ATOM     21  C   UNL     1       3.572   1.401  18.138  0.00  0.00    +0.000 C 
ENDBRANCH  14  15
ENDBRANCH  13  14
ENDBRANCH   2  13
TORSDOF 8
ENDMDL
MODEL 2
REMARK VINA RESULT:      -6.6      0.967      1.221
REMARK  Name = 
REMARK  11 active torsions:
REMARK  status: ('A' for Active; 'I' for Inactive)
REMARK    1  A    between atoms: C_1  and  O_2
REMARK    2  A    between atoms: O_2  and  C_3
REMARK    3  A    between atoms: C_3  and  C_4
REMARK    4  A    between atoms: C_4  and  C_5
REMARK    5  A    between atoms: C_4  and  O_6
REMARK    6  A    between atoms: C_4  and  C_7
REMARK    7  A    between atoms: C_7  and  N_8
REMARK    8  A    between atoms: C_9  and  C_11
REMARK    9  A    between atoms: C_11  and  O_12
REMARK   10  A    between atoms: O_12  and  C_13
REMARK   11  A    between atoms: C_18  and  C_19
REMARK                            x       y       z     vdW  Elec       q    Type
REMARK                         _______ _______ _______ _____ _____    ______ ____
ROOT
ATOM      1  N   UNL     1       6.260   4.041  16.979  0.00  0.00    +0.000 N 
ATOM      2  C   UNL     1       6.534   4.399  18.287  0.00  0.00    +0.000 C 
ATOM      3  O   UNL     1       7.591   4.920  18.635  0.00  0.00    +0.000 OA
ATOM      4  H   UNL     1       5.536   3.348  16.808  0.00  0.00    +0.000 HD
ENDROOT
BRANCH   1   5
ATOM      5  C   UNL     1       7.244   4.195  15.926  0.00  0.00    +0.000 C 
BRANCH   5   6
ATOM      6  C   UNL     1       6.654   4.809  14.635  0.00  0.00    +0.000 C 
ATOM      7  C   UNL     1       6.233   3.739  13.623  0.00  0.00    +0.000 C 
BRANCH   6   8
ATOM      8  O   UNL     1       7.679   5.596  13.998  0.00  0.00    +0.000 OA
ATOM      9  H   UNL     1       7.553   6.522  14.269  0.00  0.00    +0.000 HD
ENDBRANCH   6   8
BRANCH   6  10
ATOM     10  C   UNL     1       5.430   5.684  15.002  0.00  0.00    +0.000 C 
BRANCH  10  12
ATOM     11  C   UNL     1       4.739   7.092  16.774  0.00  0.00    +0.000 C 
ATOM     12  O   UNL     1       5.817   6.691  15.939  0.00  0.00    +0.000 OA
ENDBRANCH  10  12
ENDBRANCH   6  10
ENDBRANCH   5   6
ENDBRANCH   1   5
BRANCH   2  13
ATOM     13  C   UNL     1       5.365   4.178  19.242  0.00  0.00    +0.000 C 
BRANCH  13  14
ATOM     14  O   UNL     1       4.260   3.520  18.633  0.00  0.00    +0.000 OA
BRANCH  14  15
ATOM     15  C   UNL     1       3.200   3.307  19.485  0.00  0.00    +0.000 A 
ATOM     16  C   UNL     1       3.361   2.770  20.771  0.00  0.00    +0.000 A 
ATOM     17  C   UNL     1       2.264   2.572  21.607  0.00  0.00    +0.000 A 
ATOM     18  C   UNL     1       0.994   2.934  21.180  0.00  0.00    +0.000 A 
ATOM     19  C   UNL     1       0.823   3.501  19.917  0.00  0.00    +0.000 A 
ATOM     20  C   UNL     1       1.918   3.693  19.054  0.00  0.00    +0.000 A 
ATOM     21  C   UNL     1       1.683   4.324  17.711  0.00  0.00    +0.000 C 
ENDBRANCH  14  15
ENDBRANCH  13  14
ENDBRANCH   2  13
TORSDOF 8
ENDMDL
MODEL 3
REMARK VINA RESULT:      -6.3      2.016      2.867
REMARK  Name = 
REMARK  11 active torsions:
REMARK  status: ('A' for Active; 'I' for Inactive)
REMARK    1  A    between atoms: C_1  and  O_2
REMARK    2  A    between atoms: O_2  and  C_3
REMARK    3  A    between atoms: C_3  and  C_4
REMARK    4  A    between atoms: C_4  and  C_5
REMARK    5  A    between atoms: C_4  and  O_6
REMARK    6  A    between atoms: C_4  and  C_7
REMARK    7  A    between atoms: C_7  and  N_8
REMARK    8  A    between atoms: C_9  and  C_11
REMARK    9  A    between atoms: C_11  and  O_12
REMARK   10  A    between atoms: O_12  and  C_13
REMARK   11  A    between atoms: C_18  and  C_19
REMARK                            x       y       z     vdW  Elec       q    Type
REMARK                         _______ _______ _______ _____ _____    ______ ____
ROOT
ATOM      1  N   UNL     1       5.346   3.629  17.197  0.00  0.00    +0.000 N 
ATOM      2  C   UNL     1       4.845   3.419  18.469  0.00  0.00    +0.000 C 
ATOM      3  O   UNL     1       5.411   3.805  19.489  0.00  0.00    +0.000 OA
ATOM      4  H   UNL     1       5.018   3.032  16.443  0.00  0.00    +0.000 HD
ENDROOT
BRANCH   1   5
ATOM      5  C   UNL     1       6.629   4.268  16.981  0.00  0.00    +0.000 C 
BRANCH   5   6
ATOM      6  C   UNL     1       6.509   5.628  16.253  0.00  0.00    +0.000 C 
ATOM      7  C   UNL     1       5.283   5.690  15.336  0.00  0.00    +0.000 C 
BRANCH   6   8
ATOM      8  O   UNL     1       7.664   5.793  15.407  0.00  0.00    +0.000 OA
ATOM      9  H   UNL     1       8.359   5.197  15.736  0.00  0.00    +0.000 HD
ENDBRANCH   6   8
BRANCH   6  10
ATOM     10  C   UNL     1       6.426   6.762  17.305  0.00  0.00    +0.000 C 
BRANCH  10  12
ATOM     11  C   UNL     1       8.099   8.312  17.935  0.00  0.00    +0.000 C 
ATOM     12  O   UNL     1       7.240   7.863  16.896  0.00  0.00    +0.000 OA
ENDBRANCH  10  12
ENDBRANCH   6  10
ENDBRANCH   5   6
ENDBRANCH   1   5
BRANCH   2  13
ATOM     13  C   UNL     1       3.473   2.749  18.487  0.00  0.00    +0.000 C 
BRANCH  13  14
ATOM     14  O   UNL     1       2.435   3.587  17.991  0.00  0.00    +0.000 OA
BRANCH  14  15
ATOM     15  C   UNL     1       2.329   4.790  18.650  0.00  0.00    +0.000 A 
ATOM     16  C   UNL     1       2.727   6.005  18.074  0.00  0.00    +0.000 A 
ATOM     17  C   UNL     1       2.600   7.205  18.771  0.00  0.00    +0.000 A 
ATOM     18  C   UNL     1       2.047   7.210  20.044  0.00  0.00    +0.000 A 
ATOM     19  C   UNL     1       1.614   6.015  20.616  0.00  0.00    +0.000 A 
ATOM     20  C   UNL     1       1.750   4.792  19.933  0.00  0.00    +0.000 A 
ATOM     21  C   UNL     1       1.251   3.535  20.586  0.00  0.00    +0.000 C 
ENDBRANCH  14  15
ENDBRANCH  13  14
ENDBRANCH   2  13
TORSDOF 8
ENDMDL
MODEL 4
REMARK VINA RESULT:      -6.2      2.285      3.162
REMARK  Name = 
REMARK  11 active torsions:
REMARK  status: ('A' for Active; 'I' for Inactive)
REMARK    1  A    between atoms: C_1  and  O_2
REMARK    2  A    between atoms: O_2  and  C_3
REMARK    3  A    between atoms: C_3  and  C_4
REMARK    4  A    between atoms: C_4  and  C_5
REMARK    5  A    between atoms: C_4  and  O_6
REMARK    6  A    between atoms: C_4  and  C_7
REMARK    7  A    between atoms: C_7  and  N_8
REMARK    8  A    between atoms: C_9  and  C_11
REMARK    9  A    between atoms: C_11  and  O_12
REMARK   10  A    between atoms: O_12  and  C_13
REMARK   11  A    between atoms: C_18  and  C_19
REMARK                            x       y       z     vdW  Elec       q    Type
REMARK                         _______ _______ _______ _____ _____    ______ ____
ROOT
ATOM      1  N   UNL     1       5.875   4.250  17.951  0.00  0.00    +0.000 N 
ATOM      2  C   UNL     1       5.356   3.661  16.812  0.00  0.00    +0.000 C 
ATOM      3  O   UNL     1       5.968   3.596  15.749  0.00  0.00    +0.000 OA
ATOM      4  H   UNL     1       5.230   4.553  18.676  0.00  0.00    +0.000 HD
ENDROOT
BRANCH   1   5
ATOM      5  C   UNL     1       7.169   4.903  17.948  0.00  0.00    +0.000 C 
BRANCH   5   6
ATOM      6  C   UNL     1       7.127   6.323  17.336  0.00  0.00    +0.000 C 
ATOM      7  C   UNL     1       5.700   6.872  17.243  0.00  0.00    +0.000 C 
BRANCH   6   8
ATOM      8  O   UNL     1       7.628   6.251  15.987  0.00  0.00    +0.000 OA
ATOM      9  H   UNL     1       7.089   5.601  15.505  0.00  0.00    +0.000 HD
ENDBRANCH   6   8
BRANCH   6  10
ATOM     10  C   UNL     1       7.992   7.275  18.199  0.00  0.00    +0.000 C 
BRANCH  10  12
ATOM     11  C   UNL     1       8.647   9.532  18.471  0.00  0.00    +0.000 C 
ATOM     12  O   UNL     1       7.890   8.610  17.700  0.00  0.00    +0.000 OA
ENDBRANCH  10  12
ENDBRANCH   6  10
ENDBRANCH   5   6
ENDBRANCH   1   5
BRANCH   2  13
ATOM     13  C   UNL     1       3.992   3.011  17.024  0.00  0.00    +0.000 C 
BRANCH  13  14
ATOM     14  O   UNL     1       2.955   3.953  17.274  0.00  0.00    +0.000 OA
BRANCH  14  15
ATOM     15  C   UNL     1       2.372   3.822  18.514  0.00  0.00    +0.000 A 
ATOM     16  C   UNL     1       2.030   2.577  19.061  0.00  0.00    +0.000 A 
ATOM     17  C   UNL     1       1.444   2.484  20.321  0.00  0.00    +0.000 A 
ATOM     18  C   UNL     1       1.218   3.634  21.066  0.00  0.00    +0.000 A 
ATOM     19  C   UNL     1       1.586   4.876  20.550  0.00  0.00    +0.000 A 
ATOM     20  C   UNL     1       2.163   4.989  19.272  0.00  0.00    +0.000 A 
ATOM     21  C   UNL     1       2.556   6.349  18.771  0.00  0.00    +0.000 C 
ENDBRANCH  14  15
ENDBRANCH  13  14
ENDBRANCH   2  13
TORSDOF 8
ENDMDL
MODEL 5
REMARK VINA RESULT:      -6.0      2.058      3.172
REMARK  Name = 
REMARK  11 active torsions:
REMARK  status: ('A' for Active; 'I' for Inactive)
REMARK    1  A    between atoms: C_1  and  O_2
REMARK    2  A    between atoms: O_2  and  C_3
REMARK    3  A    between atoms: C_3  and  C_4
REMARK    4  A    between atoms: C_4  and  C_5
REMARK    5  A    between atoms: C_4  and  O_6
REMARK    6  A    between atoms: C_4  and  C_7
REMARK    7  A    between atoms: C_7  and  N_8
REMARK    8  A    between atoms: C_9  and  C_11
REMARK    9  A    between atoms: C_11  and  O_12
REMARK   10  A    between atoms: O_12  and  C_13
REMARK   11  A    between atoms: C_18  and  C_19
REMARK                            x       y       z     vdW  Elec       q    Type
REMARK                         _______ _______ _______ _____ _____    ______ ____
ROOT
ATOM      1  N   UNL     1       4.657   3.629  17.658  0.00  0.00    +0.000 N 
ATOM      2  C   UNL     1       3.966   2.689  18.401  0.00  0.00    +0.000 C 
ATOM      3  O   UNL     1       4.331   2.307  19.510  0.00  0.00    +0.000 OA
ATOM      4  H   UNL     1       4.496   3.668  16.656  0.00  0.00    +0.000 HD
ENDROOT
BRANCH   1   5
ATOM      5  C   UNL     1       5.916   4.185  18.115  0.00  0.00    +0.000 C 
BRANCH   5   6
ATOM      6  C   UNL     1       6.827   4.645  16.953  0.00  0.00    +0.000 C 
ATOM      7  C   UNL     1       6.384   4.070  15.604  0.00  0.00    +0.000 C 
BRANCH   6   8
ATOM      8  O   UNL     1       8.158   4.146  17.195  0.00  0.00    +0.000 OA
ATOM      9  H   UNL     1       8.097   3.181  17.301  0.00  0.00    +0.000 HD
ENDBRANCH   6   8
BRANCH   6  10
ATOM     10  C   UNL     1       6.820   6.193  16.883  0.00  0.00    +0.000 C 
BRANCH  10  12
ATOM     11  C   UNL     1       7.869   8.136  17.734  0.00  0.00    +0.000 C 
ATOM     12  O   UNL     1       7.736   6.726  17.842  0.00  0.00    +0.000 OA
ENDBRANCH  10  12
ENDBRANCH   6  10
ENDBRANCH   5   6
ENDBRANCH   1   5
BRANCH   2  13
ATOM     13  C   UNL     1       2.655   2.242  17.761  0.00  0.00    +0.000 C 
BRANCH  13  14
ATOM     14  O   UNL     1       1.511   2.859  18.340  0.00  0.00    +0.000 OA
BRANCH  14  15
ATOM     15  C   UNL     1       1.736   4.142  18.786  0.00  0.00    +0.000 A 
ATOM     16  C   UNL     1       1.994   5.210  17.915  0.00  0.00    +0.000 A 
ATOM     17  C   UNL     1       2.214   6.497  18.402  0.00  0.00    +0.000 A 
ATOM     18  C   UNL     1       2.150   6.739  19.768  0.00  0.00    +0.000 A 
ATOM     19  C   UNL     1       1.859   5.693  20.644  0.00  0.00    +0.000 A 
ATOM     20  C   UNL     1       1.651   4.385  20.169  0.00  0.00    +0.000 A 
ATOM     21  C   UNL     1       1.323   3.299  21.153  0.00  0.00    +0.000 C 
ENDBRANCH  14  15
ENDBRANCH  13  14
ENDBRANCH   2  13
TORSDOF 8
ENDMDL
MODEL 6
REMARK VINA RESULT:      -6.0      5.192      7.964
REMARK  Name = 
REMARK  11 active torsions:
REMARK  status: ('A' for Active; 'I' for Inactive)
REMARK    1  A    between atoms: C_1  and  O_2
REMARK    2  A    between atoms: O_2  and  C_3
REMARK    3  A    between atoms: C_3  and  C_4
REMARK    4  A    between atoms: C_4  and  C_5
REMARK    5  A    between atoms: C_4  and  O_6
REMARK    6  A    between atoms: C_4  and  C_7
REMARK    7  A    between atoms: C_7  and  N_8
REMARK    8  A    between atoms: C_9  and  C_11
REMARK    9  A    between atoms: C_11  and  O_12
REMARK   10  A    between atoms: O_12  and  C_13
REMARK   11  A    between atoms: C_18  and  C_19
REMARK                            x       y       z     vdW  Elec       q    Type
REMARK                         _______ _______ _______ _____ _____    ______ ____
ROOT
ATOM      1  N   UNL     1       7.333   7.232  16.758  0.00  0.00    +0.000 N 
ATOM      2  C   UNL     1       7.924   7.671  17.929  0.00  0.00    +0.000 C 
ATOM      3  O   UNL     1       8.244   6.918  18.845  0.00  0.00    +0.000 OA
ATOM      4  H   UNL     1       6.816   7.903  16.196  0.00  0.00    +0.000 HD
ENDROOT
BRANCH   1   5
ATOM      5  C   UNL     1       6.982   5.840  16.558  0.00  0.00    +0.000 C 
BRANCH   5   6
ATOM      6  C   UNL     1       5.578   5.657  15.934  0.00  0.00    +0.000 C 
ATOM      7  C   UNL     1       5.525   4.474  14.962  0.00  0.00    +0.000 C 
BRANCH   6   8
ATOM      8  O   UNL     1       5.266   6.835  15.165  0.00  0.00    +0.000 OA
ATOM      9  H   UNL     1       5.809   6.814  14.359  0.00  0.00    +0.000 HD
ENDBRANCH   6   8
BRANCH   6  10
ATOM     10  C   UNL     1       4.542   5.443  17.066  0.00  0.00    +0.000 C 
BRANCH  10  12
ATOM     11  C   UNL     1       4.701   4.488  19.225  0.00  0.00    +0.000 C 
ATOM     12  O   UNL     1       5.196   5.479  18.335  0.00  0.00    +0.000 OA
ENDBRANCH  10  12
ENDBRANCH   6  10
ENDBRANCH   5   6
ENDBRANCH   1   5
BRANCH   2  13
ATOM     13  C   UNL     1       8.234   9.165  17.938  0.00  0.00    +0.000 C 
BRANCH  13  14
ATOM     14  O   UNL     1       8.790   9.614  19.169  0.00  0.00    +0.000 OA
BRANCH  14  15
ATOM     15  C   UNL     1       9.622  10.703  19.040  0.00  0.00    +0.000 A 
ATOM     16  C   UNL     1      10.279  11.013  17.841  0.00  0.00    +0.000 A 
ATOM     17  C   UNL     1      11.111  12.127  17.746  0.00  0.00    +0.000 A 
ATOM     18  C   UNL     1      11.276  12.962  18.843  0.00  0.00    +0.000 A 
ATOM     19  C   UNL     1      10.601  12.686  20.031  0.00  0.00    +0.000 A 
ATOM     20  C   UNL     1       9.770  11.556  20.149  0.00  0.00    +0.000 A 
ATOM     21  C   UNL     1       9.053  11.314  21.446  0.00  0.00    +0.000 C 
ENDBRANCH  14  15
ENDBRANCH  13  14
ENDBRANCH   2  13
TORSDOF 8
ENDMDL
MODEL 7
REMARK VINA RESULT:      -6.0      1.859      3.096
REMARK  Name = 
REMARK  11 active torsions:
REMARK  status: ('A' for Active; 'I' for Inactive)
REMARK    1  A    between atoms: C_1  and  O_2
REMARK    2  A    between atoms: O_2  and  C_3
REMARK    3  A    between atoms: C_3  and  C_4
REMARK    4  A    between atoms: C_4  and  C_5
REMARK    5  A    between atoms: C_4  and  O_6
REMARK    6  A    between atoms: C_4  and  C_7
REMARK    7  A    between atoms: C_7  and  N_8
REMARK    8  A    between atoms: C_9  and  C_11
REMARK    9  A    between atoms: C_11  and  O_12
REMARK   10  A    between atoms: O_12  and  C_13
REMARK   11  A    between atoms: C_18  and  C_19
REMARK                            x       y       z     vdW  Elec       q    Type
REMARK                         _______ _______ _______ _____ _____    ______ ____
ROOT
ATOM      1  N   UNL     1       5.856   3.772  17.531  0.00  0.00    +0.000 N 
ATOM      2  C   UNL     1       4.962   3.875  16.481  0.00  0.00    +0.000 C 
ATOM      3  O   UNL     1       5.206   4.491  15.446  0.00  0.00    +0.000 OA
ATOM      4  H   UNL     1       5.496   3.538  18.452  0.00  0.00    +0.000 HD
ENDROOT
BRANCH   1   5
ATOM      5  C   UNL     1       7.136   4.453  17.511  0.00  0.00    +0.000 C 
BRANCH   5   6
ATOM      6  C   UNL     1       7.237   5.577  18.568  0.00  0.00    +0.000 C 
ATOM      7  C   UNL     1       7.512   6.946  17.937  0.00  0.00    +0.000 C 
BRANCH   6   8
ATOM      8  O   UNL     1       8.356   5.290  19.430  0.00  0.00    +0.000 OA
ATOM      9  H   UNL     1       8.167   4.457  19.893  0.00  0.00    +0.000 HD
ENDBRANCH   6   8
BRANCH   6  10
ATOM     10  C   UNL     1       5.917   5.637  19.376  0.00  0.00    +0.000 C 
BRANCH  10  12
ATOM     11  C   UNL     1       3.603   6.071  19.143  0.00  0.00    +0.000 C 
ATOM     12  O   UNL     1       4.899   6.269  18.598  0.00  0.00    +0.000 OA
ENDBRANCH  10  12
ENDBRANCH   6  10
ENDBRANCH   5   6
ENDBRANCH   1   5
BRANCH   2  13
ATOM     13  C   UNL     1       3.681   3.071  16.683  0.00  0.00    +0.000 C 
BRANCH  13  14
ATOM     14  O   UNL     1       3.744   2.188  17.798  0.00  0.00    +0.000 OA
BRANCH  14  15
ATOM     15  C   UNL     1       2.886   2.522  18.821  0.00  0.00    +0.000 A 
ATOM     16  C   UNL     1       1.549   2.883  18.599  0.00  0.00    +0.000 A 
ATOM     17  C   UNL     1       0.709   3.211  19.660  0.00  0.00    +0.000 A 
ATOM     18  C   UNL     1       1.186   3.155  20.963  0.00  0.00    +0.000 A 
ATOM     19  C   UNL     1       2.503   2.764  21.202  0.00  0.00    +0.000 A 
ATOM     20  C   UNL     1       3.370   2.446  20.140  0.00  0.00    +0.000 A 
ATOM     21  C   UNL     1       4.773   2.013  20.453  0.00  0.00    +0.000 C 
ENDBRANCH  14  15
ENDBRANCH  13  14
ENDBRANCH   2  13
TORSDOF 8
ENDMDL
MODEL 8
REMARK VINA RESULT:      -5.9      1.408      2.709
REMARK  Name = 
REMARK  11 active torsions:
REMARK  status: ('A' for Active; 'I' for Inactive)
REMARK    1  A    between atoms: C_1  and  O_2
REMARK    2  A    between atoms: O_2  and  C_3
REMARK    3  A    between atoms: C_3  and  C_4
REMARK    4  A    between atoms: C_4  and  C_5
REMARK    5  A    between atoms: C_4  and  O_6
REMARK    6  A    between atoms: C_4  and  C_7
REMARK    7  A    between atoms: C_7  and  N_8
REMARK    8  A    between atoms: C_9  and  C_11
REMARK    9  A    between atoms: C_11  and  O_12
REMARK   10  A    between atoms: O_12  and  C_13
REMARK   11  A    between atoms: C_18  and  C_19
REMARK                            x       y       z     vdW  Elec       q    Type
REMARK                         _______ _______ _______ _____ _____    ______ ____
ROOT
ATOM      1  N   UNL     1       5.983   4.687  17.012  0.00  0.00    +0.000 N 
ATOM      2  C   UNL     1       6.318   4.761  18.352  0.00  0.00    +0.000 C 
ATOM      3  O   UNL     1       7.476   4.722  18.759  0.00  0.00    +0.000 OA
ATOM      4  H   UNL     1       5.037   4.409  16.764  0.00  0.00    +0.000 HD
ENDROOT
BRANCH   1   5
ATOM      5  C   UNL     1       6.987   4.486  15.986  0.00  0.00    +0.000 C 
BRANCH   5   6
ATOM      6  C   UNL     1       6.514   4.935  14.584  0.00  0.00    +0.000 C 
ATOM      7  C   UNL     1       7.686   5.242  13.646  0.00  0.00    +0.000 C 
BRANCH   6   8
ATOM      8  O   UNL     1       5.770   6.161  14.727  0.00  0.00    +0.000 OA
ATOM      9  H   UNL     1       5.478   6.435  13.840  0.00  0.00    +0.000 HD
ENDBRANCH   6   8
BRANCH   6  10
ATOM     10  C   UNL     1       5.633   3.822  13.963  0.00  0.00    +0.000 C 
BRANCH  10  12
ATOM     11  C   UNL     1       4.967   3.162  11.791  0.00  0.00    +0.000 C 
ATOM     12  O   UNL     1       6.047   3.567  12.620  0.00  0.00    +0.000 OA
ENDBRANCH  10  12
ENDBRANCH   6  10
ENDBRANCH   5   6
ENDBRANCH   1   5
BRANCH   2  13
ATOM     13  C   UNL     1       5.124   4.995  19.272  0.00  0.00    +0.000 C 
BRANCH  13  14
ATOM     14  O   UNL     1       3.926   5.303  18.568  0.00  0.00    +0.000 OA
BRANCH  14  15
ATOM     15  C   UNL     1       2.921   4.379  18.748  0.00  0.00    +0.000 A 
ATOM     16  C   UNL     1       2.881   3.162  18.054  0.00  0.00    +0.000 A 
ATOM     17  C   UNL     1       1.850   2.249  18.265  0.00  0.00    +0.000 A 
ATOM     18  C   UNL     1       0.858   2.530  19.196  0.00  0.00    +0.000 A 
ATOM     19  C   UNL     1       0.904   3.721  19.919  0.00  0.00    +0.000 A 
ATOM     20  C   UNL     1       1.929   4.661  19.706  0.00  0.00    +0.000 A 
ATOM     21  C   UNL     1       1.942   5.920  20.524  0.00  0.00    +0.000 C 
ENDBRANCH  14  15
ENDBRANCH  13  14
ENDBRANCH   2  13
TORSDOF 8
ENDMDL
MODEL 9
REMARK VINA RESULT:      -5.9      1.953      2.525
REMARK  Name = 
REMARK  11 active torsions:
REMARK  status: ('A' for Active; 'I' for Inactive)
REMARK    1  A    between atoms: C_1  and  O_2
REMARK    2  A    between atoms: O_2  and  C_3
REMARK    3  A    between atoms: C_3  and  C_4
REMARK    4  A    between atoms: C_4  and  C_5
REMARK    5  A    between atoms: C_4  and  O_6
REMARK    6  A    between atoms: C_4  and  C_7
REMARK    7  A    between atoms: C_7  and  N_8
REMARK    8  A    between atoms: C_9  and  C_11
REMARK    9  A    between atoms: C_11  and  O_12
REMARK   10  A    between atoms: O_12  and  C_13
REMARK   11  A    between atoms: C_18  and  C_19
REMARK                            x       y       z     vdW  Elec       q    Type
REMARK                         _______ _______ _______ _____ _____    ______ ____
ROOT
ATOM      1  N   UNL     1       4.285   5.553  16.862  0.00  0.00    +0.000 N 
ATOM      2  C   UNL     1       3.988   6.687  17.595  0.00  0.00    +0.000 C 
ATOM      3  O   UNL     1       4.389   7.809  17.292  0.00  0.00    +0.000 OA
ATOM      4  H   UNL     1       4.202   4.648  17.317  0.00  0.00    +0.000 HD
ENDROOT
BRANCH   1   5
ATOM      5  C   UNL     1       5.160   5.599  15.708  0.00  0.00    +0.000 C 
BRANCH   5   6
ATOM      6  C   UNL     1       6.202   4.456  15.695  0.00  0.00    +0.000 C 
ATOM      7  C   UNL     1       6.658   4.102  14.276  0.00  0.00    +0.000 C 
BRANCH   6   8
ATOM      8  O   UNL     1       5.583   3.272  16.236  0.00  0.00    +0.000 OA
ATOM      9  H   UNL     1       6.284   2.727  16.633  0.00  0.00    +0.000 HD
ENDBRANCH   6   8
BRANCH   6  10
ATOM     10  C   UNL     1       7.429   4.877  16.543  0.00  0.00    +0.000 C 
BRANCH  10  12
ATOM     11  C   UNL     1       7.694   6.679  18.052  0.00  0.00    +0.000 C 
ATOM     12  O   UNL     1       7.441   6.296  16.708  0.00  0.00    +0.000 OA
ENDBRANCH  10  12
ENDBRANCH   6  10
ENDBRANCH   5   6
ENDBRANCH   1   5
BRANCH   2  13
ATOM     13  C   UNL     1       3.034   6.435  18.760  0.00  0.00    +0.000 C 
BRANCH  13  14
ATOM     14  O   UNL     1       2.061   5.436  18.480  0.00  0.00    +0.000 OA
BRANCH  14  15
ATOM     15  C   UNL     1       2.020   4.423  19.412  0.00  0.00    +0.000 A 
ATOM     16  C   UNL     1       1.850   4.664  20.783  0.00  0.00    +0.000 A 
ATOM     17  C   UNL     1       1.809   3.613  21.696  0.00  0.00    +0.000 A 
ATOM     18  C   UNL     1       1.911   2.303  21.248  0.00  0.00    +0.000 A 
ATOM     19  C   UNL     1       2.046   2.046  19.884  0.00  0.00    +0.000 A 
ATOM     20  C   UNL     1       2.105   3.097  18.950  0.00  0.00    +0.000 A 
ATOM     21  C   UNL     1       2.233   2.765  17.491  0.00  0.00    +0.000 C 
ENDBRANCH  14  15
ENDBRANCH  13  14
ENDBRANCH   2  13
TORSDOF 8
ENDMDL
