MODEL 1
REMARK VINA RESULT:     -10.0      0.000      0.000
REMARK  Name = 
REMARK  8 active torsions:
REMARK  status: ('A' for Active; 'I' for Inactive)
REMARK    1  A    between atoms: C_2  and  C_3
REMARK    2  A    between atoms: C_3  and  C_4
REMARK    3  A    between atoms: N_13  and  C_14
REMARK    4  A    between atoms: C_14  and  C_15
REMARK    5  A    between atoms: C_14  and  C_22
REMARK    6  A    between atoms: C_15  and  C_16
REMARK    7  A    between atoms: C_28  and  C_29
REMARK    8  A    between atoms: N_31  and  C_32
REMARK                            x       y       z     vdW  Elec       q    Type
REMARK                         _______ _______ _______ _____ _____    ______ ____
ROOT
ATOM      1  C   UNL     1       3.074   6.478  18.245  0.00  0.00    +0.000 C 
ENDROOT
BRANCH   1   2
ATOM      2  C   UNL     1       4.486   6.472  17.545  0.00  0.00    +0.000 C 
ATOM      3  O   UNL     1       4.582   6.995  16.419  0.00  0.00    +0.000 OA
ATOM      4  N   UNL     1       5.637   5.993  18.140  0.00  0.00    +0.000 N 
ATOM      5  C   UNL     1       5.817   5.294  19.397  0.00  0.00    +0.000 C 
ATOM      6  C   UNL     1       7.206   5.686  19.856  0.00  0.00    +0.000 C 
ATOM      7  C   UNL     1       7.996   5.857  18.571  0.00  0.00    +0.000 C 
ATOM      8  C   UNL     1       6.948   6.125  17.469  0.00  0.00    +0.000 C 
BRANCH   8   9
ATOM      9  C   UNL     1       7.143   5.126  16.296  0.00  0.00    +0.000 C 
ATOM     10  O   UNL     1       7.829   4.111  16.429  0.00  0.00    +0.000 OA
ATOM     11  N   UNL     1       6.565   5.530  15.105  0.00  0.00    +0.000 N 
ATOM     12  H   UNL     1       6.107   6.442  15.112  0.00  0.00    +0.000 HD
BRANCH  11  13
ATOM     13  C   UNL     1       6.634   4.837  13.879  0.00  0.00    +0.000 A 
ATOM     14  C   UNL     1       7.600   5.107  12.905  0.00  0.00    +0.000 A 
ATOM     15  C   UNL     1       7.604   4.421  11.688  0.00  0.00    +0.000 A 
ATOM     16  C   UNL     1       6.635   3.457  11.432  0.00  0.00    +0.000 A 
ATOM     17  C   UNL     1       5.679   3.163  12.402  0.00  0.00    +0.000 A 
ATOM     18  C   UNL     1       5.684   3.840  13.630  0.00  0.00    +0.000 A 
ENDBRANCH  11  13
ENDBRANCH   8   9
ENDBRANCH   1   2
BRANCH   1  21
ATOM     19  O   UNL     1       1.654   8.393  19.896  0.00  0.00    +0.000 OA
ATOM     20  C   UNL     1       1.734   8.592  18.686  0.00  0.00    +0.000 C 
ATOM     21  N   UNL     1       2.433   7.760  17.843  0.00  0.00    +0.000 N 
ATOM     22  H   UNL     1       2.689   8.113  16.923  0.00  0.00    +0.000 HD
BRANCH  20  23
ATOM     23  C   UNL     1       0.946   9.711  18.003  0.00  0.00    +0.000 C 
BRANCH  23  24
ATOM     24  C   UNL     1       0.705  10.909  18.866  0.00  0.00    +0.000 A 
ATOM     25  C   UNL     1      -0.275  11.043  19.832  0.00  0.00    +0.000 A 
ATOM     26  N   UNL     1      -0.192  12.306  20.357  0.00  0.00    +0.000 N 
ATOM     27  C   UNL     1       0.812  13.010  19.736  0.00  0.00    +0.000 A 
ATOM     28  C   UNL     1       1.205  14.345  19.886  0.00  0.00    +0.000 A 
ATOM     29  C   UNL     1       2.287  14.790  19.120  0.00  0.00    +0.000 A 
ATOM     30  C   UNL     1       2.978  13.921  18.280  0.00  0.00    +0.000 A 
ATOM     31  C   UNL     1       2.575  12.588  18.148  0.00  0.00    +0.000 A 
ATOM     32  C   UNL     1       1.446  12.133  18.857  0.00  0.00    +0.000 A 
ATOM     33  H   UNL     1      -0.791  12.680  21.080  0.00  0.00    +0.000 HD
ENDBRANCH  23  24
ENDBRANCH  20  23
ENDBRANCH   1  21
BRANCH   1  34
ATOM     34  C   UNL     1       2.126   5.286  17.993  0.00  0.00    +0.000 C 
BRANCH  34  35
ATOM     35  C   UNL     1       1.887   4.347  19.149  0.00  0.00    +0.000 A 
ATOM     36  C   UNL     1       2.225   4.758  20.450  0.00  0.00    +0.000 A 
ATOM     37  C   UNL     1       2.088   3.877  21.523  0.00  0.00    +0.000 A 
ATOM     38  C   UNL     1       1.595   2.591  21.320  0.00  0.00    +0.000 A 
ATOM     39  C   UNL     1       1.199   2.195  20.045  0.00  0.00    +0.000 A 
ATOM     40  C   UNL     1       1.327   3.072  18.973  0.00  0.00    +0.000 A 
ENDBRANCH  34  35
ENDBRANCH   1  34
TORSDOF 8
ENDMDL
MODEL 2
REMARK VINA RESULT:      -9.8      0.877      1.629
REMARK  Name = 
REMARK  8 active torsions:
REMARK  status: ('A' for Active; 'I' for Inactive)
REMARK    1  A    between atoms: C_2  and  C_3
REMARK    2  A    between atoms: C_3  and  C_4
REMARK    3  A    between atoms: N_13  and  C_14
REMARK    4  A    between atoms: C_14  and  C_15
REMARK    5  A    between atoms: C_14  and  C_22
REMARK    6  A    between atoms: C_15  and  C_16
REMARK    7  A    between atoms: C_28  and  C_29
REMARK    8  A    between atoms: N_31  and  C_32
REMARK                            x       y       z     vdW  Elec       q    Type
REMARK                         _______ _______ _______ _____ _____    ______ ____
ROOT
ATOM      1  C   UNL     1       3.043   6.568  18.200  0.00  0.00    +0.000 C 
ENDROOT
BRANCH   1   2
ATOM      2  C   UNL     1       4.465   6.524  17.520  0.00  0.00    +0.000 C 
ATOM      3  O   UNL     1       4.590   7.043  16.395  0.00  0.00    +0.000 OA
ATOM      4  N   UNL     1       5.594   6.015  18.132  0.00  0.00    +0.000 N 
ATOM      5  C   UNL     1       5.738   5.314  19.392  0.00  0.00    +0.000 C 
ATOM      6  C   UNL     1       7.131   5.669  19.870  0.00  0.00    +0.000 C 
ATOM      7  C   UNL     1       7.942   5.817  18.595  0.00  0.00    +0.000 C 
ATOM      8  C   UNL     1       6.917   6.112  17.478  0.00  0.00    +0.000 C 
BRANCH   8   9
ATOM      9  C   UNL     1       7.102   5.106  16.310  0.00  0.00    +0.000 C 
ATOM     10  O   UNL     1       7.771   4.080  16.449  0.00  0.00    +0.000 OA
ATOM     11  N   UNL     1       6.537   5.516  15.114  0.00  0.00    +0.000 N 
ATOM     12  H   UNL     1       6.094   6.435  15.116  0.00  0.00    +0.000 HD
BRANCH  11  13
ATOM     13  C   UNL     1       6.600   4.818  13.890  0.00  0.00    +0.000 A 
ATOM     14  C   UNL     1       7.551   5.096  12.904  0.00  0.00    +0.000 A 
ATOM     15  C   UNL     1       7.550   4.405  11.690  0.00  0.00    +0.000 A 
ATOM     16  C   UNL     1       6.592   3.427  11.450  0.00  0.00    +0.000 A 
ATOM     17  C   UNL     1       5.651   3.125  12.432  0.00  0.00    +0.000 A 
ATOM     18  C   UNL     1       5.661   3.808  13.658  0.00  0.00    +0.000 A 
ENDBRANCH  11  13
ENDBRANCH   8   9
ENDBRANCH   1   2
BRANCH   1  21
ATOM     19  O   UNL     1       1.566   8.399  19.895  0.00  0.00    +0.000 OA
ATOM     20  C   UNL     1       1.744   8.690  18.714  0.00  0.00    +0.000 C 
ATOM     21  N   UNL     1       2.478   7.901  17.859  0.00  0.00    +0.000 N 
ATOM     22  H   UNL     1       2.814   8.317  16.992  0.00  0.00    +0.000 HD
BRANCH  20  23
ATOM     23  C   UNL     1       1.047   9.890  18.069  0.00  0.00    +0.000 C 
BRANCH  23  24
ATOM     24  C   UNL     1       1.221  11.175  18.815  0.00  0.00    +0.000 A 
ATOM     25  C   UNL     1       2.174  12.146  18.570  0.00  0.00    +0.000 A 
ATOM     26  N   UNL     1       2.029  13.138  19.504  0.00  0.00    +0.000 N 
ATOM     27  C   UNL     1       1.011  12.823  20.372  0.00  0.00    +0.000 A 
ATOM     28  C   UNL     1       0.561  13.491  21.517  0.00  0.00    +0.000 A 
ATOM     29  C   UNL     1      -0.521  12.935  22.206  0.00  0.00    +0.000 A 
ATOM     30  C   UNL     1      -1.159  11.789  21.737  0.00  0.00    +0.000 A 
ATOM     31  C   UNL     1      -0.700  11.139  20.587  0.00  0.00    +0.000 A 
ATOM     32  C   UNL     1       0.432  11.641  19.914  0.00  0.00    +0.000 A 
ATOM     33  H   UNL     1       2.597  13.971  19.566  0.00  0.00    +0.000 HD
ENDBRANCH  23  24
ENDBRANCH  20  23
ENDBRANCH   1  21
BRANCH   1  34
ATOM     34  C   UNL     1       2.038   5.443  17.873  0.00  0.00    +0.000 C 
BRANCH  34  35
ATOM     35  C   UNL     1       1.854   4.367  18.912  0.00  0.00    +0.000 A 
ATOM     36  C   UNL     1       1.528   4.732  20.230  0.00  0.00    +0.000 A 
ATOM     37  C   UNL     1       1.431   3.759  21.226  0.00  0.00    +0.000 A 
ATOM     38  C   UNL     1       1.635   2.416  20.921  0.00  0.00    +0.000 A 
ATOM     39  C   UNL     1       1.897   2.037  19.606  0.00  0.00    +0.000 A 
ATOM     40  C   UNL     1       1.987   3.003  18.609  0.00  0.00    +0.000 A 
ENDBRANCH  34  35
ENDBRANCH   1  34
TORSDOF 8
ENDMDL
MODEL 3
REMARK VINA RESULT:      -9.8      0.864      1.956
REMARK  Name = 
REMARK  8 active torsions:
REMARK  status: ('A' for Active; 'I' for Inactive)
REMARK    1  A    between atoms: C_2  and  C_3
REMARK    2  A    between atoms: C_3  and  C_4
REMARK    3  A    between atoms: N_13  and  C_14
REMARK    4  A    between atoms: C_14  and  C_15
REMARK    5  A    between atoms: C_14  and  C_22
REMARK    6  A    between atoms: C_15  and  C_16
REMARK    7  A    between atoms: C_28  and  C_29
REMARK    8  A    between atoms: N_31  and  C_32
REMARK                            x       y       z     vdW  Elec       q    Type
REMARK                         _______ _______ _______ _____ _____    ______ ____
ROOT
ATOM      1  C   UNL     1       3.163   6.592  18.222  0.00  0.00    +0.000 C 
ENDROOT
BRANCH   1   2
ATOM      2  C   UNL     1       4.576   6.534  17.525  0.00  0.00    +0.000 C 
ATOM      3  O   UNL     1       4.694   7.056  16.401  0.00  0.00    +0.000 OA
ATOM      4  N   UNL     1       5.706   6.009  18.121  0.00  0.00    +0.000 N 
ATOM      5  C   UNL     1       5.857   5.300  19.376  0.00  0.00    +0.000 C 
ATOM      6  C   UNL     1       7.259   5.637  19.840  0.00  0.00    +0.000 C 
ATOM      7  C   UNL     1       8.057   5.781  18.556  0.00  0.00    +0.000 C 
ATOM      8  C   UNL     1       7.022   6.093  17.453  0.00  0.00    +0.000 C 
BRANCH   8   9
ATOM      9  C   UNL     1       7.182   5.090  16.278  0.00  0.00    +0.000 C 
ATOM     10  O   UNL     1       7.854   4.065  16.399  0.00  0.00    +0.000 OA
ATOM     11  N   UNL     1       6.589   5.502  15.096  0.00  0.00    +0.000 N 
ATOM     12  H   UNL     1       6.145   6.421  15.110  0.00  0.00    +0.000 HD
BRANCH  11  13
ATOM     13  C   UNL     1       6.625   4.808  13.870  0.00  0.00    +0.000 A 
ATOM     14  C   UNL     1       5.736   3.778  13.551  0.00  0.00    +0.000 A 
ATOM     15  C   UNL     1       5.835   3.092  12.338  0.00  0.00    +0.000 A 
ATOM     16  C   UNL     1       6.832   3.431  11.430  0.00  0.00    +0.000 A 
ATOM     17  C   UNL     1       7.712   4.470  11.725  0.00  0.00    +0.000 A 
ATOM     18  C   UNL     1       7.603   5.169  12.936  0.00  0.00    +0.000 A 
ENDBRANCH  11  13
ENDBRANCH   8   9
ENDBRANCH   1   2
BRANCH   1  21
ATOM     19  O   UNL     1       1.608   8.408  19.863  0.00  0.00    +0.000 OA
ATOM     20  C   UNL     1       1.820   8.698  18.687  0.00  0.00    +0.000 C 
ATOM     21  N   UNL     1       2.592   7.917  17.859  0.00  0.00    +0.000 N 
ATOM     22  H   UNL     1       2.950   8.334  17.002  0.00  0.00    +0.000 HD
BRANCH  20  23
ATOM     23  C   UNL     1       1.130   9.888  18.017  0.00  0.00    +0.000 C 
BRANCH  23  24
ATOM     24  C   UNL     1       1.252  11.174  18.770  0.00  0.00    +0.000 A 
ATOM     25  C   UNL     1       2.157  12.190  18.523  0.00  0.00    +0.000 A 
ATOM     26  N   UNL     1       1.977  13.167  19.466  0.00  0.00    +0.000 N 
ATOM     27  C   UNL     1       0.983  12.800  20.342  0.00  0.00    +0.000 A 
ATOM     28  C   UNL     1       0.515  13.438  21.496  0.00  0.00    +0.000 A 
ATOM     29  C   UNL     1      -0.533  12.828  22.192  0.00  0.00    +0.000 A 
ATOM     30  C   UNL     1      -1.122  11.657  21.721  0.00  0.00    +0.000 A 
ATOM     31  C   UNL     1      -0.646  11.037  20.561  0.00  0.00    +0.000 A 
ATOM     32  C   UNL     1       0.454  11.595  19.881  0.00  0.00    +0.000 A 
ATOM     33  H   UNL     1       2.506  14.025  19.528  0.00  0.00    +0.000 HD
ENDBRANCH  23  24
ENDBRANCH  20  23
ENDBRANCH   1  21
BRANCH   1  34
ATOM     34  C   UNL     1       2.155   5.459  17.932  0.00  0.00    +0.000 C 
BRANCH  34  35
ATOM     35  C   UNL     1       1.986   4.405  18.997  0.00  0.00    +0.000 A 
ATOM     36  C   UNL     1       2.098   3.049  18.645  0.00  0.00    +0.000 A 
ATOM     37  C   UNL     1       1.866   2.054  19.597  0.00  0.00    +0.000 A 
ATOM     38  C   UNL     1       1.544   2.395  20.908  0.00  0.00    +0.000 A 
ATOM     39  C   UNL     1       1.492   3.736  21.281  0.00  0.00    +0.000 A 
ATOM     40  C   UNL     1       1.729   4.730  20.337  0.00  0.00    +0.000 A 
ENDBRANCH  34  35
ENDBRANCH   1  34
TORSDOF 8
ENDMDL
MODEL 4
REMARK VINA RESULT:      -9.7      1.401      2.477
REMARK  Name = 
REMARK  8 active torsions:
REMARK  status: ('A' for Active; 'I' for Inactive)
REMARK    1  A    between atoms: C_2  and  C_3
REMARK    2  A    between atoms: C_3  and  C_4
REMARK    3  A    between atoms: N_13  and  C_14
REMARK    4  A    between atoms: C_14  and  C_15
REMARK    5  A    between atoms: C_14  and  C_22
REMARK    6  A    between atoms: C_15  and  C_16
REMARK    7  A    between atoms: C_28  and  C_29
REMARK    8  A    between atoms: N_31  and  C_32
REMARK                            x       y       z     vdW  Elec       q    Type
REMARK                         _______ _______ _______ _____ _____    ______ ____
ROOT
ATOM      1  C   UNL     1       3.130   6.887  18.232  0.00  0.00    +0.000 C 
ENDROOT
BRANCH   1   2
ATOM      2  C   UNL     1       4.520   6.674  17.520  0.00  0.00    +0.000 C 
ATOM      3  O   UNL     1       4.676   7.164  16.386  0.00  0.00    +0.000 OA
ATOM      4  N   UNL     1       5.599   6.047  18.111  0.00  0.00    +0.000 N 
ATOM      5  C   UNL     1       5.694   5.346  19.377  0.00  0.00    +0.000 C 
ATOM      6  C   UNL     1       7.129   5.545  19.818  0.00  0.00    +0.000 C 
ATOM      7  C   UNL     1       7.920   5.587  18.523  0.00  0.00    +0.000 C 
ATOM      8  C   UNL     1       6.908   5.985  17.427  0.00  0.00    +0.000 C 
BRANCH   8   9
ATOM      9  C   UNL     1       6.949   4.953  16.267  0.00  0.00    +0.000 C 
ATOM     10  O   UNL     1       7.345   3.801  16.451  0.00  0.00    +0.000 OA
ATOM     11  N   UNL     1       6.597   5.472  15.033  0.00  0.00    +0.000 N 
ATOM     12  H   UNL     1       6.383   6.470  15.007  0.00  0.00    +0.000 HD
BRANCH  11  13
ATOM     13  C   UNL     1       6.597   4.768  13.812  0.00  0.00    +0.000 A 
ATOM     14  C   UNL     1       7.544   4.987  12.806  0.00  0.00    +0.000 A 
ATOM     15  C   UNL     1       7.480   4.293  11.596  0.00  0.00    +0.000 A 
ATOM     16  C   UNL     1       6.462   3.371  11.378  0.00  0.00    +0.000 A 
ATOM     17  C   UNL     1       5.524   3.127  12.379  0.00  0.00    +0.000 A 
ATOM     18  C   UNL     1       5.597   3.813  13.601  0.00  0.00    +0.000 A 
ENDBRANCH  11  13
ENDBRANCH   8   9
ENDBRANCH   1   2
BRANCH   1  21
ATOM     19  O   UNL     1       1.393   8.661  19.729  0.00  0.00    +0.000 OA
ATOM     20  C   UNL     1       1.854   9.043  18.655  0.00  0.00    +0.000 C 
ATOM     21  N   UNL     1       2.726   8.283  17.912  0.00  0.00    +0.000 N 
ATOM     22  H   UNL     1       3.273   8.748  17.190  0.00  0.00    +0.000 HD
BRANCH  20  23
ATOM     23  C   UNL     1       1.385  10.343  17.997  0.00  0.00    +0.000 C 
BRANCH  23  24
ATOM     24  C   UNL     1       0.115  10.894  18.561  0.00  0.00    +0.000 A 
ATOM     25  C   UNL     1      -0.008  11.701  19.678  0.00  0.00    +0.000 A 
ATOM     26  N   UNL     1      -1.339  11.944  19.889  0.00  0.00    +0.000 N 
ATOM     27  C   UNL     1      -2.094  11.291  18.944  0.00  0.00    +0.000 A 
ATOM     28  C   UNL     1      -3.484  11.185  18.813  0.00  0.00    +0.000 A 
ATOM     29  C   UNL     1      -3.976  10.456  17.727  0.00  0.00    +0.000 A 
ATOM     30  C   UNL     1      -3.115   9.901  16.784  0.00  0.00    +0.000 A 
ATOM     31  C   UNL     1      -1.729  10.023  16.927  0.00  0.00    +0.000 A 
ATOM     32  C   UNL     1      -1.206  10.695  18.050  0.00  0.00    +0.000 A 
ATOM     33  H   UNL     1      -1.720  12.502  20.641  0.00  0.00    +0.000 HD
ENDBRANCH  23  24
ENDBRANCH  20  23
ENDBRANCH   1  21
BRANCH   1  34
ATOM     34  C   UNL     1       1.988   5.897  17.921  0.00  0.00    +0.000 C 
BRANCH  34  35
ATOM     35  C   UNL     1       1.837   4.714  18.844  0.00  0.00    +0.000 A 
ATOM     36  C   UNL     1       1.746   3.422  18.297  0.00  0.00    +0.000 A 
ATOM     37  C   UNL     1       1.526   2.322  19.126  0.00  0.00    +0.000 A 
ATOM     38  C   UNL     1       1.417   2.488  20.504  0.00  0.00    +0.000 A 
ATOM     39  C   UNL     1       1.569   3.756  21.062  0.00  0.00    +0.000 A 
ATOM     40  C   UNL     1       1.795   4.855  20.239  0.00  0.00    +0.000 A 
ENDBRANCH  34  35
ENDBRANCH   1  34
TORSDOF 8
ENDMDL
MODEL 5
REMARK VINA RESULT:      -9.6      1.442      2.142
REMARK  Name = 
REMARK  8 active torsions:
REMARK  status: ('A' for Active; 'I' for Inactive)
REMARK    1  A    between atoms: C_2  and  C_3
REMARK    2  A    between atoms: C_3  and  C_4
REMARK    3  A    between atoms: N_13  and  C_14
REMARK    4  A    between atoms: C_14  and  C_15
REMARK    5  A    between atoms: C_14  and  C_22
REMARK    6  A    between atoms: C_15  and  C_16
REMARK    7  A    between atoms: C_28  and  C_29
REMARK    8  A    between atoms: N_31  and  C_32
REMARK                            x       y       z     vdW  Elec       q    Type
REMARK                         _______ _______ _______ _____ _____    ______ ____
ROOT
ATOM      1  C   UNL     1       3.114   6.763  18.214  0.00  0.00    +0.000 C 
ENDROOT
BRANCH   1   2
ATOM      2  C   UNL     1       4.526   6.628  17.525  0.00  0.00    +0.000 C 
ATOM      3  O   UNL     1       4.678   7.139  16.400  0.00  0.00    +0.000 OA
ATOM      4  N   UNL     1       5.624   6.047  18.130  0.00  0.00    +0.000 N 
ATOM      5  C   UNL     1       5.730   5.336  19.389  0.00  0.00    +0.000 C 
ATOM      6  C   UNL     1       7.145   5.601  19.859  0.00  0.00    +0.000 C 
ATOM      7  C   UNL     1       7.956   5.698  18.579  0.00  0.00    +0.000 C 
ATOM      8  C   UNL     1       6.946   6.059  17.469  0.00  0.00    +0.000 C 
BRANCH   8   9
ATOM      9  C   UNL     1       7.059   5.044  16.299  0.00  0.00    +0.000 C 
ATOM     10  O   UNL     1       7.753   4.031  16.396  0.00  0.00    +0.000 OA
ATOM     11  N   UNL     1       6.399   5.433  15.145  0.00  0.00    +0.000 N 
ATOM     12  H   UNL     1       5.942   6.346  15.172  0.00  0.00    +0.000 HD
BRANCH  11  13
ATOM     13  C   UNL     1       6.382   4.725  13.927  0.00  0.00    +0.000 A 
ATOM     14  C   UNL     1       5.352   3.848  13.570  0.00  0.00    +0.000 A 
ATOM     15  C   UNL     1       5.398   3.138  12.368  0.00  0.00    +0.000 A 
ATOM     16  C   UNL     1       6.480   3.297  11.510  0.00  0.00    +0.000 A 
ATOM     17  C   UNL     1       7.503   4.183  11.842  0.00  0.00    +0.000 A 
ATOM     18  C   UNL     1       7.450   4.908  13.042  0.00  0.00    +0.000 A 
ENDBRANCH  11  13
ENDBRANCH   8   9
ENDBRANCH   1   2
BRANCH   1  21
ATOM     19  O   UNL     1       1.508   8.496  19.894  0.00  0.00    +0.000 OA
ATOM     20  C   UNL     1       1.870   8.902  18.792  0.00  0.00    +0.000 C 
ATOM     21  N   UNL     1       2.676   8.162  17.959  0.00  0.00    +0.000 N 
ATOM     22  H   UNL     1       3.156   8.645  17.202  0.00  0.00    +0.000 HD
BRANCH  20  23
ATOM     23  C   UNL     1       1.340  10.211  18.204  0.00  0.00    +0.000 C 
BRANCH  23  24
ATOM     24  C   UNL     1      -0.145  10.367  18.291  0.00  0.00    +0.000 A 
ATOM     25  C   UNL     1      -1.089   9.681  17.549  0.00  0.00    +0.000 A 
ATOM     26  N   UNL     1      -2.330  10.152  17.891  0.00  0.00    +0.000 N 
ATOM     27  C   UNL     1      -2.215  11.151  18.828  0.00  0.00    +0.000 A 
ATOM     28  C   UNL     1      -3.195  11.967  19.403  0.00  0.00    +0.000 A 
ATOM     29  C   UNL     1      -2.779  12.903  20.355  0.00  0.00    +0.000 A 
ATOM     30  C   UNL     1      -1.447  12.981  20.751  0.00  0.00    +0.000 A 
ATOM     31  C   UNL     1      -0.482  12.153  20.170  0.00  0.00    +0.000 A 
ATOM     32  C   UNL     1      -0.864  11.249  19.159  0.00  0.00    +0.000 A 
ATOM     33  H   UNL     1      -3.205   9.831  17.500  0.00  0.00    +0.000 HD
ENDBRANCH  23  24
ENDBRANCH  20  23
ENDBRANCH   1  21
BRANCH   1  34
ATOM     34  C   UNL     1       2.008   5.760  17.822  0.00  0.00    +0.000 C 
BRANCH  34  35
ATOM     35  C   UNL     1       1.823   4.561  18.719  0.00  0.00    +0.000 A 
ATOM     36  C   UNL     1       1.515   4.759  20.076  0.00  0.00    +0.000 A 
ATOM     37  C   UNL     1       1.418   3.669  20.941  0.00  0.00    +0.000 A 
ATOM     38  C   UNL     1       1.604   2.373  20.465  0.00  0.00    +0.000 A 
ATOM     39  C   UNL     1       1.849   2.162  19.110  0.00  0.00    +0.000 A 
ATOM     40  C   UNL     1       1.939   3.246  18.243  0.00  0.00    +0.000 A 
ENDBRANCH  34  35
ENDBRANCH   1  34
TORSDOF 8
ENDMDL
MODEL 6
REMARK VINA RESULT:      -9.6      0.653      1.140
REMARK  Name = 
REMARK  8 active torsions:
REMARK  status: ('A' for Active; 'I' for Inactive)
REMARK    1  A    between atoms: C_2  and  C_3
REMARK    2  A    between atoms: C_3  and  C_4
REMARK    3  A    between atoms: N_13  and  C_14
REMARK    4  A    between atoms: C_14  and  C_15
REMARK    5  A    between atoms: C_14  and  C_22
REMARK    6  A    between atoms: C_15  and  C_16
REMARK    7  A    between atoms: C_28  and  C_29
REMARK    8  A    between atoms: N_31  and  C_32
REMARK                            x       y       z     vdW  Elec       q    Type
REMARK                         _______ _______ _______ _____ _____    ______ ____
ROOT
ATOM      1  C   UNL     1       3.195   6.680  18.232  0.00  0.00    +0.000 C 
ENDROOT
BRANCH   1   2
ATOM      2  C   UNL     1       4.614   6.590  17.551  0.00  0.00    +0.000 C 
ATOM      3  O   UNL     1       4.758   7.117  16.432  0.00  0.00    +0.000 OA
ATOM      4  N   UNL     1       5.724   6.035  18.157  0.00  0.00    +0.000 N 
ATOM      5  C   UNL     1       5.841   5.314  19.410  0.00  0.00    +0.000 C 
ATOM      6  C   UNL     1       7.246   5.613  19.892  0.00  0.00    +0.000 C 
ATOM      7  C   UNL     1       8.062   5.746  18.619  0.00  0.00    +0.000 C 
ATOM      8  C   UNL     1       7.049   6.089  17.505  0.00  0.00    +0.000 C 
BRANCH   8   9
ATOM      9  C   UNL     1       7.198   5.091  16.326  0.00  0.00    +0.000 C 
ATOM     10  O   UNL     1       7.844   4.049  16.449  0.00  0.00    +0.000 OA
ATOM     11  N   UNL     1       6.629   5.524  15.140  0.00  0.00    +0.000 N 
ATOM     12  H   UNL     1       6.207   6.453  15.155  0.00  0.00    +0.000 HD
BRANCH  11  13
ATOM     13  C   UNL     1       6.662   4.836  13.910  0.00  0.00    +0.000 A 
ATOM     14  C   UNL     1       7.595   5.115  12.907  0.00  0.00    +0.000 A 
ATOM     15  C   UNL     1       7.565   4.434  11.688  0.00  0.00    +0.000 A 
ATOM     16  C   UNL     1       6.594   3.466  11.459  0.00  0.00    +0.000 A 
ATOM     17  C   UNL     1       5.671   3.162  12.458  0.00  0.00    +0.000 A 
ATOM     18  C   UNL     1       5.711   3.834  13.688  0.00  0.00    +0.000 A 
ENDBRANCH  11  13
ENDBRANCH   8   9
ENDBRANCH   1   2
BRANCH   1  21
ATOM     19  O   UNL     1       1.582   8.536  19.769  0.00  0.00    +0.000 OA
ATOM     20  C   UNL     1       1.831   8.793  18.592  0.00  0.00    +0.000 C 
ATOM     21  N   UNL     1       2.631   7.991  17.812  0.00  0.00    +0.000 N 
ATOM     22  H   UNL     1       3.015   8.385  16.955  0.00  0.00    +0.000 HD
BRANCH  20  23
ATOM     23  C   UNL     1       1.158   9.959  17.866  0.00  0.00    +0.000 C 
BRANCH  23  24
ATOM     24  C   UNL     1       0.250  10.778  18.727  0.00  0.00    +0.000 A 
ATOM     25  C   UNL     1      -0.926  10.355  19.318  0.00  0.00    +0.000 A 
ATOM     26  N   UNL     1      -1.483  11.418  19.978  0.00  0.00    +0.000 N 
ATOM     27  C   UNL     1      -0.704  12.539  19.812  0.00  0.00    +0.000 A 
ATOM     28  C   UNL     1      -0.915  13.857  20.232  0.00  0.00    +0.000 A 
ATOM     29  C   UNL     1       0.072  14.798  19.926  0.00  0.00    +0.000 A 
ATOM     30  C   UNL     1       1.244  14.424  19.274  0.00  0.00    +0.000 A 
ATOM     31  C   UNL     1       1.441  13.100  18.867  0.00  0.00    +0.000 A 
ATOM     32  C   UNL     1       0.431  12.147  19.103  0.00  0.00    +0.000 A 
ATOM     33  H   UNL     1      -2.351  11.396  20.497  0.00  0.00    +0.000 HD
ENDBRANCH  23  24
ENDBRANCH  20  23
ENDBRANCH   1  21
BRANCH   1  34
ATOM     34  C   UNL     1       2.186   5.539  17.976  0.00  0.00    +0.000 C 
BRANCH  34  35
ATOM     35  C   UNL     1       2.036   4.503  19.062  0.00  0.00    +0.000 A 
ATOM     36  C   UNL     1       1.862   3.154  18.705  0.00  0.00    +0.000 A 
ATOM     37  C   UNL     1       1.641   2.190  19.690  0.00  0.00    +0.000 A 
ATOM     38  C   UNL     1       1.613   2.549  21.034  0.00  0.00    +0.000 A 
ATOM     39  C   UNL     1       1.846   3.873  21.402  0.00  0.00    +0.000 A 
ATOM     40  C   UNL     1       2.074   4.836  20.424  0.00  0.00    +0.000 A 
ENDBRANCH  34  35
ENDBRANCH   1  34
TORSDOF 8
ENDMDL
MODEL 7
REMARK VINA RESULT:      -9.5      1.276      2.275
REMARK  Name = 
REMARK  8 active torsions:
REMARK  status: ('A' for Active; 'I' for Inactive)
REMARK    1  A    between atoms: C_2  and  C_3
REMARK    2  A    between atoms: C_3  and  C_4
REMARK    3  A    between atoms: N_13  and  C_14
REMARK    4  A    between atoms: C_14  and  C_15
REMARK    5  A    between atoms: C_14  and  C_22
REMARK    6  A    between atoms: C_15  and  C_16
REMARK    7  A    between atoms: C_28  and  C_29
REMARK    8  A    between atoms: N_31  and  C_32
REMARK                            x       y       z     vdW  Elec       q    Type
REMARK                         _______ _______ _______ _____ _____    ______ ____
ROOT
ATOM      1  C   UNL     1       3.102   6.744  18.154  0.00  0.00    +0.000 C 
ENDROOT
BRANCH   1   2
ATOM      2  C   UNL     1       4.527   6.626  17.491  0.00  0.00    +0.000 C 
ATOM      3  O   UNL     1       4.696   7.148  16.373  0.00  0.00    +0.000 OA
ATOM      4  N   UNL     1       5.619   6.049  18.110  0.00  0.00    +0.000 N 
ATOM      5  C   UNL     1       5.707   5.328  19.365  0.00  0.00    +0.000 C 
ATOM      6  C   UNL     1       7.111   5.600  19.863  0.00  0.00    +0.000 C 
ATOM      7  C   UNL     1       7.945   5.715  18.600  0.00  0.00    +0.000 C 
ATOM      8  C   UNL     1       6.953   6.077  17.474  0.00  0.00    +0.000 C 
BRANCH   8   9
ATOM      9  C   UNL     1       7.096   5.074  16.297  0.00  0.00    +0.000 C 
ATOM     10  O   UNL     1       7.759   4.042  16.414  0.00  0.00    +0.000 OA
ATOM     11  N   UNL     1       6.500   5.493  15.120  0.00  0.00    +0.000 N 
ATOM     12  H   UNL     1       6.065   6.416  15.137  0.00  0.00    +0.000 HD
BRANCH  11  13
ATOM     13  C   UNL     1       6.523   4.799  13.893  0.00  0.00    +0.000 A 
ATOM     14  C   UNL     1       5.568   3.840  13.542  0.00  0.00    +0.000 A 
ATOM     15  C   UNL     1       5.653   3.150  12.331  0.00  0.00    +0.000 A 
ATOM     16  C   UNL     1       6.701   3.413  11.456  0.00  0.00    +0.000 A 
ATOM     17  C   UNL     1       7.649   4.382  11.782  0.00  0.00    +0.000 A 
ATOM     18  C   UNL     1       7.554   5.086  12.992  0.00  0.00    +0.000 A 
ENDBRANCH  11  13
ENDBRANCH   8   9
ENDBRANCH   1   2
BRANCH   1  21
ATOM     19  O   UNL     1       1.485   8.477  19.825  0.00  0.00    +0.000 OA
ATOM     20  C   UNL     1       1.840   8.876  18.718  0.00  0.00    +0.000 C 
ATOM     21  N   UNL     1       2.650   8.137  17.889  0.00  0.00    +0.000 N 
ATOM     22  H   UNL     1       3.123   8.618  17.126  0.00  0.00    +0.000 HD
BRANCH  20  23
ATOM     23  C   UNL     1       1.295  10.175  18.121  0.00  0.00    +0.000 C 
BRANCH  23  24
ATOM     24  C   UNL     1       0.507  11.009  19.079  0.00  0.00    +0.000 A 
ATOM     25  C   UNL     1       0.975  11.588  20.245  0.00  0.00    +0.000 A 
ATOM     26  N   UNL     1      -0.071  12.223  20.861  0.00  0.00    +0.000 N 
ATOM     27  C   UNL     1      -1.223  12.052  20.131  0.00  0.00    +0.000 A 
ATOM     28  C   UNL     1      -2.536  12.449  20.409  0.00  0.00    +0.000 A 
ATOM     29  C   UNL     1      -3.517  12.145  19.461  0.00  0.00    +0.000 A 
ATOM     30  C   UNL     1      -3.188  11.518  18.262  0.00  0.00    +0.000 A 
ATOM     31  C   UNL     1      -1.869  11.134  17.998  0.00  0.00    +0.000 A 
ATOM     32  C   UNL     1      -0.874  11.368  18.968  0.00  0.00    +0.000 A 
ATOM     33  H   UNL     1      -0.016  12.727  21.735  0.00  0.00    +0.000 HD
ENDBRANCH  23  24
ENDBRANCH  20  23
ENDBRANCH   1  21
BRANCH   1  34
ATOM     34  C   UNL     1       2.017   5.725  17.745  0.00  0.00    +0.000 C 
BRANCH  34  35
ATOM     35  C   UNL     1       2.230   4.293  18.166  0.00  0.00    +0.000 A 
ATOM     36  C   UNL     1       1.698   3.850  19.390  0.00  0.00    +0.000 A 
ATOM     37  C   UNL     1       1.950   2.552  19.837  0.00  0.00    +0.000 A 
ATOM     38  C   UNL     1       2.711   1.677  19.067  0.00  0.00    +0.000 A 
ATOM     39  C   UNL     1       3.190   2.086  17.824  0.00  0.00    +0.000 A 
ATOM     40  C   UNL     1       2.935   3.377  17.372  0.00  0.00    +0.000 A 
ENDBRANCH  34  35
ENDBRANCH   1  34
TORSDOF 8
ENDMDL
MODEL 8
REMARK VINA RESULT:      -9.5      1.410      2.494
REMARK  Name = 
REMARK  8 active torsions:
REMARK  status: ('A' for Active; 'I' for Inactive)
REMARK    1  A    between atoms: C_2  and  C_3
REMARK    2  A    between atoms: C_3  and  C_4
REMARK    3  A    between atoms: N_13  and  C_14
REMARK    4  A    between atoms: C_14  and  C_15
REMARK    5  A    between atoms: C_14  and  C_22
REMARK    6  A    between atoms: C_15  and  C_16
REMARK    7  A    between atoms: C_28  and  C_29
REMARK    8  A    between atoms: N_31  and  C_32
REMARK                            x       y       z     vdW  Elec       q    Type
REMARK                         _______ _______ _______ _____ _____    ______ ____
ROOT
ATOM      1  C   UNL     1       3.038   6.948  18.240  0.00  0.00    +0.000 C 
ENDROOT
BRANCH   1   2
ATOM      2  C   UNL     1       4.413   6.712  17.507  0.00  0.00    +0.000 C 
ATOM      3  O   UNL     1       4.553   7.182  16.362  0.00  0.00    +0.000 OA
ATOM      4  N   UNL     1       5.498   6.086  18.090  0.00  0.00    +0.000 N 
ATOM      5  C   UNL     1       5.609   5.406  19.365  0.00  0.00    +0.000 C 
ATOM      6  C   UNL     1       7.054   5.601  19.777  0.00  0.00    +0.000 C 
ATOM      7  C   UNL     1       7.822   5.615  18.468  0.00  0.00    +0.000 C 
ATOM      8  C   UNL     1       6.794   6.003  17.383  0.00  0.00    +0.000 C 
BRANCH   8   9
ATOM      9  C   UNL     1       6.806   4.951  16.241  0.00  0.00    +0.000 C 
ATOM     10  O   UNL     1       7.093   3.773  16.460  0.00  0.00    +0.000 OA
ATOM     11  N   UNL     1       6.563   5.477  14.983  0.00  0.00    +0.000 N 
ATOM     12  H   UNL     1       6.436   6.489  14.934  0.00  0.00    +0.000 HD
BRANCH  11  13
ATOM     13  C   UNL     1       6.566   4.755  13.773  0.00  0.00    +0.000 A 
ATOM     14  C   UNL     1       5.638   3.750  13.484  0.00  0.00    +0.000 A 
ATOM     15  C   UNL     1       5.704   3.034  12.286  0.00  0.00    +0.000 A 
ATOM     16  C   UNL     1       6.705   3.316  11.364  0.00  0.00    +0.000 A 
ATOM     17  C   UNL     1       7.624   4.329  11.629  0.00  0.00    +0.000 A 
ATOM     18  C   UNL     1       7.549   5.059  12.824  0.00  0.00    +0.000 A 
ENDBRANCH  11  13
ENDBRANCH   8   9
ENDBRANCH   1   2
BRANCH   1  21
ATOM     19  O   UNL     1       1.284   8.685  19.763  0.00  0.00    +0.000 OA
ATOM     20  C   UNL     1       1.804   9.114  18.735  0.00  0.00    +0.000 C 
ATOM     21  N   UNL     1       2.688   8.372  17.986  0.00  0.00    +0.000 N 
ATOM     22  H   UNL     1       3.281   8.862  17.319  0.00  0.00    +0.000 HD
BRANCH  20  23
ATOM     23  C   UNL     1       1.404  10.464  18.136  0.00  0.00    +0.000 C 
BRANCH  23  24
ATOM     24  C   UNL     1       0.110  11.006  18.653  0.00  0.00    +0.000 A 
ATOM     25  C   UNL     1      -0.055  11.853  19.734  0.00  0.00    +0.000 A 
ATOM     26  N   UNL     1      -1.396  12.071  19.910  0.00  0.00    +0.000 N 
ATOM     27  C   UNL     1      -2.116  11.364  18.976  0.00  0.00    +0.000 A 
ATOM     28  C   UNL     1      -3.499  11.219  18.823  0.00  0.00    +0.000 A 
ATOM     29  C   UNL     1      -3.952  10.436  17.756  0.00  0.00    +0.000 A 
ATOM     30  C   UNL     1      -3.059   9.867  16.853  0.00  0.00    +0.000 A 
ATOM     31  C   UNL     1      -1.680  10.028  17.018  0.00  0.00    +0.000 A 
ATOM     32  C   UNL     1      -1.196  10.755  18.124  0.00  0.00    +0.000 A 
ATOM     33  H   UNL     1      -1.805  12.649  20.631  0.00  0.00    +0.000 HD
ENDBRANCH  23  24
ENDBRANCH  20  23
ENDBRANCH   1  21
BRANCH   1  34
ATOM     34  C   UNL     1       1.854   6.020  17.894  0.00  0.00    +0.000 C 
BRANCH  34  35
ATOM     35  C   UNL     1       1.704   4.767  18.720  0.00  0.00    +0.000 A 
ATOM     36  C   UNL     1       1.545   4.877  20.113  0.00  0.00    +0.000 A 
ATOM     37  C   UNL     1       1.484   3.731  20.906  0.00  0.00    +0.000 A 
ATOM     38  C   UNL     1       1.558   2.467  20.325  0.00  0.00    +0.000 A 
ATOM     39  C   UNL     1       1.652   2.347  18.940  0.00  0.00    +0.000 A 
ATOM     40  C   UNL     1       1.706   3.487  18.146  0.00  0.00    +0.000 A 
ENDBRANCH  34  35
ENDBRANCH   1  34
TORSDOF 8
ENDMDL
MODEL 9
REMARK VINA RESULT:      -9.4      1.041      2.364
REMARK  Name = 
REMARK  8 active torsions:
REMARK  status: ('A' for Active; 'I' for Inactive)
REMARK    1  A    between atoms: C_2  and  C_3
REMARK    2  A    between atoms: C_3  and  C_4
REMARK    3  A    between atoms: N_13  and  C_14
REMARK    4  A    between atoms: C_14  and  C_15
REMARK    5  A    between atoms: C_14  and  C_22
REMARK    6  A    between atoms: C_15  and  C_16
REMARK    7  A    between atoms: C_28  and  C_29
REMARK    8  A    between atoms: N_31  and  C_32
REMARK                            x       y       z     vdW  Elec       q    Type
REMARK                         _______ _______ _______ _____ _____    ______ ____
ROOT
ATOM      1  C   UNL     1       3.068   6.360  18.300  0.00  0.00    +0.000 C 
ENDROOT
BRANCH   1   2
ATOM      2  C   UNL     1       4.459   6.418  17.561  0.00  0.00    +0.000 C 
ATOM      3  O   UNL     1       4.498   6.939  16.431  0.00  0.00    +0.000 OA
ATOM      4  N   UNL     1       5.648   5.999  18.125  0.00  0.00    +0.000 N 
ATOM      5  C   UNL     1       5.897   5.316  19.380  0.00  0.00    +0.000 C 
ATOM      6  C   UNL     1       7.278   5.777  19.798  0.00  0.00    +0.000 C 
ATOM      7  C   UNL     1       8.021   5.979  18.489  0.00  0.00    +0.000 C 
ATOM      8  C   UNL     1       6.931   6.190  17.416  0.00  0.00    +0.000 C 
BRANCH   8   9
ATOM      9  C   UNL     1       7.142   5.195  16.243  0.00  0.00    +0.000 C 
ATOM     10  O   UNL     1       7.918   4.243  16.344  0.00  0.00    +0.000 OA
ATOM     11  N   UNL     1       6.463   5.532  15.085  0.00  0.00    +0.000 N 
ATOM     12  H   UNL     1       5.931   6.403  15.110  0.00  0.00    +0.000 HD
BRANCH  11  13
ATOM     13  C   UNL     1       6.519   4.831  13.863  0.00  0.00    +0.000 A 
ATOM     14  C   UNL     1       5.617   3.818  13.525  0.00  0.00    +0.000 A 
ATOM     15  C   UNL     1       5.735   3.124  12.318  0.00  0.00    +0.000 A 
ATOM     16  C   UNL     1       6.763   3.437  11.436  0.00  0.00    +0.000 A 
ATOM     17  C   UNL     1       7.656   4.459  11.750  0.00  0.00    +0.000 A 
ATOM     18  C   UNL     1       7.528   5.167  12.954  0.00  0.00    +0.000 A 
ENDBRANCH  11  13
ENDBRANCH   8   9
ENDBRANCH   1   2
BRANCH   1  21
ATOM     19  O   UNL     1       2.105   8.498  20.006  0.00  0.00    +0.000 OA
ATOM     20  C   UNL     1       1.889   8.555  18.797  0.00  0.00    +0.000 C 
ATOM     21  N   UNL     1       2.357   7.609  17.916  0.00  0.00    +0.000 N 
ATOM     22  H   UNL     1       2.383   7.846  16.925  0.00  0.00    +0.000 HD
BRANCH  20  23
ATOM     23  C   UNL     1       0.965   9.616  18.196  0.00  0.00    +0.000 C 
BRANCH  23  24
ATOM     24  C   UNL     1       0.470  10.629  19.179  0.00  0.00    +0.000 A 
ATOM     25  C   UNL     1       0.431  11.999  18.999  0.00  0.00    +0.000 A 
ATOM     26  N   UNL     1      -0.039  12.571  20.152  0.00  0.00    +0.000 N 
ATOM     27  C   UNL     1      -0.289  11.601  21.093  0.00  0.00    +0.000 A 
ATOM     28  C   UNL     1      -0.698  11.719  22.426  0.00  0.00    +0.000 A 
ATOM     29  C   UNL     1      -0.887  10.539  23.151  0.00  0.00    +0.000 A 
ATOM     30  C   UNL     1      -0.725   9.293  22.550  0.00  0.00    +0.000 A 
ATOM     31  C   UNL     1      -0.322   9.194  21.214  0.00  0.00    +0.000 A 
ATOM     32  C   UNL     1      -0.058  10.369  20.483  0.00  0.00    +0.000 A 
ATOM     33  H   UNL     1      -0.168  13.562  20.303  0.00  0.00    +0.000 HD
ENDBRANCH  23  24
ENDBRANCH  20  23
ENDBRANCH   1  21
BRANCH   1  34
ATOM     34  C   UNL     1       2.170   5.124  18.078  0.00  0.00    +0.000 C 
BRANCH  34  35
ATOM     35  C   UNL     1       1.962   4.209  19.258  0.00  0.00    +0.000 A 
ATOM     36  C   UNL     1       1.321   2.972  19.064  0.00  0.00    +0.000 A 
ATOM     37  C   UNL     1       1.046   2.145  20.154  0.00  0.00    +0.000 A 
ATOM     38  C   UNL     1       1.422   2.524  21.439  0.00  0.00    +0.000 A 
ATOM     39  C   UNL     1       2.112   3.719  21.634  0.00  0.00    +0.000 A 
ATOM     40  C   UNL     1       2.395   4.543  20.550  0.00  0.00    +0.000 A 
ENDBRANCH  34  35
ENDBRANCH   1  34
TORSDOF 8
ENDMDL
