MODEL 1
REMARK VINA RESULT:      -9.3      0.000      0.000
REMARK  Name = 
REMARK  7 active torsions:
REMARK  status: ('A' for Active; 'I' for Inactive)
REMARK    1  A    between atoms: C_1  and  C_2
REMARK    2  A    between atoms: N_10  and  C_11
REMARK    3  A    between atoms: C_11  and  C_12
REMARK    4  A    between atoms: C_12  and  C_13
REMARK    5  A    between atoms: C_23  and  S_24
REMARK    6  A    between atoms: S_24  and  C_25
REMARK    7  A    between atoms: C_25  and  C_26
REMARK                            x       y       z     vdW  Elec       q    Type
REMARK                         _______ _______ _______ _____ _____    ______ ____
ROOT
ATOM      1  C   UNL     1       2.317   8.717  18.017  0.00  0.00    +0.000 A 
ATOM      2  N   UNL     1       3.263   8.217  17.135  0.00  0.00    +0.000 NA
ATOM      3  C   UNL     1       3.556   7.032  17.647  0.00  0.00    +0.000 A 
ATOM      4  C   UNL     1       4.634   6.078  17.448  0.00  0.00    +0.000 A 
ATOM      5  C   UNL     1       5.015   5.507  16.241  0.00  0.00    +0.000 A 
ATOM      6  C   UNL     1       6.070   4.580  16.231  0.00  0.00    +0.000 A 
ATOM      7  C   UNL     1       6.824   4.356  17.388  0.00  0.00    +0.000 A 
ATOM      8  C   UNL     1       6.391   4.872  18.604  0.00  0.00    +0.000 A 
ATOM      9  C   UNL     1       5.186   5.570  18.646  0.00  0.00    +0.000 A 
ATOM     10  N   UNL     1       4.371   5.428  19.810  0.00  0.00    +0.000 NA
ATOM     11  C   UNL     1       3.177   5.947  19.784  0.00  0.00    +0.000 A 
ATOM     12  N   UNL     1       2.819   6.851  18.786  0.00  0.00    +0.000 N 
ATOM     13  N   UNL     1       1.913   7.835  18.943  0.00  0.00    +0.000 NA
ENDROOT
BRANCH   1  14
ATOM     14  C   UNL     1       1.864  10.142  18.067  0.00  0.00    +0.000 C 
BRANCH  14  15
ATOM     15  C   UNL     1       0.338  10.248  18.250  0.00  0.00    +0.000 C 
BRANCH  15  25
ATOM     16  C   UNL     1      -0.545  13.177  18.157  0.00  0.00    +0.000 C 
ATOM     17  C   UNL     1      -0.511  12.334  19.379  0.00  0.00    +0.000 A 
ATOM     18  N   UNL     1      -0.906  12.727  20.572  0.00  0.00    +0.000 NA
ATOM     19  C   UNL     1      -0.783  11.630  21.378  0.00  0.00    +0.000 A 
ATOM     20  C   UNL     1      -1.113  11.501  22.748  0.00  0.00    +0.000 A 
ATOM     21  C   UNL     1      -0.929  10.256  23.363  0.00  0.00    +0.000 A 
ATOM     22  C   UNL     1      -0.435   9.172  22.638  0.00  0.00    +0.000 A 
ATOM     23  C   UNL     1      -0.097   9.287  21.286  0.00  0.00    +0.000 A 
ATOM     24  C   UNL     1      -0.281  10.540  20.682  0.00  0.00    +0.000 A 
ATOM     25  N   UNL     1      -0.085  11.023  19.403  0.00  0.00    +0.000 N 
ENDBRANCH  15  25
ENDBRANCH  14  15
ENDBRANCH   1  14
BRANCH  11  26
ATOM     26  S   UNL     1       2.016   5.456  21.017  0.00  0.00    +0.000 S 
BRANCH  26  27
ATOM     27  C   UNL     1       1.102   4.131  20.122  0.00  0.00    +0.000 C 
BRANCH  27  28
ATOM     28  C   UNL     1       1.984   3.349  19.177  0.00  0.00    +0.000 A 
ATOM     29  C   UNL     1       2.814   2.323  19.658  0.00  0.00    +0.000 A 
ATOM     30  C   UNL     1       3.610   1.571  18.788  0.00  0.00    +0.000 A 
ATOM     31  C   UNL     1       3.569   1.824  17.417  0.00  0.00    +0.000 A 
ATOM     32  C   UNL     1       2.730   2.818  16.920  0.00  0.00    +0.000 A 
ATOM     33  C   UNL     1       1.943   3.569  17.797  0.00  0.00    +0.000 A 
ATOM     34  F   UNL     1       1.124   4.498  17.287  0.00  0.00    +0.000 F 
ENDBRANCH  27  28
ENDBRANCH  26  27
ENDBRANCH  11  26
TORSDOF 6
ENDMDL
MODEL 2
REMARK VINA RESULT:      -9.2      0.825      1.166
REMARK  Name = 
REMARK  7 active torsions:
REMARK  status: ('A' for Active; 'I' for Inactive)
REMARK    1  A    between atoms: C_1  and  C_2
REMARK    2  A    between atoms: N_10  and  C_11
REMARK    3  A    between atoms: C_11  and  C_12
REMARK    4  A    between atoms: C_12  and  C_13
REMARK    5  A    between atoms: C_23  and  S_24
REMARK    6  A    between atoms: S_24  and  C_25
REMARK    7  A    between atoms: C_25  and  C_26
REMARK                            x       y       z     vdW  Elec       q    Type
REMARK                         _______ _______ _______ _____ _____    ______ ____
ROOT
ATOM      1  C   UNL     1       2.244   8.766  17.915  0.00  0.00    +0.000 A 
ATOM      2  N   UNL     1       3.189   8.248  17.043  0.00  0.00    +0.000 NA
ATOM      3  C   UNL     1       3.471   7.068  17.571  0.00  0.00    +0.000 A 
ATOM      4  C   UNL     1       4.544   6.103  17.388  0.00  0.00    +0.000 A 
ATOM      5  C   UNL     1       4.923   5.513  16.190  0.00  0.00    +0.000 A 
ATOM      6  C   UNL     1       5.971   4.578  16.195  0.00  0.00    +0.000 A 
ATOM      7  C   UNL     1       6.721   4.364  17.357  0.00  0.00    +0.000 A 
ATOM      8  C   UNL     1       6.288   4.900  18.565  0.00  0.00    +0.000 A 
ATOM      9  C   UNL     1       5.089   5.608  18.594  0.00  0.00    +0.000 A 
ATOM     10  N   UNL     1       4.270   5.488  19.758  0.00  0.00    +0.000 NA
ATOM     11  C   UNL     1       3.080   6.015  19.722  0.00  0.00    +0.000 A 
ATOM     12  N   UNL     1       2.731   6.908  18.711  0.00  0.00    +0.000 N 
ATOM     13  N   UNL     1       1.832   7.901  18.852  0.00  0.00    +0.000 NA
ENDROOT
BRANCH   1  14
ATOM     14  C   UNL     1       1.802  10.196  17.945  0.00  0.00    +0.000 C 
BRANCH  14  15
ATOM     15  C   UNL     1       0.287  10.318  18.201  0.00  0.00    +0.000 C 
BRANCH  15  25
ATOM     16  C   UNL     1      -0.439  13.290  18.232  0.00  0.00    +0.000 C 
ATOM     17  C   UNL     1      -0.427  12.402  19.422  0.00  0.00    +0.000 A 
ATOM     18  N   UNL     1      -0.777  12.770  20.637  0.00  0.00    +0.000 NA
ATOM     19  C   UNL     1      -0.698  11.639  21.400  0.00  0.00    +0.000 A 
ATOM     20  C   UNL     1      -1.008  11.476  22.770  0.00  0.00    +0.000 A 
ATOM     21  C   UNL     1      -0.879  10.202  23.336  0.00  0.00    +0.000 A 
ATOM     22  C   UNL     1      -0.458   9.121  22.562  0.00  0.00    +0.000 A 
ATOM     23  C   UNL     1      -0.140   9.268  21.208  0.00  0.00    +0.000 A 
ATOM     24  C   UNL     1      -0.268  10.551  20.654  0.00  0.00    +0.000 A 
ATOM     25  N   UNL     1      -0.071  11.070  19.390  0.00  0.00    +0.000 N 
ENDBRANCH  15  25
ENDBRANCH  14  15
ENDBRANCH   1  14
BRANCH  11  26
ATOM     26  S   UNL     1       1.913   5.550  20.959  0.00  0.00    +0.000 S 
BRANCH  26  27
ATOM     27  C   UNL     1       1.005   4.204  20.088  0.00  0.00    +0.000 C 
BRANCH  27  28
ATOM     28  C   UNL     1       1.908   3.353  19.227  0.00  0.00    +0.000 A 
ATOM     29  C   UNL     1       1.897   3.487  17.828  0.00  0.00    +0.000 A 
ATOM     30  C   UNL     1       2.753   2.728  17.024  0.00  0.00    +0.000 A 
ATOM     31  C   UNL     1       3.650   1.838  17.612  0.00  0.00    +0.000 A 
ATOM     32  C   UNL     1       3.695   1.714  18.999  0.00  0.00    +0.000 A 
ATOM     33  C   UNL     1       2.832   2.471  19.795  0.00  0.00    +0.000 A 
ATOM     34  F   UNL     1       2.920   2.352  21.126  0.00  0.00    +0.000 F 
ENDBRANCH  27  28
ENDBRANCH  26  27
ENDBRANCH  11  26
TORSDOF 6
ENDMDL
MODEL 3
REMARK VINA RESULT:      -9.0      2.210      4.633
REMARK  Name = 
REMARK  7 active torsions:
REMARK  status: ('A' for Active; 'I' for Inactive)
REMARK    1  A    between atoms: C_1  and  C_2
REMARK    2  A    between atoms: N_10  and  C_11
REMARK    3  A    between atoms: C_11  and  C_12
REMARK    4  A    between atoms: C_12  and  C_13
REMARK    5  A    between atoms: C_23  and  S_24
REMARK    6  A    between atoms: S_24  and  C_25
REMARK    7  A    between atoms: C_25  and  C_26
REMARK                            x       y       z     vdW  Elec       q    Type
REMARK                         _______ _______ _______ _____ _____    ______ ____
ROOT
ATOM      1  C   UNL     1       1.125   8.505  20.796  0.00  0.00    +0.000 A 
ATOM      2  N   UNL     1       1.034   7.269  21.419  0.00  0.00    +0.000 NA
ATOM      3  C   UNL     1       1.706   6.471  20.604  0.00  0.00    +0.000 A 
ATOM      4  C   UNL     1       1.798   5.029  20.442  0.00  0.00    +0.000 A 
ATOM      5  C   UNL     1       2.154   4.113  21.423  0.00  0.00    +0.000 A 
ATOM      6  C   UNL     1       2.218   2.750  21.089  0.00  0.00    +0.000 A 
ATOM      7  C   UNL     1       1.779   2.310  19.836  0.00  0.00    +0.000 A 
ATOM      8  C   UNL     1       1.497   3.236  18.839  0.00  0.00    +0.000 A 
ATOM      9  C   UNL     1       1.699   4.589  19.103  0.00  0.00    +0.000 A 
ATOM     10  N   UNL     1       2.170   5.415  18.037  0.00  0.00    +0.000 NA
ATOM     11  C   UNL     1       2.514   6.638  18.322  0.00  0.00    +0.000 A 
ATOM     12  N   UNL     1       2.161   7.207  19.544  0.00  0.00    +0.000 N 
ATOM     13  N   UNL     1       1.943   8.523  19.734  0.00  0.00    +0.000 NA
ENDROOT
BRANCH   1  14
ATOM     14  C   UNL     1       0.297   9.701  21.146  0.00  0.00    +0.000 C 
BRANCH  14  15
ATOM     15  C   UNL     1       0.244  10.715  19.987  0.00  0.00    +0.000 C 
BRANCH  15  25
ATOM     16  C   UNL     1      -1.346  12.823  21.533  0.00  0.00    +0.000 C 
ATOM     17  C   UNL     1      -1.812  12.135  20.302  0.00  0.00    +0.000 A 
ATOM     18  N   UNL     1      -2.952  12.382  19.691  0.00  0.00    +0.000 NA
ATOM     19  C   UNL     1      -2.945  11.597  18.572  0.00  0.00    +0.000 A 
ATOM     20  C   UNL     1      -3.918  11.512  17.549  0.00  0.00    +0.000 A 
ATOM     21  C   UNL     1      -3.678  10.650  16.472  0.00  0.00    +0.000 A 
ATOM     22  C   UNL     1      -2.505   9.898  16.412  0.00  0.00    +0.000 A 
ATOM     23  C   UNL     1      -1.539   9.965  17.420  0.00  0.00    +0.000 A 
ATOM     24  C   UNL     1      -1.793  10.828  18.496  0.00  0.00    +0.000 A 
ATOM     25  N   UNL     1      -1.090  11.168  19.636  0.00  0.00    +0.000 N 
ENDBRANCH  15  25
ENDBRANCH  14  15
ENDBRANCH   1  14
BRANCH  11  26
ATOM     26  S   UNL     1       3.461   7.546  17.143  0.00  0.00    +0.000 S 
BRANCH  26  27
ATOM     27  C   UNL     1       4.695   6.274  16.640  0.00  0.00    +0.000 C 
BRANCH  27  28
ATOM     28  C   UNL     1       5.914   6.260  17.532  0.00  0.00    +0.000 A 
ATOM     29  C   UNL     1       6.934   7.212  17.363  0.00  0.00    +0.000 A 
ATOM     30  C   UNL     1       8.051   7.229  18.205  0.00  0.00    +0.000 A 
ATOM     31  C   UNL     1       8.152   6.303  19.242  0.00  0.00    +0.000 A 
ATOM     32  C   UNL     1       7.137   5.371  19.443  0.00  0.00    +0.000 A 
ATOM     33  C   UNL     1       6.027   5.357  18.594  0.00  0.00    +0.000 A 
ATOM     34  F   UNL     1       5.052   4.469  18.829  0.00  0.00    +0.000 F 
ENDBRANCH  27  28
ENDBRANCH  26  27
ENDBRANCH  11  26
TORSDOF 6
ENDMDL
MODEL 4
REMARK VINA RESULT:      -9.0      1.365      2.287
REMARK  Name = 
REMARK  7 active torsions:
REMARK  status: ('A' for Active; 'I' for Inactive)
REMARK    1  A    between atoms: C_1  and  C_2
REMARK    2  A    between atoms: N_10  and  C_11
REMARK    3  A    between atoms: C_11  and  C_12
REMARK    4  A    between atoms: C_12  and  C_13
REMARK    5  A    between atoms: C_23  and  S_24
REMARK    6  A    between atoms: S_24  and  C_25
REMARK    7  A    between atoms: C_25  and  C_26
REMARK                            x       y       z     vdW  Elec       q    Type
REMARK                         _______ _______ _______ _____ _____    ______ ____
ROOT
ATOM      1  C   UNL     1       2.039   8.840  18.179  0.00  0.00    +0.000 A 
ATOM      2  N   UNL     1       3.002   8.414  17.277  0.00  0.00    +0.000 NA
ATOM      3  C   UNL     1       3.327   7.212  17.728  0.00  0.00    +0.000 A 
ATOM      4  C   UNL     1       4.433   6.301  17.485  0.00  0.00    +0.000 A 
ATOM      5  C   UNL     1       4.834   5.805  16.252  0.00  0.00    +0.000 A 
ATOM      6  C   UNL     1       5.915   4.910  16.198  0.00  0.00    +0.000 A 
ATOM      7  C   UNL     1       6.671   4.647  17.346  0.00  0.00    +0.000 A 
ATOM      8  C   UNL     1       6.219   5.086  18.585  0.00  0.00    +0.000 A 
ATOM      9  C   UNL     1       4.995   5.747  18.657  0.00  0.00    +0.000 A 
ATOM     10  N   UNL     1       4.180   5.521  19.808  0.00  0.00    +0.000 NA
ATOM     11  C   UNL     1       2.972   6.007  19.803  0.00  0.00    +0.000 A 
ATOM     12  N   UNL     1       2.592   6.951  18.852  0.00  0.00    +0.000 N 
ATOM     13  N   UNL     1       1.657   7.900  19.056  0.00  0.00    +0.000 NA
ENDROOT
BRANCH   1  14
ATOM     14  C   UNL     1       1.546  10.247  18.302  0.00  0.00    +0.000 C 
BRANCH  14  15
ATOM     15  C   UNL     1       0.739  10.457  19.598  0.00  0.00    +0.000 C 
BRANCH  15  25
ATOM     16  C   UNL     1      -0.347  12.819  21.211  0.00  0.00    +0.000 C 
ATOM     17  C   UNL     1      -1.068  12.136  20.107  0.00  0.00    +0.000 A 
ATOM     18  N   UNL     1      -2.249  12.493  19.649  0.00  0.00    +0.000 NA
ATOM     19  C   UNL     1      -2.501  11.659  18.595  0.00  0.00    +0.000 A 
ATOM     20  C   UNL     1      -3.618  11.646  17.729  0.00  0.00    +0.000 A 
ATOM     21  C   UNL     1      -3.644  10.710  16.688  0.00  0.00    +0.000 A 
ATOM     22  C   UNL     1      -2.588   9.816  16.512  0.00  0.00    +0.000 A 
ATOM     23  C   UNL     1      -1.481   9.811  17.366  0.00  0.00    +0.000 A 
ATOM     24  C   UNL     1      -1.470  10.750  18.407  0.00  0.00    +0.000 A 
ATOM     25  N   UNL     1      -0.570  11.055  19.411  0.00  0.00    +0.000 N 
ENDBRANCH  15  25
ENDBRANCH  14  15
ENDBRANCH   1  14
BRANCH  11  26
ATOM     26  S   UNL     1       1.821   5.420  21.004  0.00  0.00    +0.000 S 
BRANCH  26  27
ATOM     27  C   UNL     1       0.975   4.091  20.049  0.00  0.00    +0.000 C 
BRANCH  27  28
ATOM     28  C   UNL     1       1.913   3.345  19.130  0.00  0.00    +0.000 A 
ATOM     29  C   UNL     1       2.738   2.323  19.628  0.00  0.00    +0.000 A 
ATOM     30  C   UNL     1       3.586   1.603  18.780  0.00  0.00    +0.000 A 
ATOM     31  C   UNL     1       3.604   1.883  17.415  0.00  0.00    +0.000 A 
ATOM     32  C   UNL     1       2.770   2.873  16.899  0.00  0.00    +0.000 A 
ATOM     33  C   UNL     1       1.931   3.592  17.754  0.00  0.00    +0.000 A 
ATOM     34  F   UNL     1       1.119   4.517  17.225  0.00  0.00    +0.000 F 
ENDBRANCH  27  28
ENDBRANCH  26  27
ENDBRANCH  11  26
TORSDOF 6
ENDMDL
MODEL 5
REMARK VINA RESULT:      -9.0      2.289      4.156
REMARK  Name = 
REMARK  7 active torsions:
REMARK  status: ('A' for Active; 'I' for Inactive)
REMARK    1  A    between atoms: C_1  and  C_2
REMARK    2  A    between atoms: N_10  and  C_11
REMARK    3  A    between atoms: C_11  and  C_12
REMARK    4  A    between atoms: C_12  and  C_13
REMARK    5  A    between atoms: C_23  and  S_24
REMARK    6  A    between atoms: S_24  and  C_25
REMARK    7  A    between atoms: C_25  and  C_26
REMARK                            x       y       z     vdW  Elec       q    Type
REMARK                         _______ _______ _______ _____ _____    ______ ____
ROOT
ATOM      1  C   UNL     1       2.285   8.526  18.446  0.00  0.00    +0.000 A 
ATOM      2  N   UNL     1       1.727   7.688  19.400  0.00  0.00    +0.000 NA
ATOM      3  C   UNL     1       2.370   6.546  19.210  0.00  0.00    +0.000 A 
ATOM      4  C   UNL     1       2.139   5.171  19.620  0.00  0.00    +0.000 A 
ATOM      5  C   UNL     1       1.983   4.717  20.923  0.00  0.00    +0.000 A 
ATOM      6  C   UNL     1       1.790   3.344  21.146  0.00  0.00    +0.000 A 
ATOM      7  C   UNL     1       1.602   2.473  20.067  0.00  0.00    +0.000 A 
ATOM      8  C   UNL     1       1.835   2.921  18.771  0.00  0.00    +0.000 A 
ATOM      9  C   UNL     1       2.291   4.224  18.583  0.00  0.00    +0.000 A 
ATOM     10  N   UNL     1       3.218   4.461  17.523  0.00  0.00    +0.000 NA
ATOM     11  C   UNL     1       3.768   5.639  17.447  0.00  0.00    +0.000 A 
ATOM     12  N   UNL     1       3.258   6.707  18.182  0.00  0.00    +0.000 N 
ATOM     13  N   UNL     1       3.332   7.996  17.798  0.00  0.00    +0.000 NA
ENDROOT
BRANCH   1  14
ATOM     14  C   UNL     1       1.720   9.849  18.035  0.00  0.00    +0.000 C 
BRANCH  14  15
ATOM     15  C   UNL     1       0.197   9.912  18.260  0.00  0.00    +0.000 C 
BRANCH  15  25
ATOM     16  C   UNL     1      -0.763  12.794  17.888  0.00  0.00    +0.000 C 
ATOM     17  C   UNL     1      -0.685  12.081  19.189  0.00  0.00    +0.000 A 
ATOM     18  N   UNL     1      -1.067  12.584  20.344  0.00  0.00    +0.000 NA
ATOM     19  C   UNL     1      -0.901  11.578  21.255  0.00  0.00    +0.000 A 
ATOM     20  C   UNL     1      -1.202  11.582  22.637  0.00  0.00    +0.000 A 
ATOM     21  C   UNL     1      -0.974  10.411  23.371  0.00  0.00    +0.000 A 
ATOM     22  C   UNL     1      -0.466   9.271  22.750  0.00  0.00    +0.000 A 
ATOM     23  C   UNL     1      -0.156   9.255  21.386  0.00  0.00    +0.000 A 
ATOM     24  C   UNL     1      -0.384  10.435  20.663  0.00  0.00    +0.000 A 
ATOM     25  N   UNL     1      -0.224  10.789  19.337  0.00  0.00    +0.000 N 
ENDBRANCH  15  25
ENDBRANCH  14  15
ENDBRANCH   1  14
BRANCH  11  26
ATOM     26  S   UNL     1       5.188   5.843  16.422  0.00  0.00    +0.000 S 
BRANCH  26  27
ATOM     27  C   UNL     1       5.399   4.129  15.780  0.00  0.00    +0.000 C 
BRANCH  27  28
ATOM     28  C   UNL     1       5.979   4.095  14.385  0.00  0.00    +0.000 A 
ATOM     29  C   UNL     1       5.309   3.424  13.349  0.00  0.00    +0.000 A 
ATOM     30  C   UNL     1       5.820   3.415  12.047  0.00  0.00    +0.000 A 
ATOM     31  C   UNL     1       7.001   4.098  11.760  0.00  0.00    +0.000 A 
ATOM     32  C   UNL     1       7.662   4.794  12.769  0.00  0.00    +0.000 A 
ATOM     33  C   UNL     1       7.148   4.793  14.069  0.00  0.00    +0.000 A 
ATOM     34  F   UNL     1       7.791   5.495  15.011  0.00  0.00    +0.000 F 
ENDBRANCH  27  28
ENDBRANCH  26  27
ENDBRANCH  11  26
TORSDOF 6
ENDMDL
MODEL 6
REMARK VINA RESULT:      -8.9      1.541      2.483
REMARK  Name = 
REMARK  7 active torsions:
REMARK  status: ('A' for Active; 'I' for Inactive)
REMARK    1  A    between atoms: C_1  and  C_2
REMARK    2  A    between atoms: N_10  and  C_11
REMARK    3  A    between atoms: C_11  and  C_12
REMARK    4  A    between atoms: C_12  and  C_13
REMARK    5  A    between atoms: C_23  and  S_24
REMARK    6  A    between atoms: S_24  and  C_25
REMARK    7  A    between atoms: C_25  and  C_26
REMARK                            x       y       z     vdW  Elec       q    Type
REMARK                         _______ _______ _______ _____ _____    ______ ____
ROOT
ATOM      1  C   UNL     1       2.130   8.843  18.054  0.00  0.00    +0.000 A 
ATOM      2  N   UNL     1       3.092   8.369  17.175  0.00  0.00    +0.000 NA
ATOM      3  C   UNL     1       3.377   7.170  17.659  0.00  0.00    +0.000 A 
ATOM      4  C   UNL     1       4.460   6.223  17.453  0.00  0.00    +0.000 A 
ATOM      5  C   UNL     1       4.863   5.686  16.237  0.00  0.00    +0.000 A 
ATOM      6  C   UNL     1       5.920   4.761  16.220  0.00  0.00    +0.000 A 
ATOM      7  C   UNL     1       6.653   4.505  17.384  0.00  0.00    +0.000 A 
ATOM      8  C   UNL     1       6.197   4.987  18.606  0.00  0.00    +0.000 A 
ATOM      9  C   UNL     1       4.991   5.683  18.646  0.00  0.00    +0.000 A 
ATOM     10  N   UNL     1       4.156   5.507  19.791  0.00  0.00    +0.000 NA
ATOM     11  C   UNL     1       2.962   6.026  19.758  0.00  0.00    +0.000 A 
ATOM     12  N   UNL     1       2.621   6.957  18.779  0.00  0.00    +0.000 N 
ATOM     13  N   UNL     1       1.711   7.936  18.947  0.00  0.00    +0.000 NA
ENDROOT
BRANCH   1  14
ATOM     14  C   UNL     1       1.675  10.266  18.136  0.00  0.00    +0.000 C 
BRANCH  14  15
ATOM     15  C   UNL     1       1.010  10.574  19.492  0.00  0.00    +0.000 C 
BRANCH  15  25
ATOM     16  C   UNL     1      -0.023  12.926  21.155  0.00  0.00    +0.000 C 
ATOM     17  C   UNL     1      -0.806  12.201  20.122  0.00  0.00    +0.000 A 
ATOM     18  N   UNL     1      -2.032  12.512  19.755  0.00  0.00    +0.000 NA
ATOM     19  C   UNL     1      -2.338  11.654  18.736  0.00  0.00    +0.000 A 
ATOM     20  C   UNL     1      -3.520  11.590  17.962  0.00  0.00    +0.000 A 
ATOM     21  C   UNL     1      -3.597  10.637  16.939  0.00  0.00    +0.000 A 
ATOM     22  C   UNL     1      -2.529   9.775  16.692  0.00  0.00    +0.000 A 
ATOM     23  C   UNL     1      -1.357   9.820  17.454  0.00  0.00    +0.000 A 
ATOM     24  C   UNL     1      -1.295  10.776  18.479  0.00  0.00    +0.000 A 
ATOM     25  N   UNL     1      -0.330  11.126  19.402  0.00  0.00    +0.000 N 
ENDBRANCH  15  25
ENDBRANCH  14  15
ENDBRANCH   1  14
BRANCH  11  26
ATOM     26  S   UNL     1       1.780   5.500  20.956  0.00  0.00    +0.000 S 
BRANCH  26  27
ATOM     27  C   UNL     1       0.927   4.155  20.032  0.00  0.00    +0.000 C 
BRANCH  27  28
ATOM     28  C   UNL     1       1.873   3.341  19.180  0.00  0.00    +0.000 A 
ATOM     29  C   UNL     1       1.915   3.521  17.787  0.00  0.00    +0.000 A 
ATOM     30  C   UNL     1       2.810   2.797  16.993  0.00  0.00    +0.000 A 
ATOM     31  C   UNL     1       3.693   1.896  17.588  0.00  0.00    +0.000 A 
ATOM     32  C   UNL     1       3.685   1.727  18.970  0.00  0.00    +0.000 A 
ATOM     33  C   UNL     1       2.783   2.450  19.756  0.00  0.00    +0.000 A 
ATOM     34  F   UNL     1       2.819   2.288  21.085  0.00  0.00    +0.000 F 
ENDBRANCH  27  28
ENDBRANCH  26  27
ENDBRANCH  11  26
TORSDOF 6
ENDMDL
MODEL 7
REMARK VINA RESULT:      -8.8      2.254      4.408
REMARK  Name = 
REMARK  7 active torsions:
REMARK  status: ('A' for Active; 'I' for Inactive)
REMARK    1  A    between atoms: C_1  and  C_2
REMARK    2  A    between atoms: N_10  and  C_11
REMARK    3  A    between atoms: C_11  and  C_12
REMARK    4  A    between atoms: C_12  and  C_13
REMARK    5  A    between atoms: C_23  and  S_24
REMARK    6  A    between atoms: S_24  and  C_25
REMARK    7  A    between atoms: C_25  and  C_26
REMARK                            x       y       z     vdW  Elec       q    Type
REMARK                         _______ _______ _______ _____ _____    ______ ____
ROOT
ATOM      1  C   UNL     1       2.447   8.306  18.401  0.00  0.00    +0.000 A 
ATOM      2  N   UNL     1       1.924   7.580  19.460  0.00  0.00    +0.000 NA
ATOM      3  C   UNL     1       2.451   6.377  19.290  0.00  0.00    +0.000 A 
ATOM      4  C   UNL     1       2.155   5.055  19.816  0.00  0.00    +0.000 A 
ATOM      5  C   UNL     1       2.095   4.698  21.157  0.00  0.00    +0.000 A 
ATOM      6  C   UNL     1       1.818   3.363  21.493  0.00  0.00    +0.000 A 
ATOM      7  C   UNL     1       1.454   2.446  20.500  0.00  0.00    +0.000 A 
ATOM      8  C   UNL     1       1.589   2.791  19.160  0.00  0.00    +0.000 A 
ATOM      9  C   UNL     1       2.126   4.036  18.839  0.00  0.00    +0.000 A 
ATOM     10  N   UNL     1       2.957   4.126  17.680  0.00  0.00    +0.000 NA
ATOM     11  C   UNL     1       3.588   5.245  17.470  0.00  0.00    +0.000 A 
ATOM     12  N   UNL     1       3.241   6.397  18.173  0.00  0.00    +0.000 N 
ATOM     13  N   UNL     1       3.378   7.649  17.695  0.00  0.00    +0.000 NA
ENDROOT
BRANCH   1  14
ATOM     14  C   UNL     1       1.950   9.644  17.954  0.00  0.00    +0.000 C 
BRANCH  14  15
ATOM     15  C   UNL     1       0.436   9.799  18.196  0.00  0.00    +0.000 C 
BRANCH  15  25
ATOM     16  C   UNL     1      -0.179  12.786  17.949  0.00  0.00    +0.000 C 
ATOM     17  C   UNL     1      -0.225  12.006  19.213  0.00  0.00    +0.000 A 
ATOM     18  N   UNL     1      -0.586  12.493  20.382  0.00  0.00    +0.000 NA
ATOM     19  C   UNL     1      -0.564  11.432  21.242  0.00  0.00    +0.000 A 
ATOM     20  C   UNL     1      -0.908  11.402  22.615  0.00  0.00    +0.000 A 
ATOM     21  C   UNL     1      -0.838  10.179  23.293  0.00  0.00    +0.000 A 
ATOM     22  C   UNL     1      -0.442   9.020  22.626  0.00  0.00    +0.000 A 
ATOM     23  C   UNL     1      -0.091   9.035  21.273  0.00  0.00    +0.000 A 
ATOM     24  C   UNL     1      -0.161  10.267  20.606  0.00  0.00    +0.000 A 
ATOM     25  N   UNL     1       0.082  10.665  19.306  0.00  0.00    +0.000 N 
ENDBRANCH  15  25
ENDBRANCH  14  15
ENDBRANCH   1  14
BRANCH  11  26
ATOM     26  S   UNL     1       4.909   5.263  16.302  0.00  0.00    +0.000 S 
BRANCH  26  27
ATOM     27  C   UNL     1       6.352   4.979  17.410  0.00  0.00    +0.000 C 
BRANCH  27  28
ATOM     28  C   UNL     1       7.094   6.253  17.741  0.00  0.00    +0.000 A 
ATOM     29  C   UNL     1       6.861   7.427  17.005  0.00  0.00    +0.000 A 
ATOM     30  C   UNL     1       7.517   8.620  17.325  0.00  0.00    +0.000 A 
ATOM     31  C   UNL     1       8.401   8.660  18.401  0.00  0.00    +0.000 A 
ATOM     32  C   UNL     1       8.621   7.512  19.160  0.00  0.00    +0.000 A 
ATOM     33  C   UNL     1       7.967   6.323  18.831  0.00  0.00    +0.000 A 
ATOM     34  F   UNL     1       8.176   5.244  19.597  0.00  0.00    +0.000 F 
ENDBRANCH  27  28
ENDBRANCH  26  27
ENDBRANCH  11  26
TORSDOF 6
ENDMDL
MODEL 8
REMARK VINA RESULT:      -8.6      2.586      4.700
REMARK  Name = 
REMARK  7 active torsions:
REMARK  status: ('A' for Active; 'I' for Inactive)
REMARK    1  A    between atoms: C_1  and  C_2
REMARK    2  A    between atoms: N_10  and  C_11
REMARK    3  A    between atoms: C_11  and  C_12
REMARK    4  A    between atoms: C_12  and  C_13
REMARK    5  A    between atoms: C_23  and  S_24
REMARK    6  A    between atoms: S_24  and  C_25
REMARK    7  A    between atoms: C_25  and  C_26
REMARK                            x       y       z     vdW  Elec       q    Type
REMARK                         _______ _______ _______ _____ _____    ______ ____
ROOT
ATOM      1  C   UNL     1       2.046   8.514  18.793  0.00  0.00    +0.000 A 
ATOM      2  N   UNL     1       1.613   7.634  19.774  0.00  0.00    +0.000 NA
ATOM      3  C   UNL     1       2.280   6.525  19.500  0.00  0.00    +0.000 A 
ATOM      4  C   UNL     1       2.144   5.133  19.898  0.00  0.00    +0.000 A 
ATOM      5  C   UNL     1       2.127   4.648  21.199  0.00  0.00    +0.000 A 
ATOM      6  C   UNL     1       2.012   3.264  21.406  0.00  0.00    +0.000 A 
ATOM      7  C   UNL     1       1.761   2.407  20.329  0.00  0.00    +0.000 A 
ATOM      8  C   UNL     1       1.855   2.889  19.028  0.00  0.00    +0.000 A 
ATOM      9  C   UNL     1       2.239   4.214  18.829  0.00  0.00    +0.000 A 
ATOM     10  N   UNL     1       3.053   4.510  17.694  0.00  0.00    +0.000 NA
ATOM     11  C   UNL     1       3.546   5.712  17.596  0.00  0.00    +0.000 A 
ATOM     12  N   UNL     1       3.062   6.743  18.399  0.00  0.00    +0.000 N 
ATOM     13  N   UNL     1       3.049   8.041  18.040  0.00  0.00    +0.000 NA
ENDROOT
BRANCH   1  14
ATOM     14  C   UNL     1       1.392   9.819  18.466  0.00  0.00    +0.000 C 
BRANCH  14  15
ATOM     15  C   UNL     1       0.748  10.461  19.711  0.00  0.00    +0.000 C 
BRANCH  15  25
ATOM     16  C   UNL     1      -0.433  12.783  21.316  0.00  0.00    +0.000 C 
ATOM     17  C   UNL     1      -1.106  12.100  20.181  0.00  0.00    +0.000 A 
ATOM     18  N   UNL     1      -2.278  12.441  19.689  0.00  0.00    +0.000 NA
ATOM     19  C   UNL     1      -2.480  11.616  18.618  0.00  0.00    +0.000 A 
ATOM     20  C   UNL     1      -3.569  11.593  17.715  0.00  0.00    +0.000 A 
ATOM     21  C   UNL     1      -3.543  10.669  16.663  0.00  0.00    +0.000 A 
ATOM     22  C   UNL     1      -2.466   9.797  16.511  0.00  0.00    +0.000 A 
ATOM     23  C   UNL     1      -1.387   9.802  17.400  0.00  0.00    +0.000 A 
ATOM     24  C   UNL     1      -1.427  10.729  18.453  0.00  0.00    +0.000 A 
ATOM     25  N   UNL     1      -0.566  11.037  19.488  0.00  0.00    +0.000 N 
ENDBRANCH  15  25
ENDBRANCH  14  15
ENDBRANCH   1  14
BRANCH  11  26
ATOM     26  S   UNL     1       4.856   5.996  16.450  0.00  0.00    +0.000 S 
BRANCH  26  27
ATOM     27  C   UNL     1       5.208   4.275  15.896  0.00  0.00    +0.000 C 
BRANCH  27  28
ATOM     28  C   UNL     1       5.885   4.224  14.546  0.00  0.00    +0.000 A 
ATOM     29  C   UNL     1       5.280   3.556  13.468  0.00  0.00    +0.000 A 
ATOM     30  C   UNL     1       5.882   3.531  12.206  0.00  0.00    +0.000 A 
ATOM     31  C   UNL     1       7.091   4.194  12.001  0.00  0.00    +0.000 A 
ATOM     32  C   UNL     1       7.690   4.886  13.051  0.00  0.00    +0.000 A 
ATOM     33  C   UNL     1       7.085   4.901  14.310  0.00  0.00    +0.000 A 
ATOM     34  F   UNL     1       7.669   5.599  15.293  0.00  0.00    +0.000 F 
ENDBRANCH  27  28
ENDBRANCH  26  27
ENDBRANCH  11  26
TORSDOF 6
ENDMDL
MODEL 9
REMARK VINA RESULT:      -8.5      1.333      2.466
REMARK  Name = 
REMARK  7 active torsions:
REMARK  status: ('A' for Active; 'I' for Inactive)
REMARK    1  A    between atoms: C_1  and  C_2
REMARK    2  A    between atoms: N_10  and  C_11
REMARK    3  A    between atoms: C_11  and  C_12
REMARK    4  A    between atoms: C_12  and  C_13
REMARK    5  A    between atoms: C_23  and  S_24
REMARK    6  A    between atoms: S_24  and  C_25
REMARK    7  A    between atoms: C_25  and  C_26
REMARK                            x       y       z     vdW  Elec       q    Type
REMARK                         _______ _______ _______ _____ _____    ______ ____
ROOT
ATOM      1  C   UNL     1       2.201   8.817  17.996  0.00  0.00    +0.000 A 
ATOM      2  N   UNL     1       3.151   8.317  17.119  0.00  0.00    +0.000 NA
ATOM      3  C   UNL     1       3.431   7.126  17.624  0.00  0.00    +0.000 A 
ATOM      4  C   UNL     1       4.504   6.166  17.428  0.00  0.00    +0.000 A 
ATOM      5  C   UNL     1       4.891   5.600  16.220  0.00  0.00    +0.000 A 
ATOM      6  C   UNL     1       5.939   4.666  16.213  0.00  0.00    +0.000 A 
ATOM      7  C   UNL     1       6.681   4.427  17.374  0.00  0.00    +0.000 A 
ATOM      8  C   UNL     1       6.241   4.938  18.591  0.00  0.00    +0.000 A 
ATOM      9  C   UNL     1       5.042   5.645  18.627  0.00  0.00    +0.000 A 
ATOM     10  N   UNL     1       4.215   5.500  19.783  0.00  0.00    +0.000 NA
ATOM     11  C   UNL     1       3.025   6.028  19.750  0.00  0.00    +0.000 A 
ATOM     12  N   UNL     1       2.683   6.942  18.755  0.00  0.00    +0.000 N 
ATOM     13  N   UNL     1       1.783   7.932  18.912  0.00  0.00    +0.000 NA
ENDROOT
BRANCH   1  14
ATOM     14  C   UNL     1       1.759  10.245  18.053  0.00  0.00    +0.000 C 
BRANCH  14  15
ATOM     15  C   UNL     1       0.341  10.379  18.643  0.00  0.00    +0.000 C 
BRANCH  15  25
ATOM     16  C   UNL     1       0.018   9.341  21.503  0.00  0.00    +0.000 C 
ATOM     17  C   UNL     1       0.131  10.773  21.122  0.00  0.00    +0.000 A 
ATOM     18  N   UNL     1       0.156  11.776  21.974  0.00  0.00    +0.000 NA
ATOM     19  C   UNL     1       0.351  12.896  21.215  0.00  0.00    +0.000 A 
ATOM     20  C   UNL     1       0.494  14.237  21.643  0.00  0.00    +0.000 A 
ATOM     21  C   UNL     1       0.718  15.224  20.675  0.00  0.00    +0.000 A 
ATOM     22  C   UNL     1       0.801  14.888  19.325  0.00  0.00    +0.000 A 
ATOM     23  C   UNL     1       0.653  13.569  18.886  0.00  0.00    +0.000 A 
ATOM     24  C   UNL     1       0.423  12.590  19.864  0.00  0.00    +0.000 A 
ATOM     25  N   UNL     1       0.250  11.220  19.823  0.00  0.00    +0.000 N 
ENDBRANCH  15  25
ENDBRANCH  14  15
ENDBRANCH   1  14
BRANCH  11  26
ATOM     26  S   UNL     1       1.850   5.537  20.970  0.00  0.00    +0.000 S 
BRANCH  26  27
ATOM     27  C   UNL     1       0.967   4.191  20.075  0.00  0.00    +0.000 C 
BRANCH  27  28
ATOM     28  C   UNL     1       1.890   3.357  19.218  0.00  0.00    +0.000 A 
ATOM     29  C   UNL     1       1.887   3.497  17.820  0.00  0.00    +0.000 A 
ATOM     30  C   UNL     1       2.761   2.755  17.019  0.00  0.00    +0.000 A 
ATOM     31  C   UNL     1       3.667   1.875  17.610  0.00  0.00    +0.000 A 
ATOM     32  C   UNL     1       3.704   1.746  18.997  0.00  0.00    +0.000 A 
ATOM     33  C   UNL     1       2.823   2.487  19.789  0.00  0.00    +0.000 A 
ATOM     34  F   UNL     1       2.903   2.363  21.121  0.00  0.00    +0.000 F 
ENDBRANCH  27  28
ENDBRANCH  26  27
ENDBRANCH  11  26
TORSDOF 6
ENDMDL
