MODEL 1
REMARK VINA RESULT:      -7.2      0.000      0.000
REMARK  Name = 
REMARK  8 active torsions:
REMARK  status: ('A' for Active; 'I' for Inactive)
REMARK    1  A    between atoms: C_1  and  C_2
REMARK    2  A    between atoms: C_2  and  N_3
REMARK    3  A    between atoms: N_3  and  C_4
REMARK    4  A    between atoms: N_3  and  C_13
REMARK    5  A    between atoms: C_4  and  C_5
REMARK    6  A    between atoms: C_8  and  C_9
REMARK    7  A    between atoms: C_13  and  C_14
REMARK    8  A    between atoms: C_17  and  C_18
REMARK                            x       y       z     vdW  Elec       q    Type
REMARK                         _______ _______ _______ _____ _____    ______ ____
ROOT
ATOM      1  N   UNL     1       5.493   5.303  17.799  0.00  0.00    +0.000 NA
ENDROOT
BRANCH   1   3
ATOM      2  C   UNL     1       7.611   5.965  19.039  0.00  0.00    +0.000 C 
ATOM      3  C   UNL     1       6.118   5.651  19.093  0.00  0.00    +0.000 C 
ENDBRANCH   1   3
BRANCH   1   4
ATOM      4  C   UNL     1       6.128   4.140  17.118  0.00  0.00    +0.000 C 
BRANCH   4   5
ATOM      5  C   UNL     1       6.587   4.404  15.717  0.00  0.00    +0.000 A 
ATOM      6  N   UNL     1       7.491   5.346  15.411  0.00  0.00    +0.000 NA
ATOM      7  O   UNL     1       7.549   5.290  14.015  0.00  0.00    +0.000 OA
ATOM      8  C   UNL     1       6.689   4.301  13.628  0.00  0.00    +0.000 A 
ATOM      9  N   UNL     1       6.098   3.712  14.641  0.00  0.00    +0.000 NA
BRANCH   8  10
ATOM     10  C   UNL     1       6.449   3.907  12.181  0.00  0.00    +0.000 C 
ATOM     11  C   UNL     1       6.451   2.424  11.858  0.00  0.00    +0.000 C 
ATOM     12  C   UNL     1       5.169   3.180  11.816  0.00  0.00    +0.000 C 
ENDBRANCH   8  10
ENDBRANCH   4   5
ENDBRANCH   1   4
BRANCH   1  13
ATOM     13  C   UNL     1       4.039   5.117  18.011  0.00  0.00    +0.000 C 
BRANCH  13  14
ATOM     14  C   UNL     1       3.298   6.371  18.416  0.00  0.00    +0.000 A 
ATOM     15  C   UNL     1       3.243   7.487  17.572  0.00  0.00    +0.000 A 
ATOM     16  C   UNL     1       2.509   8.619  17.946  0.00  0.00    +0.000 A 
ATOM     17  C   UNL     1       1.819   8.641  19.165  0.00  0.00    +0.000 A 
ATOM     18  C   UNL     1       1.884   7.539  20.018  0.00  0.00    +0.000 A 
ATOM     19  C   UNL     1       2.632   6.428  19.646  0.00  0.00    +0.000 A 
ATOM     20  F   UNL     1       2.700   5.392  20.495  0.00  0.00    +0.000 F 
BRANCH  17  21
ATOM     21  C   UNL     1       1.042   9.788  19.532  0.00  0.00    +0.000 C 
ATOM     22  N   UNL     1       0.412  10.720  19.827  0.00  0.00    +0.000 NA
ENDBRANCH  17  21
ENDBRANCH  13  14
ENDBRANCH   1  13
TORSDOF 7
ENDMDL
MODEL 2
REMARK VINA RESULT:      -7.2      1.111      1.513
REMARK  Name = 
REMARK  8 active torsions:
REMARK  status: ('A' for Active; 'I' for Inactive)
REMARK    1  A    between atoms: C_1  and  C_2
REMARK    2  A    between atoms: C_2  and  N_3
REMARK    3  A    between atoms: N_3  and  C_4
REMARK    4  A    between atoms: N_3  and  C_13
REMARK    5  A    between atoms: C_4  and  C_5
REMARK    6  A    between atoms: C_8  and  C_9
REMARK    7  A    between atoms: C_13  and  C_14
REMARK    8  A    between atoms: C_17  and  C_18
REMARK                            x       y       z     vdW  Elec       q    Type
REMARK                         _______ _______ _______ _____ _____    ______ ____
ROOT
ATOM      1  N   UNL     1       5.918   5.186  17.715  0.00  0.00    +0.000 NA
ENDROOT
BRANCH   1   3
ATOM      2  C   UNL     1       7.911   5.827  19.155  0.00  0.00    +0.000 C 
ATOM      3  C   UNL     1       6.430   5.470  19.072  0.00  0.00    +0.000 C 
ENDBRANCH   1   3
BRANCH   1   4
ATOM      4  C   UNL     1       6.707   4.161  16.976  0.00  0.00    +0.000 C 
BRANCH   4   5
ATOM      5  C   UNL     1       6.886   4.436  15.515  0.00  0.00    +0.000 A 
ATOM      6  N   UNL     1       7.618   5.459  15.050  0.00  0.00    +0.000 NA
ATOM      7  O   UNL     1       7.440   5.374  13.665  0.00  0.00    +0.000 OA
ATOM      8  C   UNL     1       6.636   4.291  13.441  0.00  0.00    +0.000 A 
ATOM      9  N   UNL     1       6.295   3.669  14.545  0.00  0.00    +0.000 NA
BRANCH   8  10
ATOM     10  C   UNL     1       6.193   3.838  12.061  0.00  0.00    +0.000 C 
ATOM     11  C   UNL     1       6.056   2.343  11.834  0.00  0.00    +0.000 C 
ATOM     12  C   UNL     1       4.832   3.189  11.898  0.00  0.00    +0.000 C 
ENDBRANCH   8  10
ENDBRANCH   4   5
ENDBRANCH   1   4
BRANCH   1  13
ATOM     13  C   UNL     1       4.481   4.838  17.815  0.00  0.00    +0.000 C 
BRANCH  13  14
ATOM     14  C   UNL     1       3.591   5.971  18.272  0.00  0.00    +0.000 A 
ATOM     15  C   UNL     1       2.866   5.889  19.468  0.00  0.00    +0.000 A 
ATOM     16  C   UNL     1       2.088   6.971  19.896  0.00  0.00    +0.000 A 
ATOM     17  C   UNL     1       2.033   8.146  19.135  0.00  0.00    +0.000 A 
ATOM     18  C   UNL     1       2.737   8.226  17.934  0.00  0.00    +0.000 A 
ATOM     19  C   UNL     1       3.492   7.139  17.507  0.00  0.00    +0.000 A 
ATOM     20  F   UNL     1       4.139   7.233  16.337  0.00  0.00    +0.000 F 
BRANCH  17  21
ATOM     21  C   UNL     1       1.261   9.264  19.591  0.00  0.00    +0.000 C 
ATOM     22  N   UNL     1       0.636  10.171  19.963  0.00  0.00    +0.000 NA
ENDBRANCH  17  21
ENDBRANCH  13  14
ENDBRANCH   1  13
TORSDOF 7
ENDMDL
MODEL 3
REMARK VINA RESULT:      -7.0      2.667      7.255
REMARK  Name = 
REMARK  8 active torsions:
REMARK  status: ('A' for Active; 'I' for Inactive)
REMARK    1  A    between atoms: C_1  and  C_2
REMARK    2  A    between atoms: C_2  and  N_3
REMARK    3  A    between atoms: N_3  and  C_4
REMARK    4  A    between atoms: N_3  and  C_13
REMARK    5  A    between atoms: C_4  and  C_5
REMARK    6  A    between atoms: C_8  and  C_9
REMARK    7  A    between atoms: C_13  and  C_14
REMARK    8  A    between atoms: C_17  and  C_18
REMARK                            x       y       z     vdW  Elec       q    Type
REMARK                         _______ _______ _______ _____ _____    ______ ____
ROOT
ATOM      1  N   UNL     1       2.469   4.922  19.425  0.00  0.00    +0.000 NA
ENDROOT
BRANCH   1   3
ATOM      2  C   UNL     1       0.906   2.931  19.657  0.00  0.00    +0.000 C 
ATOM      3  C   UNL     1       1.391   4.272  20.201  0.00  0.00    +0.000 C 
ENDBRANCH   1   3
BRANCH   1   4
ATOM      4  C   UNL     1       2.848   6.269  19.936  0.00  0.00    +0.000 C 
BRANCH   4   5
ATOM      5  C   UNL     1       2.415   7.415  19.075  0.00  0.00    +0.000 A 
ATOM      6  N   UNL     1       2.844   7.584  17.816  0.00  0.00    +0.000 NA
ATOM      7  O   UNL     1       2.257   8.796  17.440  0.00  0.00    +0.000 OA
ATOM      8  C   UNL     1       1.516   9.219  18.508  0.00  0.00    +0.000 A 
ATOM      9  N   UNL     1       1.561   8.389  19.522  0.00  0.00    +0.000 NA
BRANCH   8  10
ATOM     10  C   UNL     1       0.708  10.504  18.520  0.00  0.00    +0.000 C 
ATOM     11  C   UNL     1      -0.773  10.395  18.205  0.00  0.00    +0.000 C 
ATOM     12  C   UNL     1      -0.342  10.707  19.596  0.00  0.00    +0.000 C 
ENDBRANCH   8  10
ENDBRANCH   4   5
ENDBRANCH   1   4
BRANCH   1  13
ATOM     13  C   UNL     1       3.621   3.994  19.347  0.00  0.00    +0.000 C 
BRANCH  13  14
ATOM     14  C   UNL     1       4.538   4.231  18.169  0.00  0.00    +0.000 A 
ATOM     15  C   UNL     1       4.145   3.903  16.864  0.00  0.00    +0.000 A 
ATOM     16  C   UNL     1       4.991   4.177  15.784  0.00  0.00    +0.000 A 
ATOM     17  C   UNL     1       6.235   4.787  15.997  0.00  0.00    +0.000 A 
ATOM     18  C   UNL     1       6.638   5.099  17.295  0.00  0.00    +0.000 A 
ATOM     19  C   UNL     1       5.799   4.804  18.364  0.00  0.00    +0.000 A 
ATOM     20  F   UNL     1       6.223   5.091  19.604  0.00  0.00    +0.000 F 
BRANCH  17  21
ATOM     21  C   UNL     1       7.085   5.096  14.886  0.00  0.00    +0.000 C 
ATOM     22  N   UNL     1       7.776   5.345  13.985  0.00  0.00    +0.000 NA
ENDBRANCH  17  21
ENDBRANCH  13  14
ENDBRANCH   1  13
TORSDOF 7
ENDMDL
MODEL 4
REMARK VINA RESULT:      -7.0      2.703      3.482
REMARK  Name = 
REMARK  8 active torsions:
REMARK  status: ('A' for Active; 'I' for Inactive)
REMARK    1  A    between atoms: C_1  and  C_2
REMARK    2  A    between atoms: C_2  and  N_3
REMARK    3  A    between atoms: N_3  and  C_4
REMARK    4  A    between atoms: N_3  and  C_13
REMARK    5  A    between atoms: C_4  and  C_5
REMARK    6  A    between atoms: C_8  and  C_9
REMARK    7  A    between atoms: C_13  and  C_14
REMARK    8  A    between atoms: C_17  and  C_18
REMARK                            x       y       z     vdW  Elec       q    Type
REMARK                         _______ _______ _______ _____ _____    ______ ____
ROOT
ATOM      1  N   UNL     1       6.482   6.074  17.152  0.00  0.00    +0.000 NA
ENDROOT
BRANCH   1   3
ATOM      2  C   UNL     1       8.192   7.267  18.606  0.00  0.00    +0.000 C 
ATOM      3  C   UNL     1       7.487   7.153  17.257  0.00  0.00    +0.000 C 
ENDBRANCH   1   3
BRANCH   1   4
ATOM      4  C   UNL     1       7.025   4.797  16.612  0.00  0.00    +0.000 C 
BRANCH   4   5
ATOM      5  C   UNL     1       7.112   4.730  15.118  0.00  0.00    +0.000 A 
ATOM      6  N   UNL     1       7.906   5.535  14.397  0.00  0.00    +0.000 NA
ATOM      7  O   UNL     1       7.607   5.179  13.079  0.00  0.00    +0.000 OA
ATOM      8  C   UNL     1       6.679   4.178  13.146  0.00  0.00    +0.000 A 
ATOM      9  N   UNL     1       6.366   3.851  14.377  0.00  0.00    +0.000 NA
BRANCH   8  10
ATOM     10  C   UNL     1       6.079   3.498  11.928  0.00  0.00    +0.000 C 
ATOM     11  C   UNL     1       6.938   2.469  11.216  0.00  0.00    +0.000 C 
ATOM     12  C   UNL     1       5.750   2.019  11.993  0.00  0.00    +0.000 C 
ENDBRANCH   8  10
ENDBRANCH   4   5
ENDBRANCH   1   4
BRANCH   1  13
ATOM     13  C   UNL     1       5.829   5.906  18.472  0.00  0.00    +0.000 C 
BRANCH  13  14
ATOM     14  C   UNL     1       4.613   5.009  18.461  0.00  0.00    +0.000 A 
ATOM     15  C   UNL     1       4.666   3.704  18.970  0.00  0.00    +0.000 A 
ATOM     16  C   UNL     1       3.514   2.910  18.995  0.00  0.00    +0.000 A 
ATOM     17  C   UNL     1       2.298   3.414  18.516  0.00  0.00    +0.000 A 
ATOM     18  C   UNL     1       2.243   4.705  17.991  0.00  0.00    +0.000 A 
ATOM     19  C   UNL     1       3.397   5.480  17.953  0.00  0.00    +0.000 A 
ATOM     20  F   UNL     1       3.322   6.708  17.420  0.00  0.00    +0.000 F 
BRANCH  17  21
ATOM     21  C   UNL     1       1.113   2.610  18.572  0.00  0.00    +0.000 C 
ATOM     22  N   UNL     1       0.153   1.957  18.616  0.00  0.00    +0.000 NA
ENDBRANCH  17  21
ENDBRANCH  13  14
ENDBRANCH   1  13
TORSDOF 7
ENDMDL
MODEL 5
REMARK VINA RESULT:      -7.0      2.656      3.243
REMARK  Name = 
REMARK  8 active torsions:
REMARK  status: ('A' for Active; 'I' for Inactive)
REMARK    1  A    between atoms: C_1  and  C_2
REMARK    2  A    between atoms: C_2  and  N_3
REMARK    3  A    between atoms: N_3  and  C_4
REMARK    4  A    between atoms: N_3  and  C_13
REMARK    5  A    between atoms: C_4  and  C_5
REMARK    6  A    between atoms: C_8  and  C_9
REMARK    7  A    between atoms: C_13  and  C_14
REMARK    8  A    between atoms: C_17  and  C_18
REMARK                            x       y       z     vdW  Elec       q    Type
REMARK                         _______ _______ _______ _____ _____    ______ ____
ROOT
ATOM      1  N   UNL     1       6.072   6.307  16.424  0.00  0.00    +0.000 NA
ENDROOT
BRANCH   1   3
ATOM      2  C   UNL     1       7.631   5.939  18.397  0.00  0.00    +0.000 C 
ATOM      3  C   UNL     1       6.681   6.869  17.648  0.00  0.00    +0.000 C 
ENDBRANCH   1   3
BRANCH   1   4
ATOM      4  C   UNL     1       6.560   4.942  16.082  0.00  0.00    +0.000 C 
BRANCH   4   5
ATOM      5  C   UNL     1       6.887   4.733  14.636  0.00  0.00    +0.000 A 
ATOM      6  N   UNL     1       7.792   5.474  13.979  0.00  0.00    +0.000 NA
ATOM      7  O   UNL     1       7.710   4.990  12.669  0.00  0.00    +0.000 OA
ATOM      8  C   UNL     1       6.778   3.989  12.681  0.00  0.00    +0.000 A 
ATOM      9  N   UNL     1       6.268   3.779  13.872  0.00  0.00    +0.000 NA
BRANCH   8  10
ATOM     10  C   UNL     1       6.381   3.189  11.454  0.00  0.00    +0.000 C 
ATOM     11  C   UNL     1       7.234   1.983  11.108  0.00  0.00    +0.000 C 
ATOM     12  C   UNL     1       5.855   1.778  11.630  0.00  0.00    +0.000 C 
ENDBRANCH   8  10
ENDBRANCH   4   5
ENDBRANCH   1   4
BRANCH   1  13
ATOM     13  C   UNL     1       4.598   6.371  16.556  0.00  0.00    +0.000 C 
BRANCH  13  14
ATOM     14  C   UNL     1       4.037   5.592  17.724  0.00  0.00    +0.000 A 
ATOM     15  C   UNL     1       3.877   6.184  18.983  0.00  0.00    +0.000 A 
ATOM     16  C   UNL     1       3.309   5.457  20.036  0.00  0.00    +0.000 A 
ATOM     17  C   UNL     1       2.892   4.135  19.837  0.00  0.00    +0.000 A 
ATOM     18  C   UNL     1       3.066   3.534  18.591  0.00  0.00    +0.000 A 
ATOM     19  C   UNL     1       3.649   4.258  17.556  0.00  0.00    +0.000 A 
ATOM     20  F   UNL     1       3.829   3.649  16.375  0.00  0.00    +0.000 F 
BRANCH  17  21
ATOM     21  C   UNL     1       2.282   3.404  20.908  0.00  0.00    +0.000 C 
ATOM     22  N   UNL     1       1.789   2.810  21.778  0.00  0.00    +0.000 NA
ENDBRANCH  17  21
ENDBRANCH  13  14
ENDBRANCH   1  13
TORSDOF 7
ENDMDL
MODEL 6
REMARK VINA RESULT:      -6.8      1.241      1.781
REMARK  Name = 
REMARK  8 active torsions:
REMARK  status: ('A' for Active; 'I' for Inactive)
REMARK    1  A    between atoms: C_1  and  C_2
REMARK    2  A    between atoms: C_2  and  N_3
REMARK    3  A    between atoms: N_3  and  C_4
REMARK    4  A    between atoms: N_3  and  C_13
REMARK    5  A    between atoms: C_4  and  C_5
REMARK    6  A    between atoms: C_8  and  C_9
REMARK    7  A    between atoms: C_13  and  C_14
REMARK    8  A    between atoms: C_17  and  C_18
REMARK                            x       y       z     vdW  Elec       q    Type
REMARK                         _______ _______ _______ _____ _____    ______ ____
ROOT
ATOM      1  N   UNL     1       4.640   5.169  18.920  0.00  0.00    +0.000 NA
ENDROOT
BRANCH   1   3
ATOM      2  C   UNL     1       3.308   3.060  19.407  0.00  0.00    +0.000 C 
ATOM      3  C   UNL     1       4.666   3.710  19.161  0.00  0.00    +0.000 C 
ENDBRANCH   1   3
BRANCH   1   4
ATOM      4  C   UNL     1       5.885   5.697  18.296  0.00  0.00    +0.000 C 
BRANCH   4   5
ATOM      5  C   UNL     1       5.964   5.534  16.809  0.00  0.00    +0.000 A 
ATOM      6  N   UNL     1       5.810   6.556  15.954  0.00  0.00    +0.000 NA
ATOM      7  O   UNL     1       5.880   5.937  14.702  0.00  0.00    +0.000 OA
ATOM      8  C   UNL     1       6.094   4.607  14.936  0.00  0.00    +0.000 A 
ATOM      9  N   UNL     1       6.179   4.319  16.213  0.00  0.00    +0.000 NA
BRANCH   8  10
ATOM     10  C   UNL     1       6.234   3.568  13.838  0.00  0.00    +0.000 C 
ATOM     11  C   UNL     1       5.275   3.665  12.666  0.00  0.00    +0.000 C 
ATOM     12  C   UNL     1       6.711   4.002  12.466  0.00  0.00    +0.000 C 
ENDBRANCH   8  10
ENDBRANCH   4   5
ENDBRANCH   1   4
BRANCH   1  13
ATOM     13  C   UNL     1       3.425   5.498  18.139  0.00  0.00    +0.000 C 
BRANCH  13  14
ATOM     14  C   UNL     1       2.782   6.817  18.503  0.00  0.00    +0.000 A 
ATOM     15  C   UNL     1       2.782   7.896  17.610  0.00  0.00    +0.000 A 
ATOM     16  C   UNL     1       2.137   9.091  17.950  0.00  0.00    +0.000 A 
ATOM     17  C   UNL     1       1.482   9.215  19.183  0.00  0.00    +0.000 A 
ATOM     18  C   UNL     1       1.495   8.150  20.083  0.00  0.00    +0.000 A 
ATOM     19  C   UNL     1       2.155   6.974  19.744  0.00  0.00    +0.000 A 
ATOM     20  F   UNL     1       2.175   5.974  20.638  0.00  0.00    +0.000 F 
BRANCH  17  21
ATOM     21  C   UNL     1       0.796  10.428  19.514  0.00  0.00    +0.000 C 
ATOM     22  N   UNL     1       0.240  11.413  19.785  0.00  0.00    +0.000 NA
ENDBRANCH  17  21
ENDBRANCH  13  14
ENDBRANCH   1  13
TORSDOF 7
ENDMDL
MODEL 7
REMARK VINA RESULT:      -6.8      2.530      3.618
REMARK  Name = 
REMARK  8 active torsions:
REMARK  status: ('A' for Active; 'I' for Inactive)
REMARK    1  A    between atoms: C_1  and  C_2
REMARK    2  A    between atoms: C_2  and  N_3
REMARK    3  A    between atoms: N_3  and  C_4
REMARK    4  A    between atoms: N_3  and  C_13
REMARK    5  A    between atoms: C_4  and  C_5
REMARK    6  A    between atoms: C_8  and  C_9
REMARK    7  A    between atoms: C_13  and  C_14
REMARK    8  A    between atoms: C_17  and  C_18
REMARK                            x       y       z     vdW  Elec       q    Type
REMARK                         _______ _______ _______ _____ _____    ______ ____
ROOT
ATOM      1  N   UNL     1       5.395   4.960  17.074  0.00  0.00    +0.000 NA
ENDROOT
BRANCH   1   3
ATOM      2  C   UNL     1       4.582   7.367  16.979  0.00  0.00    +0.000 C 
ATOM      3  C   UNL     1       4.810   6.043  16.255  0.00  0.00    +0.000 C 
ENDBRANCH   1   3
BRANCH   1   4
ATOM      4  C   UNL     1       6.748   4.529  16.623  0.00  0.00    +0.000 C 
BRANCH   4   5
ATOM      5  C   UNL     1       6.970   4.596  15.144  0.00  0.00    +0.000 A 
ATOM      6  N   UNL     1       7.815   5.467  14.572  0.00  0.00    +0.000 NA
ATOM      7  O   UNL     1       7.642   5.227  13.205  0.00  0.00    +0.000 OA
ATOM      8  C   UNL     1       6.726   4.217  13.099  0.00  0.00    +0.000 A 
ATOM      9  N   UNL     1       6.308   3.781  14.264  0.00  0.00    +0.000 NA
BRANCH   8  10
ATOM     10  C   UNL     1       6.250   3.644  11.776  0.00  0.00    +0.000 C 
ATOM     11  C   UNL     1       6.231   2.132  11.644  0.00  0.00    +0.000 C 
ATOM     12  C   UNL     1       4.943   2.875  11.732  0.00  0.00    +0.000 C 
ENDBRANCH   8  10
ENDBRANCH   4   5
ENDBRANCH   1   4
BRANCH   1  13
ATOM     13  C   UNL     1       5.373   5.378  18.496  0.00  0.00    +0.000 C 
BRANCH  13  14
ATOM     14  C   UNL     1       4.370   4.638  19.351  0.00  0.00    +0.000 A 
ATOM     15  C   UNL     1       4.500   3.265  19.601  0.00  0.00    +0.000 A 
ATOM     16  C   UNL     1       3.587   2.612  20.438  0.00  0.00    +0.000 A 
ATOM     17  C   UNL     1       2.540   3.326  21.035  0.00  0.00    +0.000 A 
ATOM     18  C   UNL     1       2.396   4.689  20.775  0.00  0.00    +0.000 A 
ATOM     19  C   UNL     1       3.296   5.325  19.928  0.00  0.00    +0.000 A 
ATOM     20  F   UNL     1       3.119   6.630  19.674  0.00  0.00    +0.000 F 
BRANCH  17  21
ATOM     21  C   UNL     1       1.626   2.662  21.916  0.00  0.00    +0.000 C 
ATOM     22  N   UNL     1       0.883   2.122  22.630  0.00  0.00    +0.000 NA
ENDBRANCH  17  21
ENDBRANCH  13  14
ENDBRANCH   1  13
TORSDOF 7
ENDMDL
MODEL 8
REMARK VINA RESULT:      -6.8      2.787      4.936
REMARK  Name = 
REMARK  8 active torsions:
REMARK  status: ('A' for Active; 'I' for Inactive)
REMARK    1  A    between atoms: C_1  and  C_2
REMARK    2  A    between atoms: C_2  and  N_3
REMARK    3  A    between atoms: N_3  and  C_4
REMARK    4  A    between atoms: N_3  and  C_13
REMARK    5  A    between atoms: C_4  and  C_5
REMARK    6  A    between atoms: C_8  and  C_9
REMARK    7  A    between atoms: C_13  and  C_14
REMARK    8  A    between atoms: C_17  and  C_18
REMARK                            x       y       z     vdW  Elec       q    Type
REMARK                         _______ _______ _______ _____ _____    ______ ____
ROOT
ATOM      1  N   UNL     1       4.593   5.292  16.415  0.00  0.00    +0.000 NA
ENDROOT
BRANCH   1   3
ATOM      2  C   UNL     1       6.812   4.662  15.348  0.00  0.00    +0.000 C 
ATOM      3  C   UNL     1       5.699   5.692  15.520  0.00  0.00    +0.000 C 
ENDBRANCH   1   3
BRANCH   1   4
ATOM      4  C   UNL     1       4.366   3.821  16.472  0.00  0.00    +0.000 C 
BRANCH   4   5
ATOM      5  C   UNL     1       3.217   3.392  17.331  0.00  0.00    +0.000 A 
ATOM      6  N   UNL     1       1.936   3.542  16.963  0.00  0.00    +0.000 NA
ATOM      7  O   UNL     1       1.229   3.088  18.081  0.00  0.00    +0.000 OA
ATOM      8  C   UNL     1       2.162   2.690  18.998  0.00  0.00    +0.000 A 
ATOM      9  N   UNL     1       3.394   2.832  18.569  0.00  0.00    +0.000 NA
BRANCH   8  10
ATOM     10  C   UNL     1       1.817   2.125  20.364  0.00  0.00    +0.000 C 
ATOM     11  C   UNL     1       2.599   2.658  21.551  0.00  0.00    +0.000 C 
ATOM     12  C   UNL     1       1.165   3.027  21.394  0.00  0.00    +0.000 C 
ENDBRANCH   8  10
ENDBRANCH   4   5
ENDBRANCH   1   4
BRANCH   1  13
ATOM     13  C   UNL     1       4.828   5.886  17.752  0.00  0.00    +0.000 C 
BRANCH  13  14
ATOM     14  C   UNL     1       3.754   6.846  18.211  0.00  0.00    +0.000 A 
ATOM     15  C   UNL     1       3.403   7.964  17.443  0.00  0.00    +0.000 A 
ATOM     16  C   UNL     1       2.371   8.811  17.863  0.00  0.00    +0.000 A 
ATOM     17  C   UNL     1       1.678   8.544  19.051  0.00  0.00    +0.000 A 
ATOM     18  C   UNL     1       2.036   7.443  19.828  0.00  0.00    +0.000 A 
ATOM     19  C   UNL     1       3.075   6.618  19.412  0.00  0.00    +0.000 A 
ATOM     20  F   UNL     1       3.416   5.581  20.191  0.00  0.00    +0.000 F 
BRANCH  17  21
ATOM     21  C   UNL     1       0.600   9.394  19.462  0.00  0.00    +0.000 C 
ATOM     22  N   UNL     1      -0.275  10.084  19.794  0.00  0.00    +0.000 NA
ENDBRANCH  17  21
ENDBRANCH  13  14
ENDBRANCH   1  13
TORSDOF 7
ENDMDL
MODEL 9
REMARK VINA RESULT:      -6.7      1.710      2.477
REMARK  Name = 
REMARK  8 active torsions:
REMARK  status: ('A' for Active; 'I' for Inactive)
REMARK    1  A    between atoms: C_1  and  C_2
REMARK    2  A    between atoms: C_2  and  N_3
REMARK    3  A    between atoms: N_3  and  C_4
REMARK    4  A    between atoms: N_3  and  C_13
REMARK    5  A    between atoms: C_4  and  C_5
REMARK    6  A    between atoms: C_8  and  C_9
REMARK    7  A    between atoms: C_13  and  C_14
REMARK    8  A    between atoms: C_17  and  C_18
REMARK                            x       y       z     vdW  Elec       q    Type
REMARK                         _______ _______ _______ _____ _____    ______ ____
ROOT
ATOM      1  N   UNL     1       4.206   4.318  18.538  0.00  0.00    +0.000 NA
ENDROOT
BRANCH   1   3
ATOM      2  C   UNL     1       2.594   2.543  17.693  0.00  0.00    +0.000 C 
ATOM      3  C   UNL     1       3.966   2.884  18.268  0.00  0.00    +0.000 C 
ENDBRANCH   1   3
BRANCH   1   4
ATOM      4  C   UNL     1       5.552   4.793  18.112  0.00  0.00    +0.000 C 
BRANCH   4   5
ATOM      5  C   UNL     1       5.754   4.869  16.630  0.00  0.00    +0.000 A 
ATOM      6  N   UNL     1       5.714   6.023  15.948  0.00  0.00    +0.000 NA
ATOM      7  O   UNL     1       5.871   5.613  14.620  0.00  0.00    +0.000 OA
ATOM      8  C   UNL     1       6.013   4.254  14.646  0.00  0.00    +0.000 A 
ATOM      9  N   UNL     1       5.976   3.758  15.860  0.00  0.00    +0.000 NA
BRANCH   8  10
ATOM     10  C   UNL     1       6.211   3.401  13.406  0.00  0.00    +0.000 C 
ATOM     11  C   UNL     1       5.211   3.577  12.278  0.00  0.00    +0.000 C 
ATOM     12  C   UNL     1       6.605   4.070  12.103  0.00  0.00    +0.000 C 
ENDBRANCH   8  10
ENDBRANCH   4   5
ENDBRANCH   1   4
BRANCH   1  13
ATOM     13  C   UNL     1       3.104   5.104  17.933  0.00  0.00    +0.000 C 
BRANCH  13  14
ATOM     14  C   UNL     1       2.509   6.154  18.843  0.00  0.00    +0.000 A 
ATOM     15  C   UNL     1       2.018   5.821  20.113  0.00  0.00    +0.000 A 
ATOM     16  C   UNL     1       1.518   6.818  20.958  0.00  0.00    +0.000 A 
ATOM     17  C   UNL     1       1.509   8.157  20.543  0.00  0.00    +0.000 A 
ATOM     18  C   UNL     1       1.980   8.491  19.274  0.00  0.00    +0.000 A 
ATOM     19  C   UNL     1       2.457   7.491  18.434  0.00  0.00    +0.000 A 
ATOM     20  F   UNL     1       2.880   7.835  17.209  0.00  0.00    +0.000 F 
BRANCH  17  21
ATOM     21  C   UNL     1       1.026   9.180  21.423  0.00  0.00    +0.000 C 
ATOM     22  N   UNL     1       0.632  10.009  22.136  0.00  0.00    +0.000 NA
ENDBRANCH  17  21
ENDBRANCH  13  14
ENDBRANCH   1  13
TORSDOF 7
ENDMDL
