MODEL 1
REMARK VINA RESULT:      -7.1      0.000      0.000
REMARK  Name = 
REMARK  4 active torsions:
REMARK  status: ('A' for Active; 'I' for Inactive)
REMARK    1  A    between atoms: C_1  and  C_2
REMARK    2  A    between atoms: C_11  and  C_12
REMARK    3  A    between atoms: C_12  and  O_14
REMARK    4  A    between atoms: O_14  and  C_15
REMARK                            x       y       z     vdW  Elec       q    Type
REMARK                         _______ _______ _______ _____ _____    ______ ____
ROOT
ATOM      1  C   UNL     1       1.722   2.858  22.281  0.00  0.00    +0.000 C 
ATOM      2  C   UNL     1       1.204   3.063  20.904  0.00  0.00    +0.000 C 
ATOM      3  C   UNL     1       1.889   3.249  19.758  0.00  0.00    +0.000 C 
ATOM      4  C   UNL     1       1.162   2.811  18.539  0.00  0.00    +0.000 C 
ATOM      5  O   UNL     1       0.080   2.239  18.513  0.00  0.00    +0.000 OA
ATOM      6  O   UNL     1       1.955   2.984  17.465  0.00  0.00    +0.000 OA
ATOM      7  C   UNL     1       3.268   3.341  17.875  0.00  0.00    +0.000 C 
ATOM      8  C   UNL     1       4.214   2.372  17.265  0.00  0.00    +0.000 C 
ATOM      9  C   UNL     1       4.932   2.943  16.293  0.00  0.00    +0.000 C 
ATOM     10  C   UNL     1       4.617   4.402  16.128  0.00  0.00    +0.000 C 
ATOM     11  C   UNL     1       5.845   5.244  16.157  0.00  0.00    +0.000 C 
ATOM     12  C   UNL     1       6.201   5.894  17.273  0.00  0.00    +0.000 C 
ATOM     13  O   UNL     1       5.534   5.860  18.466  0.00  0.00    +0.000 OA
ATOM     14  C   UNL     1       4.151   5.494  18.462  0.00  0.00    +0.000 C 
ATOM     15  O   UNL     1       3.774   4.808  19.680  0.00  0.00    +0.000 OA
ATOM     16  C   UNL     1       3.315   3.483  19.386  0.00  0.00    +0.000 C 
ATOM     17  C   UNL     1       3.641   4.685  17.279  0.00  0.00    +0.000 C 
ENDROOT
BRANCH  11  18
ATOM     18  C   UNL     1       6.655   5.240  14.911  0.00  0.00    +0.000 C 
ATOM     19  O   UNL     1       7.813   5.639  14.873  0.00  0.00    +0.000 OA
BRANCH  18  20
ATOM     20  O   UNL     1       5.974   4.751  13.847  0.00  0.00    +0.000 OA
ATOM     21  C   UNL     1       6.793   4.013  12.933  0.00  0.00    +0.000 C 
ENDBRANCH  18  20
ENDBRANCH  11  18
TORSDOF 2
ENDMDL
MODEL 2
REMARK VINA RESULT:      -6.8      2.142      2.602
REMARK  Name = 
REMARK  4 active torsions:
REMARK  status: ('A' for Active; 'I' for Inactive)
REMARK    1  A    between atoms: C_1  and  C_2
REMARK    2  A    between atoms: C_11  and  C_12
REMARK    3  A    between atoms: C_12  and  O_14
REMARK    4  A    between atoms: O_14  and  C_15
REMARK                            x       y       z     vdW  Elec       q    Type
REMARK                         _______ _______ _______ _____ _____    ______ ____
ROOT
ATOM      1  C   UNL     1       1.224   8.173  21.620  0.00  0.00    +0.000 C 
ATOM      2  C   UNL     1       1.169   6.794  21.067  0.00  0.00    +0.000 C 
ATOM      3  C   UNL     1       2.031   6.178  20.235  0.00  0.00    +0.000 C 
ATOM      4  C   UNL     1       2.049   4.698  20.367  0.00  0.00    +0.000 C 
ATOM      5  O   UNL     1       1.435   4.043  21.197  0.00  0.00    +0.000 OA
ATOM      6  O   UNL     1       2.982   4.192  19.540  0.00  0.00    +0.000 OA
ATOM      7  C   UNL     1       3.755   5.239  18.970  0.00  0.00    +0.000 C 
ATOM      8  C   UNL     1       5.185   4.957  19.258  0.00  0.00    +0.000 C 
ATOM      9  C   UNL     1       5.839   4.587  18.153  0.00  0.00    +0.000 C 
ATOM     10  C   UNL     1       4.963   4.610  16.933  0.00  0.00    +0.000 C 
ATOM     11  C   UNL     1       5.571   5.396  15.824  0.00  0.00    +0.000 C 
ATOM     12  C   UNL     1       5.186   6.657  15.589  0.00  0.00    +0.000 C 
ATOM     13  O   UNL     1       4.253   7.354  16.304  0.00  0.00    +0.000 OA
ATOM     14  C   UNL     1       3.288   6.620  17.063  0.00  0.00    +0.000 C 
ATOM     15  O   UNL     1       2.884   7.336  18.255  0.00  0.00    +0.000 OA
ATOM     16  C   UNL     1       3.219   6.584  19.427  0.00  0.00    +0.000 C 
ATOM     17  C   UNL     1       3.643   5.194  17.458  0.00  0.00    +0.000 C 
ENDROOT
BRANCH  11  18
ATOM     18  C   UNL     1       6.657   4.712  15.076  0.00  0.00    +0.000 C 
ATOM     19  O   UNL     1       7.799   5.154  15.015  0.00  0.00    +0.000 OA
BRANCH  18  20
ATOM     20  O   UNL     1       6.244   3.565  14.485  0.00  0.00    +0.000 OA
ATOM     21  C   UNL     1       6.248   3.624  13.054  0.00  0.00    +0.000 C 
ENDBRANCH  18  20
ENDBRANCH  11  18
TORSDOF 2
ENDMDL
MODEL 3
REMARK VINA RESULT:      -6.4      0.769      1.035
REMARK  Name = 
REMARK  4 active torsions:
REMARK  status: ('A' for Active; 'I' for Inactive)
REMARK    1  A    between atoms: C_1  and  C_2
REMARK    2  A    between atoms: C_11  and  C_12
REMARK    3  A    between atoms: C_12  and  O_14
REMARK    4  A    between atoms: O_14  and  C_15
REMARK                            x       y       z     vdW  Elec       q    Type
REMARK                         _______ _______ _______ _____ _____    ______ ____
ROOT
ATOM      1  C   UNL     1       2.130   3.365  22.094  0.00  0.00    +0.000 C 
ATOM      2  C   UNL     1       1.563   3.512  20.728  0.00  0.00    +0.000 C 
ATOM      3  C   UNL     1       2.204   3.571  19.545  0.00  0.00    +0.000 C 
ATOM      4  C   UNL     1       1.393   3.103  18.391  0.00  0.00    +0.000 C 
ATOM      5  O   UNL     1       0.275   2.609  18.451  0.00  0.00    +0.000 OA
ATOM      6  O   UNL     1       2.145   3.145  17.276  0.00  0.00    +0.000 OA
ATOM      7  C   UNL     1       3.497   3.436  17.603  0.00  0.00    +0.000 C 
ATOM      8  C   UNL     1       4.346   2.362  17.025  0.00  0.00    +0.000 C 
ATOM      9  C   UNL     1       5.054   2.812  15.986  0.00  0.00    +0.000 C 
ATOM     10  C   UNL     1       4.832   4.276  15.730  0.00  0.00    +0.000 C 
ATOM     11  C   UNL     1       6.114   5.029  15.648  0.00  0.00    +0.000 C 
ATOM     12  C   UNL     1       6.566   5.726  16.698  0.00  0.00    +0.000 C 
ATOM     13  O   UNL     1       5.955   5.821  17.917  0.00  0.00    +0.000 OA
ATOM     14  C   UNL     1       4.551   5.555  17.998  0.00  0.00    +0.000 C 
ATOM     15  O   UNL     1       4.185   4.983  19.277  0.00  0.00    +0.000 OA
ATOM     16  C   UNL     1       3.624   3.677  19.097  0.00  0.00    +0.000 C 
ATOM     17  C   UNL     1       3.933   4.705  16.898  0.00  0.00    +0.000 C 
ENDROOT
BRANCH  11  18
ATOM     18  C   UNL     1       6.863   4.882  14.372  0.00  0.00    +0.000 C 
ATOM     19  O   UNL     1       6.463   4.186  13.446  0.00  0.00    +0.000 OA
BRANCH  18  20
ATOM     20  O   UNL     1       8.013   5.597  14.356  0.00  0.00    +0.000 OA
ATOM     21  C   UNL     1       8.514   5.847  13.038  0.00  0.00    +0.000 C 
ENDBRANCH  18  20
ENDBRANCH  11  18
TORSDOF 2
ENDMDL
MODEL 4
REMARK VINA RESULT:      -6.4      2.508      6.442
REMARK  Name = 
REMARK  4 active torsions:
REMARK  status: ('A' for Active; 'I' for Inactive)
REMARK    1  A    between atoms: C_1  and  C_2
REMARK    2  A    between atoms: C_11  and  C_12
REMARK    3  A    between atoms: C_12  and  O_14
REMARK    4  A    between atoms: O_14  and  C_15
REMARK                            x       y       z     vdW  Elec       q    Type
REMARK                         _______ _______ _______ _____ _____    ______ ____
ROOT
ATOM      1  C   UNL     1       7.038   4.838  13.442  0.00  0.00    +0.000 C 
ATOM      2  C   UNL     1       7.453   4.945  14.865  0.00  0.00    +0.000 C 
ATOM      3  C   UNL     1       6.687   5.066  15.966  0.00  0.00    +0.000 C 
ATOM      4  C   UNL     1       7.315   4.539  17.204  0.00  0.00    +0.000 C 
ATOM      5  O   UNL     1       8.386   3.950  17.273  0.00  0.00    +0.000 OA
ATOM      6  O   UNL     1       6.446   4.653  18.225  0.00  0.00    +0.000 OA
ATOM      7  C   UNL     1       5.171   5.056  17.744  0.00  0.00    +0.000 C 
ATOM      8  C   UNL     1       4.172   4.063  18.217  0.00  0.00    +0.000 C 
ATOM      9  C   UNL     1       3.389   4.580  19.168  0.00  0.00    +0.000 C 
ATOM     10  C   UNL     1       3.705   6.020  19.452  0.00  0.00    +0.000 C 
ATOM     11  C   UNL     1       2.492   6.881  19.388  0.00  0.00    +0.000 C 
ATOM     12  C   UNL     1       2.227   7.608  18.295  0.00  0.00    +0.000 C 
ATOM     13  O   UNL     1       2.981   7.641  17.155  0.00  0.00    +0.000 OA
ATOM     14  C   UNL     1       4.356   7.256  17.237  0.00  0.00    +0.000 C 
ATOM     15  O   UNL     1       4.817   6.645  16.007  0.00  0.00    +0.000 OA
ATOM     16  C   UNL     1       5.239   5.297  16.246  0.00  0.00    +0.000 C 
ATOM     17  C   UNL     1       4.768   6.363  18.398  0.00  0.00    +0.000 C 
ENDROOT
BRANCH  11  18
ATOM     18  C   UNL     1       1.591   6.808  20.567  0.00  0.00    +0.000 C 
ATOM     19  O   UNL     1       0.997   5.784  20.884  0.00  0.00    +0.000 OA
BRANCH  18  20
ATOM     20  O   UNL     1       1.509   7.983  21.236  0.00  0.00    +0.000 OA
ATOM     21  C   UNL     1       0.166   8.448  21.416  0.00  0.00    +0.000 C 
ENDBRANCH  18  20
ENDBRANCH  11  18
TORSDOF 2
ENDMDL
MODEL 5
REMARK VINA RESULT:      -6.3      2.032      6.079
REMARK  Name = 
REMARK  4 active torsions:
REMARK  status: ('A' for Active; 'I' for Inactive)
REMARK    1  A    between atoms: C_1  and  C_2
REMARK    2  A    between atoms: C_11  and  C_12
REMARK    3  A    between atoms: C_12  and  O_14
REMARK    4  A    between atoms: O_14  and  C_15
REMARK                            x       y       z     vdW  Elec       q    Type
REMARK                         _______ _______ _______ _____ _____    ______ ____
ROOT
ATOM      1  C   UNL     1       7.700   8.359  17.366  0.00  0.00    +0.000 C 
ATOM      2  C   UNL     1       7.832   6.978  17.896  0.00  0.00    +0.000 C 
ATOM      3  C   UNL     1       6.883   6.033  18.049  0.00  0.00    +0.000 C 
ATOM      4  C   UNL     1       7.400   4.641  18.001  0.00  0.00    +0.000 C 
ATOM      5  O   UNL     1       8.551   4.309  17.754  0.00  0.00    +0.000 OA
ATOM      6  O   UNL     1       6.368   3.782  18.102  0.00  0.00    +0.000 OA
ATOM      7  C   UNL     1       5.135   4.484  18.028  0.00  0.00    +0.000 C 
ATOM      8  C   UNL     1       4.331   3.878  16.935  0.00  0.00    +0.000 C 
ATOM      9  C   UNL     1       3.300   3.182  17.420  0.00  0.00    +0.000 C 
ATOM     10  C   UNL     1       3.216   3.249  18.918  0.00  0.00    +0.000 C 
ATOM     11  C   UNL     1       1.863   3.663  19.383  0.00  0.00    +0.000 C 
ATOM     12  C   UNL     1       1.623   4.929  19.747  0.00  0.00    +0.000 C 
ATOM     13  O   UNL     1       2.529   5.952  19.727  0.00  0.00    +0.000 OA
ATOM     14  C   UNL     1       3.922   5.628  19.755  0.00  0.00    +0.000 C 
ATOM     15  O   UNL     1       4.715   6.601  19.033  0.00  0.00    +0.000 OA
ATOM     16  C   UNL     1       5.396   5.977  17.937  0.00  0.00    +0.000 C 
ATOM     17  C   UNL     1       4.330   4.238  19.290  0.00  0.00    +0.000 C 
ENDROOT
BRANCH  11  18
ATOM     18  C   UNL     1       0.818   2.607  19.335  0.00  0.00    +0.000 C 
ATOM     19  O   UNL     1       0.093   2.437  18.362  0.00  0.00    +0.000 OA
BRANCH  18  20
ATOM     20  O   UNL     1       0.768   1.870  20.471  0.00  0.00    +0.000 OA
ATOM     21  C   UNL     1       1.341   2.528  21.606  0.00  0.00    +0.000 C 
ENDBRANCH  18  20
ENDBRANCH  11  18
TORSDOF 2
ENDMDL
MODEL 6
REMARK VINA RESULT:      -6.2      1.861      6.112
REMARK  Name = 
REMARK  4 active torsions:
REMARK  status: ('A' for Active; 'I' for Inactive)
REMARK    1  A    between atoms: C_1  and  C_2
REMARK    2  A    between atoms: C_11  and  C_12
REMARK    3  A    between atoms: C_12  and  O_14
REMARK    4  A    between atoms: O_14  and  C_15
REMARK                            x       y       z     vdW  Elec       q    Type
REMARK                         _______ _______ _______ _____ _____    ______ ____
ROOT
ATOM      1  C   UNL     1       8.282   7.845  18.112  0.00  0.00    +0.000 C 
ATOM      2  C   UNL     1       7.398   7.232  17.087  0.00  0.00    +0.000 C 
ATOM      3  C   UNL     1       6.262   6.527  17.257  0.00  0.00    +0.000 C 
ATOM      4  C   UNL     1       5.327   6.596  16.104  0.00  0.00    +0.000 C 
ATOM      5  O   UNL     1       5.469   7.284  15.103  0.00  0.00    +0.000 OA
ATOM      6  O   UNL     1       4.207   5.912  16.402  0.00  0.00    +0.000 OA
ATOM      7  C   UNL     1       4.216   5.523  17.769  0.00  0.00    +0.000 C 
ATOM      8  C   UNL     1       2.967   6.031  18.394  0.00  0.00    +0.000 C 
ATOM      9  C   UNL     1       2.121   5.034  18.664  0.00  0.00    +0.000 C 
ATOM     10  C   UNL     1       2.686   3.689  18.308  0.00  0.00    +0.000 C 
ATOM     11  C   UNL     1       2.602   2.730  19.444  0.00  0.00    +0.000 C 
ATOM     12  C   UNL     1       3.671   2.489  20.215  0.00  0.00    +0.000 C 
ATOM     13  O   UNL     1       4.901   3.070  20.080  0.00  0.00    +0.000 OA
ATOM     14  C   UNL     1       5.255   3.627  18.811  0.00  0.00    +0.000 C 
ATOM     15  O   UNL     1       6.138   4.766  18.952  0.00  0.00    +0.000 OA
ATOM     16  C   UNL     1       5.524   5.944  18.416  0.00  0.00    +0.000 C 
ATOM     17  C   UNL     1       4.122   4.014  17.872  0.00  0.00    +0.000 C 
ENDROOT
BRANCH  11  18
ATOM     18  C   UNL     1       1.260   2.142  19.689  0.00  0.00    +0.000 C 
ATOM     19  O   UNL     1       0.504   1.817  18.781  0.00  0.00    +0.000 OA
BRANCH  18  20
ATOM     20  O   UNL     1       0.981   2.008  21.008  0.00  0.00    +0.000 OA
ATOM     21  C   UNL     1       1.461   3.094  21.808  0.00  0.00    +0.000 C 
ENDBRANCH  18  20
ENDBRANCH  11  18
TORSDOF 2
ENDMDL
MODEL 7
REMARK VINA RESULT:      -6.2      1.426      1.484
REMARK  Name = 
REMARK  4 active torsions:
REMARK  status: ('A' for Active; 'I' for Inactive)
REMARK    1  A    between atoms: C_1  and  C_2
REMARK    2  A    between atoms: C_11  and  C_12
REMARK    3  A    between atoms: C_12  and  O_14
REMARK    4  A    between atoms: O_14  and  C_15
REMARK                            x       y       z     vdW  Elec       q    Type
REMARK                         _______ _______ _______ _____ _____    ______ ____
ROOT
ATOM      1  C   UNL     1       2.614   2.486  22.062  0.00  0.00    +0.000 C 
ATOM      2  C   UNL     1       2.275   3.604  21.144  0.00  0.00    +0.000 C 
ATOM      3  C   UNL     1       2.801   3.903  19.940  0.00  0.00    +0.000 C 
ATOM      4  C   UNL     1       1.878   4.643  19.041  0.00  0.00    +0.000 C 
ATOM      5  O   UNL     1       0.706   4.906  19.273  0.00  0.00    +0.000 OA
ATOM      6  O   UNL     1       2.478   4.836  17.852  0.00  0.00    +0.000 OA
ATOM      7  C   UNL     1       3.699   4.110  17.793  0.00  0.00    +0.000 C 
ATOM      8  C   UNL     1       3.653   3.241  16.589  0.00  0.00    +0.000 C 
ATOM      9  C   UNL     1       4.484   3.684  15.641  0.00  0.00    +0.000 C 
ATOM     10  C   UNL     1       5.259   4.895  16.076  0.00  0.00    +0.000 C 
ATOM     11  C   UNL     1       6.724   4.722  15.873  0.00  0.00    +0.000 C 
ATOM     12  C   UNL     1       7.520   4.384  16.895  0.00  0.00    +0.000 C 
ATOM     13  O   UNL     1       7.116   4.149  18.180  0.00  0.00    +0.000 OA
ATOM     14  C   UNL     1       5.873   4.708  18.615  0.00  0.00    +0.000 C 
ATOM     15  O   UNL     1       5.225   3.872  19.604  0.00  0.00    +0.000 OA
ATOM     16  C   UNL     1       3.953   3.421  19.122  0.00  0.00    +0.000 C 
ATOM     17  C   UNL     1       4.850   5.065  17.547  0.00  0.00    +0.000 C 
ENDROOT
BRANCH  11  18
ATOM     18  C   UNL     1       7.199   4.876  14.474  0.00  0.00    +0.000 C 
ATOM     19  O   UNL     1       8.049   5.697  14.149  0.00  0.00    +0.000 OA
BRANCH  18  20
ATOM     20  O   UNL     1       6.596   4.015  13.619  0.00  0.00    +0.000 OA
ATOM     21  C   UNL     1       7.064   4.123  12.270  0.00  0.00    +0.000 C 
ENDBRANCH  18  20
ENDBRANCH  11  18
TORSDOF 2
ENDMDL
MODEL 8
REMARK VINA RESULT:      -6.0      9.494     12.169
REMARK  Name = 
REMARK  4 active torsions:
REMARK  status: ('A' for Active; 'I' for Inactive)
REMARK    1  A    between atoms: C_1  and  C_2
REMARK    2  A    between atoms: C_11  and  C_12
REMARK    3  A    between atoms: C_12  and  O_14
REMARK    4  A    between atoms: O_14  and  C_15
REMARK                            x       y       z     vdW  Elec       q    Type
REMARK                         _______ _______ _______ _____ _____    ______ ____
ROOT
ATOM      1  C   UNL     1       8.270   8.750  17.838  0.00  0.00    +0.000 C 
ATOM      2  C   UNL     1       8.922   9.370  19.020  0.00  0.00    +0.000 C 
ATOM      3  C   UNL     1       9.308  10.648  19.205  0.00  0.00    +0.000 C 
ATOM      4  C   UNL     1       9.337  11.074  20.627  0.00  0.00    +0.000 C 
ATOM      5  O   UNL     1       8.967  10.409  21.585  0.00  0.00    +0.000 OA
ATOM      6  O   UNL     1       9.674  12.375  20.692  0.00  0.00    +0.000 OA
ATOM      7  C   UNL     1       9.701  12.943  19.390  0.00  0.00    +0.000 C 
ATOM      8  C   UNL     1       8.803  14.127  19.392  0.00  0.00    +0.000 C 
ATOM      9  C   UNL     1       9.501  15.264  19.327  0.00  0.00    +0.000 C 
ATOM     10  C   UNL     1      10.980  15.025  19.221  0.00  0.00    +0.000 C 
ATOM     11  C   UNL     1      11.584  15.761  18.077  0.00  0.00    +0.000 C 
ATOM     12  C   UNL     1      11.841  15.136  16.921  0.00  0.00    +0.000 C 
ATOM     13  O   UNL     1      11.583  13.821  16.649  0.00  0.00    +0.000 OA
ATOM     14  C   UNL     1      11.449  12.913  17.746  0.00  0.00    +0.000 C 
ATOM     15  O   UNL     1      10.521  11.841  17.446  0.00  0.00    +0.000 OA
ATOM     16  C   UNL     1       9.414  11.870  18.355  0.00  0.00    +0.000 C 
ATOM     17  C   UNL     1      11.082  13.497  19.102  0.00  0.00    +0.000 C 
ENDROOT
BRANCH  11  18
ATOM     18  C   UNL     1      11.798  17.216  18.292  0.00  0.00    +0.000 C 
ATOM     19  O   UNL     1      11.516  18.058  17.448  0.00  0.00    +0.000 OA
BRANCH  18  20
ATOM     20  O   UNL     1      12.327  17.492  19.508  0.00  0.00    +0.000 OA
ATOM     21  C   UNL     1      11.728  18.624  20.150  0.00  0.00    +0.000 C 
ENDBRANCH  18  20
ENDBRANCH  11  18
TORSDOF 2
ENDMDL
MODEL 9
REMARK VINA RESULT:      -6.0      3.382      5.131
REMARK  Name = 
REMARK  4 active torsions:
REMARK  status: ('A' for Active; 'I' for Inactive)
REMARK    1  A    between atoms: C_1  and  C_2
REMARK    2  A    between atoms: C_11  and  C_12
REMARK    3  A    between atoms: C_12  and  O_14
REMARK    4  A    between atoms: O_14  and  C_15
REMARK                            x       y       z     vdW  Elec       q    Type
REMARK                         _______ _______ _______ _____ _____    ______ ____
ROOT
ATOM      1  C   UNL     1       5.006   1.709  20.938  0.00  0.00    +0.000 C 
ATOM      2  C   UNL     1       4.200   1.947  19.712  0.00  0.00    +0.000 C 
ATOM      3  C   UNL     1       3.801   3.114  19.171  0.00  0.00    +0.000 C 
ATOM      4  C   UNL     1       3.577   3.059  17.704  0.00  0.00    +0.000 C 
ATOM      5  O   UNL     1       3.806   2.101  16.977  0.00  0.00    +0.000 OA
ATOM      6  O   UNL     1       3.242   4.284  17.260  0.00  0.00    +0.000 OA
ATOM      7  C   UNL     1       3.401   5.243  18.297  0.00  0.00    +0.000 C 
ATOM      8  C   UNL     1       4.297   6.315  17.792  0.00  0.00    +0.000 C 
ATOM      9  C   UNL     1       3.622   7.446  17.571  0.00  0.00    +0.000 C 
ATOM     10  C   UNL     1       2.171   7.331  17.939  0.00  0.00    +0.000 C 
ATOM     11  C   UNL     1       1.736   8.428  18.847  0.00  0.00    +0.000 C 
ATOM     12  C   UNL     1       1.638   8.223  20.167  0.00  0.00    +0.000 C 
ATOM     13  O   UNL     1       1.922   7.056  20.819  0.00  0.00    +0.000 OA
ATOM     14  C   UNL     1       1.898   5.836  20.072  0.00  0.00    +0.000 C 
ATOM     15  O   UNL     1       2.851   4.873  20.584  0.00  0.00    +0.000 OA
ATOM     16  C   UNL     1       3.821   4.550  19.580  0.00  0.00    +0.000 C 
ATOM     17  C   UNL     1       2.076   5.931  18.564  0.00  0.00    +0.000 C 
ENDROOT
BRANCH  11  18
ATOM     18  C   UNL     1       1.504   9.744  18.198  0.00  0.00    +0.000 C 
ATOM     19  O   UNL     1       2.407  10.541  17.976  0.00  0.00    +0.000 OA
BRANCH  18  20
ATOM     20  O   UNL     1       0.202   9.949  17.884  0.00  0.00    +0.000 OA
ATOM     21  C   UNL     1      -0.428  10.957  18.683  0.00  0.00    +0.000 C 
ENDBRANCH  18  20
ENDBRANCH  11  18
TORSDOF 2
ENDMDL
