MODEL 1
REMARK VINA RESULT:      -8.5      0.000      0.000
REMARK  Name = 
REMARK  2 active torsions:
REMARK  status: ('A' for Active; 'I' for Inactive)
REMARK    1  A    between atoms: C_5  and  C_6
REMARK    2  A    between atoms: C_9  and  C_10
REMARK                            x       y       z     vdW  Elec       q    Type
REMARK                         _______ _______ _______ _____ _____    ______ ____
ROOT
ATOM      1  C   UNL     1       5.019   4.058  18.416  0.00  0.00    +0.000 A 
ATOM      2  N   UNL     1       6.269   4.444  18.720  0.00  0.00    +0.000 NA
ATOM      3  O   UNL     1       6.882   4.587  17.477  0.00  0.00    +0.000 OA
ATOM      4  C   UNL     1       5.941   4.274  16.539  0.00  0.00    +0.000 A 
ATOM      5  N   UNL     1       4.784   3.944  17.064  0.00  0.00    +0.000 NA
ENDROOT
BRANCH   1  10
ATOM      6  F   UNL     1       1.071   2.936  22.222  0.00  0.00    +0.000 F 
ATOM      7  C   UNL     1       2.013   3.210  21.309  0.00  0.00    +0.000 A 
ATOM      8  C   UNL     1       3.044   2.302  21.101  0.00  0.00    +0.000 A 
ATOM      9  C   UNL     1       4.028   2.585  20.149  0.00  0.00    +0.000 A 
ATOM     10  C   UNL     1       3.984   3.778  19.404  0.00  0.00    +0.000 A 
ATOM     11  C   UNL     1       2.935   4.683  19.630  0.00  0.00    +0.000 A 
ATOM     12  C   UNL     1       1.961   4.391  20.579  0.00  0.00    +0.000 A 
ATOM     13  F   UNL     1       0.964   5.264  20.784  0.00  0.00    +0.000 F 
ENDBRANCH   1  10
BRANCH   4  14
ATOM     14  C   UNL     1       6.336   4.346  15.139  0.00  0.00    +0.000 A 
ATOM     15  C   UNL     1       5.608   3.619  14.178  0.00  0.00    +0.000 A 
ATOM     16  C   UNL     1       5.960   3.660  12.826  0.00  0.00    +0.000 A 
ATOM     17  C   UNL     1       7.046   4.429  12.428  0.00  0.00    +0.000 A 
ATOM     18  F   UNL     1       7.386   4.466  11.133  0.00  0.00    +0.000 F 
ATOM     19  C   UNL     1       7.773   5.152  13.365  0.00  0.00    +0.000 A 
ATOM     20  F   UNL     1       8.821   5.893  12.978  0.00  0.00    +0.000 F 
ATOM     21  C   UNL     1       7.428   5.118  14.713  0.00  0.00    +0.000 A 
ENDBRANCH   4  14
TORSDOF 2
ENDMDL
MODEL 2
REMARK VINA RESULT:      -8.4      0.485      8.025
REMARK  Name = 
REMARK  2 active torsions:
REMARK  status: ('A' for Active; 'I' for Inactive)
REMARK    1  A    between atoms: C_5  and  C_6
REMARK    2  A    between atoms: C_9  and  C_10
REMARK                            x       y       z     vdW  Elec       q    Type
REMARK                         _______ _______ _______ _____ _____    ______ ____
ROOT
ATOM      1  C   UNL     1       5.988   4.269  16.598  0.00  0.00    +0.000 A 
ATOM      2  N   UNL     1       6.817   4.588  17.605  0.00  0.00    +0.000 NA
ATOM      3  O   UNL     1       6.049   4.371  18.747  0.00  0.00    +0.000 OA
ATOM      4  C   UNL     1       4.827   3.938  18.319  0.00  0.00    +0.000 A 
ATOM      5  N   UNL     1       4.740   3.859  17.011  0.00  0.00    +0.000 NA
ENDROOT
BRANCH   1  10
ATOM      6  F   UNL     1       7.325   4.501  11.168  0.00  0.00    +0.000 F 
ATOM      7  C   UNL     1       7.009   4.449  12.469  0.00  0.00    +0.000 A 
ATOM      8  C   UNL     1       5.922   3.687  12.876  0.00  0.00    +0.000 A 
ATOM      9  C   UNL     1       5.592   3.631  14.234  0.00  0.00    +0.000 A 
ATOM     10  C   UNL     1       6.348   4.338  15.187  0.00  0.00    +0.000 A 
ATOM     11  C   UNL     1       7.442   5.104  14.755  0.00  0.00    +0.000 A 
ATOM     12  C   UNL     1       7.762   5.152  13.402  0.00  0.00    +0.000 A 
ATOM     13  F   UNL     1       8.811   5.887  13.003  0.00  0.00    +0.000 F 
ENDBRANCH   1  10
BRANCH   4  14
ATOM     14  C   UNL     1       3.826   3.637  19.334  0.00  0.00    +0.000 A 
ATOM     15  C   UNL     1       4.031   2.549  20.203  0.00  0.00    +0.000 A 
ATOM     16  C   UNL     1       3.091   2.227  21.186  0.00  0.00    +0.000 A 
ATOM     17  C   UNL     1       1.939   2.992  21.304  0.00  0.00    +0.000 A 
ATOM     18  F   UNL     1       1.036   2.682  22.244  0.00  0.00    +0.000 F 
ATOM     19  C   UNL     1       1.723   4.069  20.454  0.00  0.00    +0.000 A 
ATOM     20  F   UNL     1       0.611   4.806  20.570  0.00  0.00    +0.000 F 
ATOM     21  C   UNL     1       2.656   4.398  19.473  0.00  0.00    +0.000 A 
ENDBRANCH   4  14
TORSDOF 2
ENDMDL
MODEL 3
REMARK VINA RESULT:      -8.4      0.587      1.469
REMARK  Name = 
REMARK  2 active torsions:
REMARK  status: ('A' for Active; 'I' for Inactive)
REMARK    1  A    between atoms: C_5  and  C_6
REMARK    2  A    between atoms: C_9  and  C_10
REMARK                            x       y       z     vdW  Elec       q    Type
REMARK                         _______ _______ _______ _____ _____    ______ ____
ROOT
ATOM      1  C   UNL     1       5.002   4.045  18.375  0.00  0.00    +0.000 A 
ATOM      2  N   UNL     1       6.247   4.456  18.662  0.00  0.00    +0.000 NA
ATOM      3  O   UNL     1       6.846   4.591  17.411  0.00  0.00    +0.000 OA
ATOM      4  C   UNL     1       5.902   4.249  16.487  0.00  0.00    +0.000 A 
ATOM      5  N   UNL     1       4.755   3.907  17.027  0.00  0.00    +0.000 NA
ENDROOT
BRANCH   1  10
ATOM      6  F   UNL     1       1.107   2.911  22.232  0.00  0.00    +0.000 F 
ATOM      7  C   UNL     1       2.036   3.188  21.308  0.00  0.00    +0.000 A 
ATOM      8  C   UNL     1       3.067   2.283  21.085  0.00  0.00    +0.000 A 
ATOM      9  C   UNL     1       4.037   2.569  20.121  0.00  0.00    +0.000 A 
ATOM     10  C   UNL     1       3.980   3.762  19.376  0.00  0.00    +0.000 A 
ATOM     11  C   UNL     1       2.932   4.664  19.617  0.00  0.00    +0.000 A 
ATOM     12  C   UNL     1       1.971   4.369  20.579  0.00  0.00    +0.000 A 
ATOM     13  F   UNL     1       0.975   5.240  20.797  0.00  0.00    +0.000 F 
ENDBRANCH   1  10
BRANCH   4  14
ATOM     14  C   UNL     1       6.284   4.308  15.082  0.00  0.00    +0.000 A 
ATOM     15  C   UNL     1       7.359   5.129  14.694  0.00  0.00    +0.000 A 
ATOM     16  C   UNL     1       7.751   5.214  13.354  0.00  0.00    +0.000 A 
ATOM     17  C   UNL     1       7.067   4.479  12.395  0.00  0.00    +0.000 A 
ATOM     18  F   UNL     1       7.441   4.563  11.112  0.00  0.00    +0.000 F 
ATOM     19  C   UNL     1       6.004   3.665  12.765  0.00  0.00    +0.000 A 
ATOM     20  F   UNL     1       5.346   2.956  11.837  0.00  0.00    +0.000 F 
ATOM     21  C   UNL     1       5.609   3.572  14.097  0.00  0.00    +0.000 A 
ENDBRANCH   4  14
TORSDOF 2
ENDMDL
MODEL 4
REMARK VINA RESULT:      -8.4      0.740      7.977
REMARK  Name = 
REMARK  2 active torsions:
REMARK  status: ('A' for Active; 'I' for Inactive)
REMARK    1  A    between atoms: C_5  and  C_6
REMARK    2  A    between atoms: C_9  and  C_10
REMARK                            x       y       z     vdW  Elec       q    Type
REMARK                         _______ _______ _______ _____ _____    ______ ____
ROOT
ATOM      1  C   UNL     1       6.030   4.256  16.616  0.00  0.00    +0.000 A 
ATOM      2  N   UNL     1       6.879   4.523  17.622  0.00  0.00    +0.000 NA
ATOM      3  O   UNL     1       6.109   4.319  18.765  0.00  0.00    +0.000 OA
ATOM      4  C   UNL     1       4.867   3.946  18.339  0.00  0.00    +0.000 A 
ATOM      5  N   UNL     1       4.769   3.892  17.031  0.00  0.00    +0.000 NA
ENDROOT
BRANCH   1  10
ATOM      6  F   UNL     1       7.426   4.594  11.205  0.00  0.00    +0.000 F 
ATOM      7  C   UNL     1       7.087   4.509  12.499  0.00  0.00    +0.000 A 
ATOM      8  C   UNL     1       7.777   5.269  13.435  0.00  0.00    +0.000 A 
ATOM      9  C   UNL     1       7.425   5.183  14.785  0.00  0.00    +0.000 A 
ATOM     10  C   UNL     1       6.383   4.334  15.203  0.00  0.00    +0.000 A 
ATOM     11  C   UNL     1       5.700   3.573  14.242  0.00  0.00    +0.000 A 
ATOM     12  C   UNL     1       6.057   3.668  12.901  0.00  0.00    +0.000 A 
ATOM     13  F   UNL     1       5.394   2.935  11.994  0.00  0.00    +0.000 F 
ENDBRANCH   1  10
BRANCH   4  14
ATOM     14  C   UNL     1       3.862   3.670  19.356  0.00  0.00    +0.000 A 
ATOM     15  C   UNL     1       4.009   2.541  20.183  0.00  0.00    +0.000 A 
ATOM     16  C   UNL     1       3.062   2.241  21.167  0.00  0.00    +0.000 A 
ATOM     17  C   UNL     1       1.960   3.071  21.328  0.00  0.00    +0.000 A 
ATOM     18  F   UNL     1       1.051   2.783  22.268  0.00  0.00    +0.000 F 
ATOM     19  C   UNL     1       1.803   4.189  20.519  0.00  0.00    +0.000 A 
ATOM     20  F   UNL     1       0.739   4.989  20.676  0.00  0.00    +0.000 F 
ATOM     21  C   UNL     1       2.742   4.496  19.538  0.00  0.00    +0.000 A 
ENDBRANCH   4  14
TORSDOF 2
ENDMDL
MODEL 5
REMARK VINA RESULT:      -8.4      1.283      1.772
REMARK  Name = 
REMARK  2 active torsions:
REMARK  status: ('A' for Active; 'I' for Inactive)
REMARK    1  A    between atoms: C_5  and  C_6
REMARK    2  A    between atoms: C_9  and  C_10
REMARK                            x       y       z     vdW  Elec       q    Type
REMARK                         _______ _______ _______ _____ _____    ______ ____
ROOT
ATOM      1  C   UNL     1       3.870   4.712  17.731  0.00  0.00    +0.000 A 
ATOM      2  N   UNL     1       4.141   6.020  17.593  0.00  0.00    +0.000 NA
ATOM      3  O   UNL     1       4.882   6.081  16.415  0.00  0.00    +0.000 OA
ATOM      4  C   UNL     1       4.986   4.802  15.952  0.00  0.00    +0.000 A 
ATOM      5  N   UNL     1       4.383   3.927  16.723  0.00  0.00    +0.000 NA
ENDROOT
BRANCH   1  10
ATOM      6  F   UNL     1       0.885   2.561  21.949  0.00  0.00    +0.000 F 
ATOM      7  C   UNL     1       1.605   3.073  20.942  0.00  0.00    +0.000 A 
ATOM      8  C   UNL     1       0.980   3.881  20.000  0.00  0.00    +0.000 A 
ATOM      9  C   UNL     1       1.729   4.417  18.949  0.00  0.00    +0.000 A 
ATOM     10  C   UNL     1       3.105   4.145  18.835  0.00  0.00    +0.000 A 
ATOM     11  C   UNL     1       3.717   3.325  19.795  0.00  0.00    +0.000 A 
ATOM     12  C   UNL     1       2.963   2.798  20.839  0.00  0.00    +0.000 A 
ATOM     13  F   UNL     1       3.562   2.017  21.750  0.00  0.00    +0.000 F 
ENDBRANCH   1  10
BRANCH   4  14
ATOM     14  C   UNL     1       5.725   4.592  14.714  0.00  0.00    +0.000 A 
ATOM     15  C   UNL     1       5.221   3.694  13.754  0.00  0.00    +0.000 A 
ATOM     16  C   UNL     1       5.905   3.464  12.557  0.00  0.00    +0.000 A 
ATOM     17  C   UNL     1       7.099   4.130  12.314  0.00  0.00    +0.000 A 
ATOM     18  F   UNL     1       7.756   3.907  11.168  0.00  0.00    +0.000 F 
ATOM     19  C   UNL     1       7.607   5.019  13.252  0.00  0.00    +0.000 A 
ATOM     20  F   UNL     1       8.760   5.661  13.016  0.00  0.00    +0.000 F 
ATOM     21  C   UNL     1       6.931   5.256  14.447  0.00  0.00    +0.000 A 
ENDBRANCH   4  14
TORSDOF 2
ENDMDL
MODEL 6
REMARK VINA RESULT:      -8.3      1.261      8.058
REMARK  Name = 
REMARK  2 active torsions:
REMARK  status: ('A' for Active; 'I' for Inactive)
REMARK    1  A    between atoms: C_5  and  C_6
REMARK    2  A    between atoms: C_9  and  C_10
REMARK                            x       y       z     vdW  Elec       q    Type
REMARK                         _______ _______ _______ _____ _____    ______ ____
ROOT
ATOM      1  C   UNL     1       5.161   4.889  16.042  0.00  0.00    +0.000 A 
ATOM      2  N   UNL     1       5.204   6.055  16.707  0.00  0.00    +0.000 NA
ATOM      3  O   UNL     1       4.440   5.814  17.846  0.00  0.00    +0.000 OA
ATOM      4  C   UNL     1       4.009   4.522  17.761  0.00  0.00    +0.000 A 
ATOM      5  N   UNL     1       4.424   3.913  16.675  0.00  0.00    +0.000 NA
ENDROOT
BRANCH   1  10
ATOM      6  F   UNL     1       7.664   3.925  11.129  0.00  0.00    +0.000 F 
ATOM      7  C   UNL     1       7.069   4.160  12.307  0.00  0.00    +0.000 A 
ATOM      8  C   UNL     1       5.889   3.497  12.618  0.00  0.00    +0.000 A 
ATOM      9  C   UNL     1       5.267   3.740  13.846  0.00  0.00    +0.000 A 
ATOM     10  C   UNL     1       5.824   4.647  14.766  0.00  0.00    +0.000 A 
ATOM     11  C   UNL     1       7.016   5.308  14.432  0.00  0.00    +0.000 A 
ATOM     12  C   UNL     1       7.627   5.058  13.208  0.00  0.00    +0.000 A 
ATOM     13  F   UNL     1       8.767   5.696  12.903  0.00  0.00    +0.000 F 
ENDBRANCH   1  10
BRANCH   4  14
ATOM     14  C   UNL     1       3.179   4.017  18.847  0.00  0.00    +0.000 A 
ATOM     15  C   UNL     1       1.806   4.327  18.866  0.00  0.00    +0.000 A 
ATOM     16  C   UNL     1       0.978   3.864  19.893  0.00  0.00    +0.000 A 
ATOM     17  C   UNL     1       1.522   3.088  20.909  0.00  0.00    +0.000 A 
ATOM     18  F   UNL     1       0.730   2.647  21.895  0.00  0.00    +0.000 F 
ATOM     19  C   UNL     1       2.875   2.774  20.902  0.00  0.00    +0.000 A 
ATOM     20  F   UNL     1       3.396   2.024  21.883  0.00  0.00    +0.000 F 
ATOM     21  C   UNL     1       3.705   3.229  19.881  0.00  0.00    +0.000 A 
ENDBRANCH   4  14
TORSDOF 2
ENDMDL
MODEL 7
REMARK VINA RESULT:      -8.3      1.476      8.046
REMARK  Name = 
REMARK  2 active torsions:
REMARK  status: ('A' for Active; 'I' for Inactive)
REMARK    1  A    between atoms: C_5  and  C_6
REMARK    2  A    between atoms: C_9  and  C_10
REMARK                            x       y       z     vdW  Elec       q    Type
REMARK                         _______ _______ _______ _____ _____    ______ ____
ROOT
ATOM      1  C   UNL     1       4.997   4.831  15.921  0.00  0.00    +0.000 A 
ATOM      2  N   UNL     1       4.887   6.052  16.468  0.00  0.00    +0.000 NA
ATOM      3  O   UNL     1       4.148   5.828  17.627  0.00  0.00    +0.000 OA
ATOM      4  C   UNL     1       3.884   4.490  17.670  0.00  0.00    +0.000 A 
ATOM      5  N   UNL     1       4.383   3.835  16.647  0.00  0.00    +0.000 NA
ENDROOT
BRANCH   1  10
ATOM      6  F   UNL     1       7.730   3.795  11.147  0.00  0.00    +0.000 F 
ATOM      7  C   UNL     1       7.071   4.039  12.287  0.00  0.00    +0.000 A 
ATOM      8  C   UNL     1       7.622   4.910  13.219  0.00  0.00    +0.000 A 
ATOM      9  C   UNL     1       6.936   5.166  14.410  0.00  0.00    +0.000 A 
ATOM     10  C   UNL     1       5.698   4.552  14.673  0.00  0.00    +0.000 A 
ATOM     11  C   UNL     1       5.159   3.674  13.720  0.00  0.00    +0.000 A 
ATOM     12  C   UNL     1       5.850   3.426  12.537  0.00  0.00    +0.000 A 
ATOM     13  F   UNL     1       5.322   2.586  11.635  0.00  0.00    +0.000 F 
ENDBRANCH   1  10
BRANCH   4  14
ATOM     14  C   UNL     1       3.113   3.992  18.801  0.00  0.00    +0.000 A 
ATOM     15  C   UNL     1       1.745   4.311  18.897  0.00  0.00    +0.000 A 
ATOM     16  C   UNL     1       0.974   3.855  19.971  0.00  0.00    +0.000 A 
ATOM     17  C   UNL     1       1.569   3.078  20.956  0.00  0.00    +0.000 A 
ATOM     18  F   UNL     1       0.831   2.643  21.986  0.00  0.00    +0.000 F 
ATOM     19  C   UNL     1       2.917   2.755  20.874  0.00  0.00    +0.000 A 
ATOM     20  F   UNL     1       3.489   2.004  21.825  0.00  0.00    +0.000 F 
ATOM     21  C   UNL     1       3.692   3.203  19.806  0.00  0.00    +0.000 A 
ENDBRANCH   4  14
TORSDOF 2
ENDMDL
MODEL 8
REMARK VINA RESULT:      -8.2      1.367      2.288
REMARK  Name = 
REMARK  2 active torsions:
REMARK  status: ('A' for Active; 'I' for Inactive)
REMARK    1  A    between atoms: C_5  and  C_6
REMARK    2  A    between atoms: C_9  and  C_10
REMARK                            x       y       z     vdW  Elec       q    Type
REMARK                         _______ _______ _______ _____ _____    ______ ____
ROOT
ATOM      1  C   UNL     1       3.977   4.657  17.778  0.00  0.00    +0.000 A 
ATOM      2  N   UNL     1       4.423   5.922  17.711  0.00  0.00    +0.000 NA
ATOM      3  O   UNL     1       5.133   5.958  16.513  0.00  0.00    +0.000 OA
ATOM      4  C   UNL     1       5.047   4.709  15.970  0.00  0.00    +0.000 A 
ATOM      5  N   UNL     1       4.349   3.876  16.707  0.00  0.00    +0.000 NA
ENDROOT
BRANCH   1  10
ATOM      6  F   UNL     1       0.836   2.658  21.957  0.00  0.00    +0.000 F 
ATOM      7  C   UNL     1       1.592   3.134  20.959  0.00  0.00    +0.000 A 
ATOM      8  C   UNL     1       1.020   3.970  20.009  0.00  0.00    +0.000 A 
ATOM      9  C   UNL     1       1.808   4.467  18.967  0.00  0.00    +0.000 A 
ATOM     10  C   UNL     1       3.171   4.129  18.872  0.00  0.00    +0.000 A 
ATOM     11  C   UNL     1       3.730   3.281  19.841  0.00  0.00    +0.000 A 
ATOM     12  C   UNL     1       2.937   2.793  20.875  0.00  0.00    +0.000 A 
ATOM     13  F   UNL     1       3.485   1.984  21.794  0.00  0.00    +0.000 F 
ENDBRANCH   1  10
BRANCH   4  14
ATOM     14  C   UNL     1       5.716   4.481  14.696  0.00  0.00    +0.000 A 
ATOM     15  C   UNL     1       6.947   5.115  14.441  0.00  0.00    +0.000 A 
ATOM     16  C   UNL     1       7.617   4.924  13.229  0.00  0.00    +0.000 A 
ATOM     17  C   UNL     1       7.057   4.098  12.264  0.00  0.00    +0.000 A 
ATOM     18  F   UNL     1       7.697   3.917  11.101  0.00  0.00    +0.000 F 
ATOM     19  C   UNL     1       5.844   3.466  12.502  0.00  0.00    +0.000 A 
ATOM     20  F   UNL     1       5.305   2.669  11.568  0.00  0.00    +0.000 F 
ATOM     21  C   UNL     1       5.171   3.649  13.708  0.00  0.00    +0.000 A 
ENDBRANCH   4  14
TORSDOF 2
ENDMDL
MODEL 9
REMARK VINA RESULT:      -8.2      1.413      1.611
REMARK  Name = 
REMARK  2 active torsions:
REMARK  status: ('A' for Active; 'I' for Inactive)
REMARK    1  A    between atoms: C_5  and  C_6
REMARK    2  A    between atoms: C_9  and  C_10
REMARK                            x       y       z     vdW  Elec       q    Type
REMARK                         _______ _______ _______ _____ _____    ______ ____
ROOT
ATOM      1  C   UNL     1       3.825   4.797  17.613  0.00  0.00    +0.000 A 
ATOM      2  N   UNL     1       4.181   6.088  17.513  0.00  0.00    +0.000 NA
ATOM      3  O   UNL     1       4.955   6.127  16.355  0.00  0.00    +0.000 OA
ATOM      4  C   UNL     1       4.990   4.854  15.865  0.00  0.00    +0.000 A 
ATOM      5  N   UNL     1       4.313   4.002  16.600  0.00  0.00    +0.000 NA
ENDROOT
BRANCH   1  10
ATOM      6  F   UNL     1       0.681   2.746  21.766  0.00  0.00    +0.000 F 
ATOM      7  C   UNL     1       1.430   3.234  20.768  0.00  0.00    +0.000 A 
ATOM      8  C   UNL     1       2.528   4.031  21.067  0.00  0.00    +0.000 A 
ATOM      9  C   UNL     1       3.311   4.541  20.027  0.00  0.00    +0.000 A 
ATOM     10  C   UNL     1       2.997   4.256  18.685  0.00  0.00    +0.000 A 
ATOM     11  C   UNL     1       1.883   3.450  18.404  0.00  0.00    +0.000 A 
ATOM     12  C   UNL     1       1.111   2.947  19.446  0.00  0.00    +0.000 A 
ATOM     13  F   UNL     1       0.050   2.178  19.162  0.00  0.00    +0.000 F 
ENDBRANCH   1  10
BRANCH   4  14
ATOM     14  C   UNL     1       5.746   4.624  14.641  0.00  0.00    +0.000 A 
ATOM     15  C   UNL     1       5.244   3.728  13.678  0.00  0.00    +0.000 A 
ATOM     16  C   UNL     1       5.943   3.479  12.494  0.00  0.00    +0.000 A 
ATOM     17  C   UNL     1       7.151   4.125  12.267  0.00  0.00    +0.000 A 
ATOM     18  F   UNL     1       7.823   3.885  11.134  0.00  0.00    +0.000 F 
ATOM     19  C   UNL     1       7.658   5.012  13.208  0.00  0.00    +0.000 A 
ATOM     20  F   UNL     1       8.824   5.635  12.986  0.00  0.00    +0.000 F 
ATOM     21  C   UNL     1       6.966   5.268  14.389  0.00  0.00    +0.000 A 
ENDBRANCH   4  14
TORSDOF 2
ENDMDL
