MODEL 1
REMARK VINA RESULT:      -6.7      0.000      0.000
REMARK  Name = 
REMARK  15 active torsions:
REMARK  status: ('A' for Active; 'I' for Inactive)
REMARK    1  A    between atoms: C_1  and  C_2
REMARK    2  A    between atoms: C_2  and  C_3
REMARK    3  A    between atoms: C_3  and  C_4
REMARK    4  A    between atoms: C_4  and  C_5
REMARK    5  A    between atoms: C_5  and  C_6
REMARK    6  A    between atoms: C_6  and  C_7
REMARK    7  A    between atoms: C_10  and  O_11
REMARK    8  A    between atoms: O_11  and  C_12
REMARK    9  A    between atoms: C_12  and  C_13
REMARK   10  A    between atoms: C_13  and  C_14
REMARK   11  A    between atoms: C_14  and  C_15
REMARK   12  A    between atoms: C_15  and  C_16
REMARK   13  A    between atoms: C_16  and  C_17
REMARK   14  A    between atoms: N_19  and  C_20
REMARK   15  A    between atoms: C_24  and  O_25
REMARK                            x       y       z     vdW  Elec       q    Type
REMARK                         _______ _______ _______ _____ _____    ______ ____
ROOT
ATOM      1  C   UNL     1       3.088   4.222  18.215  0.00  0.00    +0.000 A 
ATOM      2  C   UNL     1       4.110   3.288  18.394  0.00  0.00    +0.000 A 
ATOM      3  C   UNL     1       5.324   3.666  18.948  0.00  0.00    +0.000 A 
ATOM      4  C   UNL     1       5.540   4.992  19.340  0.00  0.00    +0.000 A 
ATOM      5  C   UNL     1       4.527   5.936  19.161  0.00  0.00    +0.000 A 
ATOM      6  C   UNL     1       3.311   5.548  18.600  0.00  0.00    +0.000 A 
ENDROOT
BRANCH   6   7
ATOM      7  O   UNL     1       2.316   6.462  18.403  0.00  0.00    +0.000 OA
ATOM      8  H   UNL     1       1.721   6.135  17.711  0.00  0.00    +0.000 HD
ENDBRANCH   6   7
BRANCH   1   9
ATOM      9  C   UNL     1       1.795   3.774  17.594  0.00  0.00    +0.000 C 
BRANCH   9  10
ATOM     10  C   UNL     1       1.180   2.628  18.395  0.00  0.00    +0.000 C 
BRANCH  10  11
ATOM     11  C   UNL     1       0.195   3.166  19.420  0.00  0.00    +0.000 C 
BRANCH  11  12
ATOM     12  C   UNL     1       0.932   3.725  20.630  0.00  0.00    +0.000 C 
BRANCH  12  14
ATOM     13  C   UNL     1       2.897   2.540  21.627  0.00  0.00    +0.000 C 
ATOM     14  C   UNL     1       1.383   2.599  21.551  0.00  0.00    +0.000 C 
ENDBRANCH  12  14
ENDBRANCH  11  12
ENDBRANCH  10  11
ENDBRANCH   9  10
ENDBRANCH   1   9
BRANCH   4  15
ATOM     15  O   UNL     1       6.706   5.455  19.898  0.00  0.00    +0.000 OA
BRANCH  15  16
ATOM     16  C   UNL     1       7.809   5.529  18.992  0.00  0.00    +0.000 C 
BRANCH  16  17
ATOM     17  C   UNL     1       7.873   6.905  18.353  0.00  0.00    +0.000 C 
BRANCH  17  18
ATOM     18  C   UNL     1       7.353   6.839  16.915  0.00  0.00    +0.000 C 
BRANCH  18  19
ATOM     19  C   UNL     1       7.383   5.407  16.407  0.00  0.00    +0.000 C 
BRANCH  19  20
ATOM     20  C   UNL     1       6.095   4.995  15.694  0.00  0.00    +0.000 C 
BRANCH  20  21
ATOM     21  C   UNL     1       6.394   4.760  14.224  0.00  0.00    +0.000 C 
ATOM     22  O   UNL     1       7.374   5.227  13.665  0.00  0.00    +0.000 OA
ATOM     23  N   UNL     1       5.463   3.971  13.577  0.00  0.00    +0.000 N 
ATOM     24  H   UNL     1       4.605   3.718  14.046  0.00  0.00    +0.000 HD
BRANCH  23  25
ATOM     25  C   UNL     1       5.617   3.659  12.190  0.00  0.00    +0.000 C 
ATOM     26  C   UNL     1       5.591   2.223  11.739  0.00  0.00    +0.000 C 
ATOM     27  C   UNL     1       4.472   3.148  11.361  0.00  0.00    +0.000 C 
ENDBRANCH  23  25
ENDBRANCH  20  21
ENDBRANCH  19  20
ENDBRANCH  18  19
ENDBRANCH  17  18
ENDBRANCH  16  17
ENDBRANCH  15  16
ENDBRANCH   4  15
TORSDOF 14
ENDMDL
MODEL 2
REMARK VINA RESULT:      -6.3      2.949      7.851
REMARK  Name = 
REMARK  15 active torsions:
REMARK  status: ('A' for Active; 'I' for Inactive)
REMARK    1  A    between atoms: C_1  and  C_2
REMARK    2  A    between atoms: C_2  and  C_3
REMARK    3  A    between atoms: C_3  and  C_4
REMARK    4  A    between atoms: C_4  and  C_5
REMARK    5  A    between atoms: C_5  and  C_6
REMARK    6  A    between atoms: C_6  and  C_7
REMARK    7  A    between atoms: C_10  and  O_11
REMARK    8  A    between atoms: O_11  and  C_12
REMARK    9  A    between atoms: C_12  and  C_13
REMARK   10  A    between atoms: C_13  and  C_14
REMARK   11  A    between atoms: C_14  and  C_15
REMARK   12  A    between atoms: C_15  and  C_16
REMARK   13  A    between atoms: C_16  and  C_17
REMARK   14  A    between atoms: N_19  and  C_20
REMARK   15  A    between atoms: C_24  and  O_25
REMARK                            x       y       z     vdW  Elec       q    Type
REMARK                         _______ _______ _______ _____ _____    ______ ____
ROOT
ATOM      1  C   UNL     1       7.634   6.793  18.126  0.00  0.00    +0.000 A 
ATOM      2  C   UNL     1       6.855   7.037  16.993  0.00  0.00    +0.000 A 
ATOM      3  C   UNL     1       6.097   6.024  16.426  0.00  0.00    +0.000 A 
ATOM      4  C   UNL     1       6.099   4.741  16.984  0.00  0.00    +0.000 A 
ATOM      5  C   UNL     1       6.879   4.484  18.114  0.00  0.00    +0.000 A 
ATOM      6  C   UNL     1       7.641   5.507  18.676  0.00  0.00    +0.000 A 
ENDROOT
BRANCH   6   7
ATOM      7  O   UNL     1       8.421   5.268  19.771  0.00  0.00    +0.000 OA
ATOM      8  H   UNL     1       8.137   5.850  20.492  0.00  0.00    +0.000 HD
ENDBRANCH   6   7
BRANCH   1   9
ATOM      9  C   UNL     1       8.455   7.914  18.699  0.00  0.00    +0.000 C 
BRANCH   9  10
ATOM     10  C   UNL     1       8.200   9.213  17.938  0.00  0.00    +0.000 C 
BRANCH  10  11
ATOM     11  C   UNL     1       9.026  10.345  18.527  0.00  0.00    +0.000 C 
BRANCH  11  12
ATOM     12  C   UNL     1       8.828  11.626  17.727  0.00  0.00    +0.000 C 
BRANCH  12  14
ATOM     13  C   UNL     1      11.291  11.744  18.160  0.00  0.00    +0.000 C 
ATOM     14  C   UNL     1      10.034  12.545  17.880  0.00  0.00    +0.000 C 
ENDBRANCH  12  14
ENDBRANCH  11  12
ENDBRANCH  10  11
ENDBRANCH   9  10
ENDBRANCH   1   9
BRANCH   4  15
ATOM     15  O   UNL     1       5.380   3.680  16.492  0.00  0.00    +0.000 OA
BRANCH  15  16
ATOM     16  C   UNL     1       3.988   3.704  16.817  0.00  0.00    +0.000 C 
BRANCH  16  17
ATOM     17  C   UNL     1       3.640   2.539  17.725  0.00  0.00    +0.000 C 
BRANCH  17  18
ATOM     18  C   UNL     1       2.126   2.478  17.943  0.00  0.00    +0.000 C 
BRANCH  18  19
ATOM     19  C   UNL     1       1.810   2.365  19.425  0.00  0.00    +0.000 C 
BRANCH  19  20
ATOM     20  C   UNL     1       0.942   3.512  19.942  0.00  0.00    +0.000 C 
BRANCH  20  21
ATOM     21  C   UNL     1       1.816   4.733  20.172  0.00  0.00    +0.000 C 
ATOM     22  O   UNL     1       2.306   5.001  21.258  0.00  0.00    +0.000 OA
ATOM     23  N   UNL     1       2.009   5.510  19.047  0.00  0.00    +0.000 N 
ATOM     24  H   UNL     1       1.479   5.321  18.208  0.00  0.00    +0.000 HD
BRANCH  23  25
ATOM     25  C   UNL     1       2.815   6.689  19.110  0.00  0.00    +0.000 C 
ATOM     26  C   UNL     1       2.995   7.539  17.881  0.00  0.00    +0.000 C 
ATOM     27  C   UNL     1       2.215   8.065  19.049  0.00  0.00    +0.000 C 
ENDBRANCH  23  25
ENDBRANCH  20  21
ENDBRANCH  19  20
ENDBRANCH  18  19
ENDBRANCH  17  18
ENDBRANCH  16  17
ENDBRANCH  15  16
ENDBRANCH   4  15
TORSDOF 14
ENDMDL
MODEL 3
REMARK VINA RESULT:      -6.3      2.102      6.983
REMARK  Name = 
REMARK  15 active torsions:
REMARK  status: ('A' for Active; 'I' for Inactive)
REMARK    1  A    between atoms: C_1  and  C_2
REMARK    2  A    between atoms: C_2  and  C_3
REMARK    3  A    between atoms: C_3  and  C_4
REMARK    4  A    between atoms: C_4  and  C_5
REMARK    5  A    between atoms: C_5  and  C_6
REMARK    6  A    between atoms: C_6  and  C_7
REMARK    7  A    between atoms: C_10  and  O_11
REMARK    8  A    between atoms: O_11  and  C_12
REMARK    9  A    between atoms: C_12  and  C_13
REMARK   10  A    between atoms: C_13  and  C_14
REMARK   11  A    between atoms: C_14  and  C_15
REMARK   12  A    between atoms: C_15  and  C_16
REMARK   13  A    between atoms: C_16  and  C_17
REMARK   14  A    between atoms: N_19  and  C_20
REMARK   15  A    between atoms: C_24  and  O_25
REMARK                            x       y       z     vdW  Elec       q    Type
REMARK                         _______ _______ _______ _____ _____    ______ ____
ROOT
ATOM      1  C   UNL     1       5.535   4.543  15.768  0.00  0.00    +0.000 A 
ATOM      2  C   UNL     1       4.409   3.821  16.165  0.00  0.00    +0.000 A 
ATOM      3  C   UNL     1       4.222   3.478  17.496  0.00  0.00    +0.000 A 
ATOM      4  C   UNL     1       5.161   3.856  18.463  0.00  0.00    +0.000 A 
ATOM      5  C   UNL     1       6.294   4.574  18.076  0.00  0.00    +0.000 A 
ATOM      6  C   UNL     1       6.476   4.911  16.736  0.00  0.00    +0.000 A 
ENDROOT
BRANCH   6   7
ATOM      7  O   UNL     1       7.587   5.599  16.339  0.00  0.00    +0.000 OA
ATOM      8  H   UNL     1       7.330   6.503  16.104  0.00  0.00    +0.000 HD
ENDBRANCH   6   7
BRANCH   1   9
ATOM      9  C   UNL     1       5.708   4.878  14.313  0.00  0.00    +0.000 C 
BRANCH   9  10
ATOM     10  C   UNL     1       6.190   3.658  13.532  0.00  0.00    +0.000 C 
BRANCH  10  11
ATOM     11  C   UNL     1       5.877   3.816  12.054  0.00  0.00    +0.000 C 
BRANCH  11  12
ATOM     12  C   UNL     1       4.931   2.717  11.585  0.00  0.00    +0.000 C 
BRANCH  12  14
ATOM     13  C   UNL     1       3.521   3.951   9.926  0.00  0.00    +0.000 C 
ATOM     14  C   UNL     1       3.550   3.288  11.290  0.00  0.00    +0.000 C 
ENDBRANCH  12  14
ENDBRANCH  11  12
ENDBRANCH  10  11
ENDBRANCH   9  10
ENDBRANCH   1   9
BRANCH   4  15
ATOM     15  O   UNL     1       5.057   3.563  19.800  0.00  0.00    +0.000 OA
BRANCH  15  16
ATOM     16  C   UNL     1       4.715   2.204  20.085  0.00  0.00    +0.000 C 
BRANCH  16  17
ATOM     17  C   UNL     1       3.591   2.149  21.103  0.00  0.00    +0.000 C 
BRANCH  17  18
ATOM     18  C   UNL     1       2.249   1.952  20.392  0.00  0.00    +0.000 C 
BRANCH  18  19
ATOM     19  C   UNL     1       1.206   2.901  20.959  0.00  0.00    +0.000 C 
BRANCH  19  20
ATOM     20  C   UNL     1       0.795   3.998  19.977  0.00  0.00    +0.000 C 
BRANCH  20  21
ATOM     21  C   UNL     1       1.772   5.156  20.088  0.00  0.00    +0.000 C 
ATOM     22  O   UNL     1       2.280   5.493  21.145  0.00  0.00    +0.000 OA
ATOM     23  N   UNL     1       2.034   5.791  18.890  0.00  0.00    +0.000 N 
ATOM     24  H   UNL     1       1.492   5.560  18.069  0.00  0.00    +0.000 HD
BRANCH  23  25
ATOM     25  C   UNL     1       2.940   6.896  18.839  0.00  0.00    +0.000 C 
ATOM     26  C   UNL     1       3.656   7.218  17.554  0.00  0.00    +0.000 C 
ATOM     27  C   UNL     1       2.613   8.155  18.087  0.00  0.00    +0.000 C 
ENDBRANCH  23  25
ENDBRANCH  20  21
ENDBRANCH  19  20
ENDBRANCH  18  19
ENDBRANCH  17  18
ENDBRANCH  16  17
ENDBRANCH  15  16
ENDBRANCH   4  15
TORSDOF 14
ENDMDL
MODEL 4
REMARK VINA RESULT:      -6.3      4.256      7.953
REMARK  Name = 
REMARK  15 active torsions:
REMARK  status: ('A' for Active; 'I' for Inactive)
REMARK    1  A    between atoms: C_1  and  C_2
REMARK    2  A    between atoms: C_2  and  C_3
REMARK    3  A    between atoms: C_3  and  C_4
REMARK    4  A    between atoms: C_4  and  C_5
REMARK    5  A    between atoms: C_5  and  C_6
REMARK    6  A    between atoms: C_6  and  C_7
REMARK    7  A    between atoms: C_10  and  O_11
REMARK    8  A    between atoms: O_11  and  C_12
REMARK    9  A    between atoms: C_12  and  C_13
REMARK   10  A    between atoms: C_13  and  C_14
REMARK   11  A    between atoms: C_14  and  C_15
REMARK   12  A    between atoms: C_15  and  C_16
REMARK   13  A    between atoms: C_16  and  C_17
REMARK   14  A    between atoms: N_19  and  C_20
REMARK   15  A    between atoms: C_24  and  O_25
REMARK                            x       y       z     vdW  Elec       q    Type
REMARK                         _______ _______ _______ _____ _____    ______ ____
ROOT
ATOM      1  C   UNL     1       5.934   4.819  15.756  0.00  0.00    +0.000 A 
ATOM      2  C   UNL     1       4.777   4.144  16.147  0.00  0.00    +0.000 A 
ATOM      3  C   UNL     1       4.152   4.448  17.347  0.00  0.00    +0.000 A 
ATOM      4  C   UNL     1       4.672   5.443  18.183  0.00  0.00    +0.000 A 
ATOM      5  C   UNL     1       5.832   6.121  17.805  0.00  0.00    +0.000 A 
ATOM      6  C   UNL     1       6.456   5.805  16.599  0.00  0.00    +0.000 A 
ENDROOT
BRANCH   6   7
ATOM      7  O   UNL     1       7.601   6.448  16.223  0.00  0.00    +0.000 OA
ATOM      8  H   UNL     1       8.048   5.922  15.542  0.00  0.00    +0.000 HD
ENDBRANCH   6   7
BRANCH   1   9
ATOM      9  C   UNL     1       6.590   4.445  14.457  0.00  0.00    +0.000 C 
BRANCH   9  10
ATOM     10  C   UNL     1       5.623   3.665  13.569  0.00  0.00    +0.000 C 
BRANCH  10  11
ATOM     11  C   UNL     1       6.256   3.381  12.217  0.00  0.00    +0.000 C 
BRANCH  11  12
ATOM     12  C   UNL     1       5.264   2.680  11.297  0.00  0.00    +0.000 C 
BRANCH  12  14
ATOM     13  C   UNL     1       3.346   3.697  10.051  0.00  0.00    +0.000 C 
ATOM     14  C   UNL     1       3.883   3.313  11.416  0.00  0.00    +0.000 C 
ENDBRANCH  12  14
ENDBRANCH  11  12
ENDBRANCH  10  11
ENDBRANCH   9  10
ENDBRANCH   1   9
BRANCH   4  15
ATOM     15  O   UNL     1       4.120   5.812  19.385  0.00  0.00    +0.000 OA
BRANCH  15  16
ATOM     16  C   UNL     1       2.819   6.396  19.286  0.00  0.00    +0.000 C 
BRANCH  16  17
ATOM     17  C   UNL     1       2.643   7.062  17.934  0.00  0.00    +0.000 C 
BRANCH  17  18
ATOM     18  C   UNL     1       2.590   8.583  18.101  0.00  0.00    +0.000 C 
BRANCH  18  19
ATOM     19  C   UNL     1       1.230   9.008  18.631  0.00  0.00    +0.000 C 
BRANCH  19  20
ATOM     20  C   UNL     1       1.129  10.512  18.885  0.00  0.00    +0.000 C 
BRANCH  20  21
ATOM     21  C   UNL     1      -0.300  10.964  18.635  0.00  0.00    +0.000 C 
ATOM     22  O   UNL     1      -0.883  11.748  19.366  0.00  0.00    +0.000 OA
ATOM     23  N   UNL     1      -0.879  10.412  17.509  0.00  0.00    +0.000 N 
ATOM     24  H   UNL     1      -0.404   9.671  17.011  0.00  0.00    +0.000 HD
BRANCH  23  25
ATOM     25  C   UNL     1      -2.219  10.749  17.143  0.00  0.00    +0.000 C 
ATOM     26  C   UNL     1      -2.953   9.911  16.131  0.00  0.00    +0.000 C 
ATOM     27  C   UNL     1      -3.392   9.910  17.566  0.00  0.00    +0.000 C 
ENDBRANCH  23  25
ENDBRANCH  20  21
ENDBRANCH  19  20
ENDBRANCH  18  19
ENDBRANCH  17  18
ENDBRANCH  16  17
ENDBRANCH  15  16
ENDBRANCH   4  15
TORSDOF 14
ENDMDL
MODEL 5
REMARK VINA RESULT:      -6.2      4.319      6.502
REMARK  Name = 
REMARK  15 active torsions:
REMARK  status: ('A' for Active; 'I' for Inactive)
REMARK    1  A    between atoms: C_1  and  C_2
REMARK    2  A    between atoms: C_2  and  C_3
REMARK    3  A    between atoms: C_3  and  C_4
REMARK    4  A    between atoms: C_4  and  C_5
REMARK    5  A    between atoms: C_5  and  C_6
REMARK    6  A    between atoms: C_6  and  C_7
REMARK    7  A    between atoms: C_10  and  O_11
REMARK    8  A    between atoms: O_11  and  C_12
REMARK    9  A    between atoms: C_12  and  C_13
REMARK   10  A    between atoms: C_13  and  C_14
REMARK   11  A    between atoms: C_14  and  C_15
REMARK   12  A    between atoms: C_15  and  C_16
REMARK   13  A    between atoms: C_16  and  C_17
REMARK   14  A    between atoms: N_19  and  C_20
REMARK   15  A    between atoms: C_24  and  O_25
REMARK                            x       y       z     vdW  Elec       q    Type
REMARK                         _______ _______ _______ _____ _____    ______ ____
ROOT
ATOM      1  C   UNL     1       1.023   9.572  19.414  0.00  0.00    +0.000 A 
ATOM      2  C   UNL     1       0.815   8.899  20.619  0.00  0.00    +0.000 A 
ATOM      3  C   UNL     1       1.361   7.642  20.831  0.00  0.00    +0.000 A 
ATOM      4  C   UNL     1       2.134   7.030  19.837  0.00  0.00    +0.000 A 
ATOM      5  C   UNL     1       2.345   7.692  18.626  0.00  0.00    +0.000 A 
ATOM      6  C   UNL     1       1.789   8.954  18.420  0.00  0.00    +0.000 A 
ENDROOT
BRANCH   6   7
ATOM      7  O   UNL     1       1.972   9.607  17.235  0.00  0.00    +0.000 OA
ATOM      8  H   UNL     1       1.110   9.896  16.899  0.00  0.00    +0.000 HD
ENDBRANCH   6   7
BRANCH   1   9
ATOM      9  C   UNL     1       0.398  10.924  19.220  0.00  0.00    +0.000 C 
BRANCH   9  10
ATOM     10  C   UNL     1      -0.653  10.879  18.113  0.00  0.00    +0.000 C 
BRANCH  10  11
ATOM     11  C   UNL     1      -1.890  10.134  18.585  0.00  0.00    +0.000 C 
BRANCH  11  12
ATOM     12  C   UNL     1      -2.803   9.810  17.409  0.00  0.00    +0.000 C 
BRANCH  12  14
ATOM     13  C   UNL     1      -3.018  10.128  14.936  0.00  0.00    +0.000 C 
ATOM     14  C   UNL     1      -2.506  10.729  16.231  0.00  0.00    +0.000 C 
ENDBRANCH  12  14
ENDBRANCH  11  12
ENDBRANCH  10  11
ENDBRANCH   9  10
ENDBRANCH   1   9
BRANCH   4  15
ATOM     15  O   UNL     1       2.715   5.792  19.959  0.00  0.00    +0.000 OA
BRANCH  15  16
ATOM     16  C   UNL     1       2.163   4.978  20.996  0.00  0.00    +0.000 C 
BRANCH  16  17
ATOM     17  C   UNL     1       2.091   3.530  20.545  0.00  0.00    +0.000 C 
BRANCH  17  18
ATOM     18  C   UNL     1       1.180   3.408  19.320  0.00  0.00    +0.000 C 
BRANCH  18  19
ATOM     19  C   UNL     1       1.835   2.537  18.260  0.00  0.00    +0.000 C 
BRANCH  19  20
ATOM     20  C   UNL     1       3.338   2.356  18.477  0.00  0.00    +0.000 C 
BRANCH  20  21
ATOM     21  C   UNL     1       4.084   3.450  17.733  0.00  0.00    +0.000 C 
ATOM     22  O   UNL     1       3.611   4.036  16.771  0.00  0.00    +0.000 OA
ATOM     23  N   UNL     1       5.338   3.725  18.240  0.00  0.00    +0.000 N 
ATOM     24  H   UNL     1       5.735   3.127  18.952  0.00  0.00    +0.000 HD
BRANCH  23  25
ATOM     25  C   UNL     1       6.155   4.736  17.645  0.00  0.00    +0.000 C 
ATOM     26  C   UNL     1       7.649   4.693  17.823  0.00  0.00    +0.000 C 
ATOM     27  C   UNL     1       7.047   4.446  16.472  0.00  0.00    +0.000 C 
ENDBRANCH  23  25
ENDBRANCH  20  21
ENDBRANCH  19  20
ENDBRANCH  18  19
ENDBRANCH  17  18
ENDBRANCH  16  17
ENDBRANCH  15  16
ENDBRANCH   4  15
TORSDOF 14
ENDMDL
MODEL 6
REMARK VINA RESULT:      -6.2      4.387      6.523
REMARK  Name = 
REMARK  15 active torsions:
REMARK  status: ('A' for Active; 'I' for Inactive)
REMARK    1  A    between atoms: C_1  and  C_2
REMARK    2  A    between atoms: C_2  and  C_3
REMARK    3  A    between atoms: C_3  and  C_4
REMARK    4  A    between atoms: C_4  and  C_5
REMARK    5  A    between atoms: C_5  and  C_6
REMARK    6  A    between atoms: C_6  and  C_7
REMARK    7  A    between atoms: C_10  and  O_11
REMARK    8  A    between atoms: O_11  and  C_12
REMARK    9  A    between atoms: C_12  and  C_13
REMARK   10  A    between atoms: C_13  and  C_14
REMARK   11  A    between atoms: C_14  and  C_15
REMARK   12  A    between atoms: C_15  and  C_16
REMARK   13  A    between atoms: C_16  and  C_17
REMARK   14  A    between atoms: N_19  and  C_20
REMARK   15  A    between atoms: C_24  and  O_25
REMARK                            x       y       z     vdW  Elec       q    Type
REMARK                         _______ _______ _______ _____ _____    ______ ____
ROOT
ATOM      1  C   UNL     1       0.961   9.902  19.569  0.00  0.00    +0.000 A 
ATOM      2  C   UNL     1       0.812   9.227  20.782  0.00  0.00    +0.000 A 
ATOM      3  C   UNL     1       1.335   7.954  20.953  0.00  0.00    +0.000 A 
ATOM      4  C   UNL     1       2.027   7.328  19.909  0.00  0.00    +0.000 A 
ATOM      5  C   UNL     1       2.177   7.991  18.689  0.00  0.00    +0.000 A 
ATOM      6  C   UNL     1       1.644   9.268  18.526  0.00  0.00    +0.000 A 
ENDROOT
BRANCH   6   7
ATOM      7  O   UNL     1       1.768   9.923  17.334  0.00  0.00    +0.000 OA
ATOM      8  H   UNL     1       0.929   9.862  16.852  0.00  0.00    +0.000 HD
ENDBRANCH   6   7
BRANCH   1   9
ATOM      9  C   UNL     1       0.362  11.271  19.421  0.00  0.00    +0.000 C 
BRANCH   9  10
ATOM     10  C   UNL     1      -1.157  11.185  19.287  0.00  0.00    +0.000 C 
BRANCH  10  11
ATOM     11  C   UNL     1      -1.565  11.242  17.824  0.00  0.00    +0.000 C 
BRANCH  11  12
ATOM     12  C   UNL     1      -1.905   9.850  17.308  0.00  0.00    +0.000 C 
BRANCH  12  14
ATOM     13  C   UNL     1      -2.968  10.645  15.186  0.00  0.00    +0.000 C 
ATOM     14  C   UNL     1      -3.183   9.882  16.480  0.00  0.00    +0.000 C 
ENDBRANCH  12  14
ENDBRANCH  11  12
ENDBRANCH  10  11
ENDBRANCH   9  10
ENDBRANCH   1   9
BRANCH   4  15
ATOM     15  O   UNL     1       2.579   6.074  19.988  0.00  0.00    +0.000 OA
BRANCH  15  16
ATOM     16  C   UNL     1       1.661   5.042  20.356  0.00  0.00    +0.000 C 
BRANCH  16  17
ATOM     17  C   UNL     1       2.280   4.139  21.408  0.00  0.00    +0.000 C 
BRANCH  17  18
ATOM     18  C   UNL     1       2.375   2.706  20.877  0.00  0.00    +0.000 C 
BRANCH  18  19
ATOM     19  C   UNL     1       3.750   2.454  20.280  0.00  0.00    +0.000 C 
BRANCH  19  20
ATOM     20  C   UNL     1       3.779   2.601  18.758  0.00  0.00    +0.000 C 
BRANCH  20  21
ATOM     21  C   UNL     1       4.815   3.646  18.379  0.00  0.00    +0.000 C 
ATOM     22  O   UNL     1       5.703   4.002  19.138  0.00  0.00    +0.000 OA
ATOM     23  N   UNL     1       4.666   4.154  17.104  0.00  0.00    +0.000 N 
ATOM     24  H   UNL     1       3.842   3.925  16.565  0.00  0.00    +0.000 HD
BRANCH  23  25
ATOM     25  C   UNL     1       5.572   5.142  16.607  0.00  0.00    +0.000 C 
ATOM     26  C   UNL     1       5.589   5.470  15.138  0.00  0.00    +0.000 C 
ATOM     27  C   UNL     1       5.097   6.484  16.127  0.00  0.00    +0.000 C 
ENDBRANCH  23  25
ENDBRANCH  20  21
ENDBRANCH  19  20
ENDBRANCH  18  19
ENDBRANCH  17  18
ENDBRANCH  16  17
ENDBRANCH  15  16
ENDBRANCH   4  15
TORSDOF 14
ENDMDL
MODEL 7
REMARK VINA RESULT:      -6.2      4.119      8.245
REMARK  Name = 
REMARK  15 active torsions:
REMARK  status: ('A' for Active; 'I' for Inactive)
REMARK    1  A    between atoms: C_1  and  C_2
REMARK    2  A    between atoms: C_2  and  C_3
REMARK    3  A    between atoms: C_3  and  C_4
REMARK    4  A    between atoms: C_4  and  C_5
REMARK    5  A    between atoms: C_5  and  C_6
REMARK    6  A    between atoms: C_6  and  C_7
REMARK    7  A    between atoms: C_10  and  O_11
REMARK    8  A    between atoms: O_11  and  C_12
REMARK    9  A    between atoms: C_12  and  C_13
REMARK   10  A    between atoms: C_13  and  C_14
REMARK   11  A    between atoms: C_14  and  C_15
REMARK   12  A    between atoms: C_15  and  C_16
REMARK   13  A    between atoms: C_16  and  C_17
REMARK   14  A    between atoms: N_19  and  C_20
REMARK   15  A    between atoms: C_24  and  O_25
REMARK                            x       y       z     vdW  Elec       q    Type
REMARK                         _______ _______ _______ _____ _____    ______ ____
ROOT
ATOM      1  C   UNL     1       7.364   6.834  18.219  0.00  0.00    +0.000 A 
ATOM      2  C   UNL     1       6.556   6.984  17.091  0.00  0.00    +0.000 A 
ATOM      3  C   UNL     1       5.563   6.060  16.804  0.00  0.00    +0.000 A 
ATOM      4  C   UNL     1       5.354   4.961  17.646  0.00  0.00    +0.000 A 
ATOM      5  C   UNL     1       6.160   4.797  18.774  0.00  0.00    +0.000 A 
ATOM      6  C   UNL     1       7.158   5.729  19.053  0.00  0.00    +0.000 A 
ENDROOT
BRANCH   6   7
ATOM      7  O   UNL     1       7.965   5.574  20.143  0.00  0.00    +0.000 OA
ATOM      8  H   UNL     1       7.781   6.287  20.775  0.00  0.00    +0.000 HD
ENDBRANCH   6   7
BRANCH   1   9
ATOM      9  C   UNL     1       8.440   7.848  18.483  0.00  0.00    +0.000 C 
BRANCH   9  10
ATOM     10  C   UNL     1       8.055   9.207  17.902  0.00  0.00    +0.000 C 
BRANCH  10  11
ATOM     11  C   UNL     1       9.133  10.236  18.199  0.00  0.00    +0.000 C 
BRANCH  11  12
ATOM     12  C   UNL     1       9.382  10.335  19.699  0.00  0.00    +0.000 C 
BRANCH  12  14
ATOM     13  C   UNL     1      11.215  11.940  20.272  0.00  0.00    +0.000 C 
ATOM     14  C   UNL     1       9.718  11.767  20.094  0.00  0.00    +0.000 C 
ENDBRANCH  12  14
ENDBRANCH  11  12
ENDBRANCH  10  11
ENDBRANCH   9  10
ENDBRANCH   1   9
BRANCH   4  15
ATOM     15  O   UNL     1       4.396   3.999  17.442  0.00  0.00    +0.000 OA
BRANCH  15  16
ATOM     16  C   UNL     1       3.293   4.058  18.350  0.00  0.00    +0.000 C 
BRANCH  16  17
ATOM     17  C   UNL     1       2.300   5.115  17.903  0.00  0.00    +0.000 C 
BRANCH  17  18
ATOM     18  C   UNL     1       2.236   6.244  18.934  0.00  0.00    +0.000 C 
BRANCH  18  19
ATOM     19  C   UNL     1       2.758   7.539  18.332  0.00  0.00    +0.000 C 
BRANCH  19  20
ATOM     20  C   UNL     1       1.660   8.388  17.691  0.00  0.00    +0.000 C 
BRANCH  20  21
ATOM     21  C   UNL     1       1.422   9.621  18.547  0.00  0.00    +0.000 C 
ATOM     22  O   UNL     1       0.775   9.591  19.583  0.00  0.00    +0.000 OA
ATOM     23  N   UNL     1       1.999  10.773  18.052  0.00  0.00    +0.000 N 
ATOM     24  H   UNL     1       2.411  10.773  17.129  0.00  0.00    +0.000 HD
BRANCH  23  25
ATOM     25  C   UNL     1       1.864  12.011  18.755  0.00  0.00    +0.000 C 
ATOM     26  C   UNL     1       2.273  13.298  18.089  0.00  0.00    +0.000 C 
ATOM     27  C   UNL     1       0.825  13.028  18.376  0.00  0.00    +0.000 C 
ENDBRANCH  23  25
ENDBRANCH  20  21
ENDBRANCH  19  20
ENDBRANCH  18  19
ENDBRANCH  17  18
ENDBRANCH  16  17
ENDBRANCH  15  16
ENDBRANCH   4  15
TORSDOF 14
ENDMDL
MODEL 8
REMARK VINA RESULT:      -6.1      4.488      6.640
REMARK  Name = 
REMARK  15 active torsions:
REMARK  status: ('A' for Active; 'I' for Inactive)
REMARK    1  A    between atoms: C_1  and  C_2
REMARK    2  A    between atoms: C_2  and  C_3
REMARK    3  A    between atoms: C_3  and  C_4
REMARK    4  A    between atoms: C_4  and  C_5
REMARK    5  A    between atoms: C_5  and  C_6
REMARK    6  A    between atoms: C_6  and  C_7
REMARK    7  A    between atoms: C_10  and  O_11
REMARK    8  A    between atoms: O_11  and  C_12
REMARK    9  A    between atoms: C_12  and  C_13
REMARK   10  A    between atoms: C_13  and  C_14
REMARK   11  A    between atoms: C_14  and  C_15
REMARK   12  A    between atoms: C_15  and  C_16
REMARK   13  A    between atoms: C_16  and  C_17
REMARK   14  A    between atoms: N_19  and  C_20
REMARK   15  A    between atoms: C_24  and  O_25
REMARK                            x       y       z     vdW  Elec       q    Type
REMARK                         _______ _______ _______ _____ _____    ______ ____
ROOT
ATOM      1  C   UNL     1       0.972   9.889  19.389  0.00  0.00    +0.000 A 
ATOM      2  C   UNL     1       1.439   9.313  18.207  0.00  0.00    +0.000 A 
ATOM      3  C   UNL     1       1.978   8.036  18.207  0.00  0.00    +0.000 A 
ATOM      4  C   UNL     1       2.058   7.302  19.396  0.00  0.00    +0.000 A 
ATOM      5  C   UNL     1       1.599   7.870  20.586  0.00  0.00    +0.000 A 
ATOM      6  C   UNL     1       1.062   9.156  20.577  0.00  0.00    +0.000 A 
ENDROOT
BRANCH   6   7
ATOM      7  O   UNL     1       0.624   9.731  21.736  0.00  0.00    +0.000 OA
ATOM      8  H   UNL     1       1.020  10.613  21.818  0.00  0.00    +0.000 HD
ENDBRANCH   6   7
BRANCH   1   9
ATOM      9  C   UNL     1       0.413  11.283  19.348  0.00  0.00    +0.000 C 
BRANCH   9  10
ATOM     10  C   UNL     1      -1.114  11.252  19.335  0.00  0.00    +0.000 C 
BRANCH  10  11
ATOM     11  C   UNL     1      -1.633  11.205  17.907  0.00  0.00    +0.000 C 
BRANCH  11  12
ATOM     12  C   UNL     1      -2.495   9.968  17.691  0.00  0.00    +0.000 C 
BRANCH  12  14
ATOM     13  C   UNL     1      -3.003  10.909  15.428  0.00  0.00    +0.000 C 
ATOM     14  C   UNL     1      -2.629   9.661  16.204  0.00  0.00    +0.000 C 
ENDBRANCH  12  14
ENDBRANCH  11  12
ENDBRANCH  10  11
ENDBRANCH   9  10
ENDBRANCH   1   9
BRANCH   4  15
ATOM     15  O   UNL     1       2.573   6.033  19.491  0.00  0.00    +0.000 OA
BRANCH  15  16
ATOM     16  C   UNL     1       2.161   5.310  20.653  0.00  0.00    +0.000 C 
BRANCH  16  17
ATOM     17  C   UNL     1       1.112   4.276  20.286  0.00  0.00    +0.000 C 
BRANCH  17  18
ATOM     18  C   UNL     1       1.607   2.874  20.649  0.00  0.00    +0.000 C 
BRANCH  18  19
ATOM     19  C   UNL     1       3.024   2.666  20.140  0.00  0.00    +0.000 C 
BRANCH  19  20
ATOM     20  C   UNL     1       3.083   1.853  18.846  0.00  0.00    +0.000 C 
BRANCH  20  21
ATOM     21  C   UNL     1       3.204   2.803  17.667  0.00  0.00    +0.000 C 
ATOM     22  O   UNL     1       2.244   3.150  16.997  0.00  0.00    +0.000 OA
ATOM     23  N   UNL     1       4.490   3.241  17.422  0.00  0.00    +0.000 N 
ATOM     24  H   UNL     1       5.266   2.826  17.920  0.00  0.00    +0.000 HD
BRANCH  23  25
ATOM     25  C   UNL     1       4.756   4.145  16.347  0.00  0.00    +0.000 C 
ATOM     26  C   UNL     1       5.389   5.481  16.632  0.00  0.00    +0.000 C 
ATOM     27  C   UNL     1       6.155   4.432  15.880  0.00  0.00    +0.000 C 
ENDBRANCH  23  25
ENDBRANCH  20  21
ENDBRANCH  19  20
ENDBRANCH  18  19
ENDBRANCH  17  18
ENDBRANCH  16  17
ENDBRANCH  15  16
ENDBRANCH   4  15
TORSDOF 14
ENDMDL
MODEL 9
REMARK VINA RESULT:      -6.1      3.136      7.241
REMARK  Name = 
REMARK  15 active torsions:
REMARK  status: ('A' for Active; 'I' for Inactive)
REMARK    1  A    between atoms: C_1  and  C_2
REMARK    2  A    between atoms: C_2  and  C_3
REMARK    3  A    between atoms: C_3  and  C_4
REMARK    4  A    between atoms: C_4  and  C_5
REMARK    5  A    between atoms: C_5  and  C_6
REMARK    6  A    between atoms: C_6  and  C_7
REMARK    7  A    between atoms: C_10  and  O_11
REMARK    8  A    between atoms: O_11  and  C_12
REMARK    9  A    between atoms: C_12  and  C_13
REMARK   10  A    between atoms: C_13  and  C_14
REMARK   11  A    between atoms: C_14  and  C_15
REMARK   12  A    between atoms: C_15  and  C_16
REMARK   13  A    between atoms: C_16  and  C_17
REMARK   14  A    between atoms: N_19  and  C_20
REMARK   15  A    between atoms: C_24  and  O_25
REMARK                            x       y       z     vdW  Elec       q    Type
REMARK                         _______ _______ _______ _____ _____    ______ ____
ROOT
ATOM      1  C   UNL     1       4.760   4.119  16.965  0.00  0.00    +0.000 A 
ATOM      2  C   UNL     1       3.466   3.859  16.509  0.00  0.00    +0.000 A 
ATOM      3  C   UNL     1       2.581   3.119  17.277  0.00  0.00    +0.000 A 
ATOM      4  C   UNL     1       2.972   2.622  18.527  0.00  0.00    +0.000 A 
ATOM      5  C   UNL     1       4.265   2.870  18.991  0.00  0.00    +0.000 A 
ATOM      6  C   UNL     1       5.150   3.613  18.210  0.00  0.00    +0.000 A 
ENDROOT
BRANCH   6   7
ATOM      7  O   UNL     1       6.423   3.850  18.642  0.00  0.00    +0.000 OA
ATOM      8  H   UNL     1       6.879   3.002  18.761  0.00  0.00    +0.000 HD
ENDBRANCH   6   7
BRANCH   1   9
ATOM      9  C   UNL     1       5.693   4.910  16.093  0.00  0.00    +0.000 C 
BRANCH   9  10
ATOM     10  C   UNL     1       5.271   6.376  16.041  0.00  0.00    +0.000 C 
BRANCH  10  11
ATOM     11  C   UNL     1       5.701   7.097  17.308  0.00  0.00    +0.000 C 
BRANCH  11  12
ATOM     12  C   UNL     1       7.219   7.115  17.426  0.00  0.00    +0.000 C 
BRANCH  12  14
ATOM     13  C   UNL     1       8.671   8.716  18.690  0.00  0.00    +0.000 C 
ATOM     14  C   UNL     1       7.734   8.547  17.509  0.00  0.00    +0.000 C 
ENDBRANCH  12  14
ENDBRANCH  11  12
ENDBRANCH  10  11
ENDBRANCH   9  10
ENDBRANCH   1   9
BRANCH   4  15
ATOM     15  O   UNL     1       2.164   1.883  19.354  0.00  0.00    +0.000 OA
BRANCH  15  16
ATOM     16  C   UNL     1       1.236   2.654  20.121  0.00  0.00    +0.000 C 
BRANCH  16  17
ATOM     17  C   UNL     1       1.846   3.033  21.458  0.00  0.00    +0.000 C 
BRANCH  17  18
ATOM     18  C   UNL     1       2.261   4.507  21.446  0.00  0.00    +0.000 C 
BRANCH  18  19
ATOM     19  C   UNL     1       1.597   5.232  20.287  0.00  0.00    +0.000 C 
BRANCH  19  20
ATOM     20  C   UNL     1       2.422   6.408  19.764  0.00  0.00    +0.000 C 
BRANCH  20  21
ATOM     21  C   UNL     1       1.775   7.708  20.212  0.00  0.00    +0.000 C 
ATOM     22  O   UNL     1       1.431   7.912  21.366  0.00  0.00    +0.000 OA
ATOM     23  N   UNL     1       1.613   8.636  19.203  0.00  0.00    +0.000 N 
ATOM     24  H   UNL     1       1.792   8.373  18.243  0.00  0.00    +0.000 HD
BRANCH  23  25
ATOM     25  C   UNL     1       1.023   9.909  19.477  0.00  0.00    +0.000 C 
ATOM     26  C   UNL     1       1.335  11.085  18.590  0.00  0.00    +0.000 C 
ATOM     27  C   UNL     1      -0.044  10.495  18.596  0.00  0.00    +0.000 C 
ENDBRANCH  23  25
ENDBRANCH  20  21
ENDBRANCH  19  20
ENDBRANCH  18  19
ENDBRANCH  17  18
ENDBRANCH  16  17
ENDBRANCH  15  16
ENDBRANCH   4  15
TORSDOF 14
ENDMDL
