MODEL 1
REMARK VINA RESULT:      -7.5      0.000      0.000
REMARK  Name = 
REMARK  7 active torsions:
REMARK  status: ('A' for Active; 'I' for Inactive)
REMARK    1  A    between atoms: C_1  and  C_2
REMARK    2  A    between atoms: C_6  and  C_7
REMARK    3  A    between atoms: C_7  and  N_8
REMARK    4  A    between atoms: C_7  and  C_18
REMARK    5  A    between atoms: C_9  and  C_11
REMARK    6  A    between atoms: C_13  and  C_14
REMARK    7  A    between atoms: C_16  and  C_17
REMARK                            x       y       z     vdW  Elec       q    Type
REMARK                         _______ _______ _______ _____ _____    ______ ____
ROOT
ATOM      1  C   UNL     1       2.915   6.405  19.260  0.00  0.00    +0.000 C 
ENDROOT
BRANCH   1   7
ATOM      2  C   UNL     1       0.556   2.147  18.632  0.00  0.00    +0.000 C 
ATOM      3  C   UNL     1       1.221   3.115  19.562  0.00  0.00    +0.000 A 
ATOM      4  C   UNL     1       1.379   2.811  20.899  0.00  0.00    +0.000 A 
ATOM      5  C   UNL     1       2.014   3.757  21.666  0.00  0.00    +0.000 A 
ATOM      6  N   UNL     1       2.481   4.921  21.181  0.00  0.00    +0.000 NA
ATOM      7  C   UNL     1       2.298   5.138  19.863  0.00  0.00    +0.000 A 
ATOM      8  N   UNL     1       1.671   4.272  19.026  0.00  0.00    +0.000 NA
ENDBRANCH   1   7
BRANCH   1   9
ATOM      9  N   UNL     1       3.786   6.078  18.138  0.00  0.00    +0.000 N 
ATOM     10  C   UNL     1       5.049   5.562  18.283  0.00  0.00    +0.000 C 
ATOM     11  O   UNL     1       5.492   5.258  19.389  0.00  0.00    +0.000 OA
ATOM     12  H   UNL     1       3.443   6.331  17.220  0.00  0.00    +0.000 HD
BRANCH  10  13
ATOM     13  C   UNL     1       5.816   5.419  17.056  0.00  0.00    +0.000 A 
ATOM     14  S   UNL     1       5.383   4.307  15.819  0.00  0.00    +0.000 S 
ATOM     15  C   UNL     1       6.705   4.839  14.869  0.00  0.00    +0.000 A 
ATOM     16  C   UNL     1       6.953   4.266  13.518  0.00  0.00    +0.000 C 
ATOM     17  N   UNL     1       7.454   5.768  15.418  0.00  0.00    +0.000 NA
ATOM     18  C   UNL     1       6.956   6.110  16.668  0.00  0.00    +0.000 A 
ATOM     19  C   UNL     1       7.671   7.165  17.437  0.00  0.00    +0.000 C 
ENDBRANCH  10  13
ENDBRANCH   1   9
BRANCH   1  20
ATOM     20  C   UNL     1       1.844   7.354  18.764  0.00  0.00    +0.000 C 
ATOM     21  C   UNL     1       1.542   8.683  19.420  0.00  0.00    +0.000 C 
ATOM     22  C   UNL     1       2.276   8.652  18.113  0.00  0.00    +0.000 C 
ENDBRANCH   1  20
TORSDOF 4
ENDMDL
MODEL 2
REMARK VINA RESULT:      -7.1      2.912      6.396
REMARK  Name = 
REMARK  7 active torsions:
REMARK  status: ('A' for Active; 'I' for Inactive)
REMARK    1  A    between atoms: C_1  and  C_2
REMARK    2  A    between atoms: C_6  and  C_7
REMARK    3  A    between atoms: C_7  and  N_8
REMARK    4  A    between atoms: C_7  and  C_18
REMARK    5  A    between atoms: C_9  and  C_11
REMARK    6  A    between atoms: C_13  and  C_14
REMARK    7  A    between atoms: C_16  and  C_17
REMARK                            x       y       z     vdW  Elec       q    Type
REMARK                         _______ _______ _______ _____ _____    ______ ____
ROOT
ATOM      1  C   UNL     1       3.452   5.073  18.924  0.00  0.00    +0.000 C 
ENDROOT
BRANCH   1   7
ATOM      2  C   UNL     1       7.013   4.717  15.564  0.00  0.00    +0.000 C 
ATOM      3  C   UNL     1       6.620   4.956  16.991  0.00  0.00    +0.000 A 
ATOM      4  C   UNL     1       7.567   5.298  17.934  0.00  0.00    +0.000 A 
ATOM      5  C   UNL     1       7.104   5.510  19.210  0.00  0.00    +0.000 A 
ATOM      6  N   UNL     1       5.810   5.413  19.561  0.00  0.00    +0.000 NA
ATOM      7  C   UNL     1       4.945   5.085  18.579  0.00  0.00    +0.000 A 
ATOM      8  N   UNL     1       5.306   4.842  17.293  0.00  0.00    +0.000 NA
ENDBRANCH   1   7
BRANCH   1   9
ATOM      9  N   UNL     1       2.966   6.422  19.185  0.00  0.00    +0.000 N 
ATOM     10  C   UNL     1       2.021   6.719  20.134  0.00  0.00    +0.000 C 
ATOM     11  O   UNL     1       1.587   5.856  20.895  0.00  0.00    +0.000 OA
ATOM     12  H   UNL     1       3.304   7.145  18.561  0.00  0.00    +0.000 HD
BRANCH  10  13
ATOM     13  C   UNL     1       1.568   8.100  20.164  0.00  0.00    +0.000 A 
ATOM     14  S   UNL     1       1.022   8.864  21.604  0.00  0.00    +0.000 S 
ATOM     15  C   UNL     1       0.775  10.324  20.742  0.00  0.00    +0.000 A 
ATOM     16  C   UNL     1       0.284  11.545  21.437  0.00  0.00    +0.000 C 
ATOM     17  N   UNL     1       1.049  10.273  19.459  0.00  0.00    +0.000 NA
ATOM     18  C   UNL     1       1.505   9.008  19.115  0.00  0.00    +0.000 A 
ATOM     19  C   UNL     1       1.883   8.766  17.695  0.00  0.00    +0.000 C 
ENDBRANCH  10  13
ENDBRANCH   1   9
BRANCH   1  20
ATOM     20  C   UNL     1       2.632   4.487  17.794  0.00  0.00    +0.000 C 
ATOM     21  C   UNL     1       2.614   3.013  17.457  0.00  0.00    +0.000 C 
ATOM     22  C   UNL     1       1.432   3.631  18.142  0.00  0.00    +0.000 C 
ENDBRANCH   1  20
TORSDOF 4
ENDMDL
MODEL 3
REMARK VINA RESULT:      -7.0      0.774      1.528
REMARK  Name = 
REMARK  7 active torsions:
REMARK  status: ('A' for Active; 'I' for Inactive)
REMARK    1  A    between atoms: C_1  and  C_2
REMARK    2  A    between atoms: C_6  and  C_7
REMARK    3  A    between atoms: C_7  and  N_8
REMARK    4  A    between atoms: C_7  and  C_18
REMARK    5  A    between atoms: C_9  and  C_11
REMARK    6  A    between atoms: C_13  and  C_14
REMARK    7  A    between atoms: C_16  and  C_17
REMARK                            x       y       z     vdW  Elec       q    Type
REMARK                         _______ _______ _______ _____ _____    ______ ____
ROOT
ATOM      1  C   UNL     1       2.998   5.942  18.790  0.00  0.00    +0.000 C 
ENDROOT
BRANCH   1   7
ATOM      2  C   UNL     1       1.585   2.558  22.052  0.00  0.00    +0.000 C 
ATOM      3  C   UNL     1       1.568   3.058  20.639  0.00  0.00    +0.000 A 
ATOM      4  C   UNL     1       0.812   2.421  19.675  0.00  0.00    +0.000 A 
ATOM      5  C   UNL     1       0.853   2.965  18.415  0.00  0.00    +0.000 A 
ATOM      6  N   UNL     1       1.563   4.061  18.096  0.00  0.00    +0.000 NA
ATOM      7  C   UNL     1       2.266   4.632  19.096  0.00  0.00    +0.000 A 
ATOM      8  N   UNL     1       2.302   4.162  20.370  0.00  0.00    +0.000 NA
ENDBRANCH   1   7
BRANCH   1   9
ATOM      9  N   UNL     1       3.912   5.778  17.665  0.00  0.00    +0.000 N 
ATOM     10  C   UNL     1       5.014   4.962  17.695  0.00  0.00    +0.000 C 
ATOM     11  O   UNL     1       5.248   4.240  18.663  0.00  0.00    +0.000 OA
ATOM     12  H   UNL     1       3.741   6.373  16.863  0.00  0.00    +0.000 HD
BRANCH  10  13
ATOM     13  C   UNL     1       5.877   5.024  16.526  0.00  0.00    +0.000 A 
ATOM     14  S   UNL     1       5.583   4.096  15.110  0.00  0.00    +0.000 S 
ATOM     15  C   UNL     1       6.950   4.801  14.357  0.00  0.00    +0.000 A 
ATOM     16  C   UNL     1       7.322   4.442  12.961  0.00  0.00    +0.000 C 
ATOM     17  N   UNL     1       7.618   5.659  15.094  0.00  0.00    +0.000 NA
ATOM     18  C   UNL     1       7.014   5.797  16.337  0.00  0.00    +0.000 A 
ATOM     19  C   UNL     1       7.627   6.746  17.306  0.00  0.00    +0.000 C 
ENDBRANCH  10  13
ENDBRANCH   1   9
BRANCH   1  20
ATOM     20  C   UNL     1       2.023   7.049  18.447  0.00  0.00    +0.000 C 
ATOM     21  C   UNL     1       1.868   8.306  19.273  0.00  0.00    +0.000 C 
ATOM     22  C   UNL     1       2.576   8.370  17.953  0.00  0.00    +0.000 C 
ENDBRANCH   1  20
TORSDOF 4
ENDMDL
MODEL 4
REMARK VINA RESULT:      -6.9      2.412      6.819
REMARK  Name = 
REMARK  7 active torsions:
REMARK  status: ('A' for Active; 'I' for Inactive)
REMARK    1  A    between atoms: C_1  and  C_2
REMARK    2  A    between atoms: C_6  and  C_7
REMARK    3  A    between atoms: C_7  and  N_8
REMARK    4  A    between atoms: C_7  and  C_18
REMARK    5  A    between atoms: C_9  and  C_11
REMARK    6  A    between atoms: C_13  and  C_14
REMARK    7  A    between atoms: C_16  and  C_17
REMARK                            x       y       z     vdW  Elec       q    Type
REMARK                         _______ _______ _______ _____ _____    ______ ____
ROOT
ATOM      1  C   UNL     1       6.046   5.555  17.058  0.00  0.00    +0.000 C 
ENDROOT
BRANCH   1   7
ATOM      2  C   UNL     1       8.542   5.637  12.832  0.00  0.00    +0.000 C 
ATOM      3  C   UNL     1       7.393   5.096  13.629  0.00  0.00    +0.000 A 
ATOM      4  C   UNL     1       6.575   4.114  13.108  0.00  0.00    +0.000 A 
ATOM      5  C   UNL     1       5.559   3.675  13.922  0.00  0.00    +0.000 A 
ATOM      6  N   UNL     1       5.346   4.137  15.166  0.00  0.00    +0.000 NA
ATOM      7  C   UNL     1       6.197   5.087  15.607  0.00  0.00    +0.000 A 
ATOM      8  N   UNL     1       7.220   5.596  14.874  0.00  0.00    +0.000 NA
ENDBRANCH   1   7
BRANCH   1   9
ATOM      9  N   UNL     1       5.122   4.696  17.790  0.00  0.00    +0.000 N 
ATOM     10  C   UNL     1       3.851   5.074  18.142  0.00  0.00    +0.000 C 
ATOM     11  O   UNL     1       3.379   6.148  17.775  0.00  0.00    +0.000 OA
ATOM     12  H   UNL     1       5.496   3.811  18.110  0.00  0.00    +0.000 HD
BRANCH  10  13
ATOM     13  C   UNL     1       3.123   4.133  18.979  0.00  0.00    +0.000 A 
ATOM     14  S   UNL     1       2.712   4.474  20.612  0.00  0.00    +0.000 S 
ATOM     15  C   UNL     1       1.917   2.962  20.734  0.00  0.00    +0.000 A 
ATOM     16  C   UNL     1       1.238   2.556  21.995  0.00  0.00    +0.000 C 
ATOM     17  N   UNL     1       1.956   2.217  19.652  0.00  0.00    +0.000 NA
ATOM     18  C   UNL     1       2.641   2.876  18.640  0.00  0.00    +0.000 A 
ATOM     19  C   UNL     1       2.773   2.188  17.327  0.00  0.00    +0.000 C 
ENDBRANCH  10  13
ENDBRANCH   1   9
BRANCH   1  20
ATOM     20  C   UNL     1       7.376   5.540  17.781  0.00  0.00    +0.000 C 
ATOM     21  C   UNL     1       7.981   6.761  18.436  0.00  0.00    +0.000 C 
ATOM     22  C   UNL     1       7.379   5.685  19.289  0.00  0.00    +0.000 C 
ENDBRANCH   1  20
TORSDOF 4
ENDMDL
MODEL 5
REMARK VINA RESULT:      -6.9      2.813      6.345
REMARK  Name = 
REMARK  7 active torsions:
REMARK  status: ('A' for Active; 'I' for Inactive)
REMARK    1  A    between atoms: C_1  and  C_2
REMARK    2  A    between atoms: C_6  and  C_7
REMARK    3  A    between atoms: C_7  and  N_8
REMARK    4  A    between atoms: C_7  and  C_18
REMARK    5  A    between atoms: C_9  and  C_11
REMARK    6  A    between atoms: C_13  and  C_14
REMARK    7  A    between atoms: C_16  and  C_17
REMARK                            x       y       z     vdW  Elec       q    Type
REMARK                         _______ _______ _______ _____ _____    ______ ____
ROOT
ATOM      1  C   UNL     1       3.369   5.305  18.834  0.00  0.00    +0.000 C 
ENDROOT
BRANCH   1   7
ATOM      2  C   UNL     1       6.953   4.911  15.504  0.00  0.00    +0.000 C 
ATOM      3  C   UNL     1       6.553   5.096  16.936  0.00  0.00    +0.000 A 
ATOM      4  C   UNL     1       7.504   5.328  17.909  0.00  0.00    +0.000 A 
ATOM      5  C   UNL     1       7.035   5.500  19.188  0.00  0.00    +0.000 A 
ATOM      6  N   UNL     1       5.733   5.464  19.518  0.00  0.00    +0.000 NA
ATOM      7  C   UNL     1       4.864   5.244  18.509  0.00  0.00    +0.000 A 
ATOM      8  N   UNL     1       5.230   5.048  17.215  0.00  0.00    +0.000 NA
ENDBRANCH   1   7
BRANCH   1   9
ATOM      9  N   UNL     1       2.927   6.685  18.998  0.00  0.00    +0.000 N 
ATOM     10  C   UNL     1       2.006   7.081  19.936  0.00  0.00    +0.000 C 
ATOM     11  O   UNL     1       1.560   6.292  20.767  0.00  0.00    +0.000 OA
ATOM     12  H   UNL     1       3.275   7.348  18.317  0.00  0.00    +0.000 HD
BRANCH  10  13
ATOM     13  C   UNL     1       1.595   8.474  19.866  0.00  0.00    +0.000 A 
ATOM     14  S   UNL     1       1.523   9.345  18.386  0.00  0.00    +0.000 S 
ATOM     15  C   UNL     1       0.954  10.728  19.220  0.00  0.00    +0.000 A 
ATOM     16  C   UNL     1       0.624  11.980  18.486  0.00  0.00    +0.000 C 
ATOM     17  N   UNL     1       0.836  10.591  20.521  0.00  0.00    +0.000 NA
ATOM     18  C   UNL     1       1.198   9.306  20.904  0.00  0.00    +0.000 A 
ATOM     19  C   UNL     1       1.112   8.960  22.349  0.00  0.00    +0.000 C 
ENDBRANCH  10  13
ENDBRANCH   1   9
BRANCH   1  20
ATOM     20  C   UNL     1       2.541   4.673  17.735  0.00  0.00    +0.000 C 
ATOM     21  C   UNL     1       2.548   3.191  17.436  0.00  0.00    +0.000 C 
ATOM     22  C   UNL     1       1.366   3.801  18.127  0.00  0.00    +0.000 C 
ENDBRANCH   1  20
TORSDOF 4
ENDMDL
MODEL 6
REMARK VINA RESULT:      -6.8      1.813      6.569
REMARK  Name = 
REMARK  7 active torsions:
REMARK  status: ('A' for Active; 'I' for Inactive)
REMARK    1  A    between atoms: C_1  and  C_2
REMARK    2  A    between atoms: C_6  and  C_7
REMARK    3  A    between atoms: C_7  and  N_8
REMARK    4  A    between atoms: C_7  and  C_18
REMARK    5  A    between atoms: C_9  and  C_11
REMARK    6  A    between atoms: C_13  and  C_14
REMARK    7  A    between atoms: C_16  and  C_17
REMARK                            x       y       z     vdW  Elec       q    Type
REMARK                         _______ _______ _______ _____ _____    ______ ____
ROOT
ATOM      1  C   UNL     1       6.153   5.814  16.215  0.00  0.00    +0.000 C 
ENDROOT
BRANCH   1   7
ATOM      2  C   UNL     1       4.821   3.108  12.343  0.00  0.00    +0.000 C 
ATOM      3  C   UNL     1       5.865   3.940  13.023  0.00  0.00    +0.000 A 
ATOM      4  C   UNL     1       7.058   4.228  12.392  0.00  0.00    +0.000 A 
ATOM      5  C   UNL     1       7.944   5.010  13.092  0.00  0.00    +0.000 A 
ATOM      6  N   UNL     1       7.698   5.499  14.320  0.00  0.00    +0.000 NA
ATOM      7  C   UNL     1       6.505   5.183  14.865  0.00  0.00    +0.000 A 
ATOM      8  N   UNL     1       5.571   4.406  14.258  0.00  0.00    +0.000 NA
ENDBRANCH   1   7
BRANCH   1   9
ATOM      9  N   UNL     1       4.993   5.161  16.810  0.00  0.00    +0.000 N 
ATOM     10  C   UNL     1       3.948   5.842  17.382  0.00  0.00    +0.000 C 
ATOM     11  O   UNL     1       3.889   7.069  17.346  0.00  0.00    +0.000 OA
ATOM     12  H   UNL     1       5.028   4.150  16.859  0.00  0.00    +0.000 HD
BRANCH  10  13
ATOM     13  C   UNL     1       2.942   5.020  18.036  0.00  0.00    +0.000 A 
ATOM     14  S   UNL     1       2.492   3.468  17.449  0.00  0.00    +0.000 S 
ATOM     15  C   UNL     1       1.401   3.284  18.757  0.00  0.00    +0.000 A 
ATOM     16  C   UNL     1       0.602   2.038  18.914  0.00  0.00    +0.000 C 
ATOM     17  N   UNL     1       1.335   4.303  19.582  0.00  0.00    +0.000 NA
ATOM     18  C   UNL     1       2.212   5.303  19.182  0.00  0.00    +0.000 A 
ATOM     19  C   UNL     1       2.287   6.536  20.012  0.00  0.00    +0.000 C 
ENDBRANCH  10  13
ENDBRANCH   1   9
BRANCH   1  20
ATOM     20  C   UNL     1       7.306   5.704  17.190  0.00  0.00    +0.000 C 
ATOM     21  C   UNL     1       7.805   6.864  18.023  0.00  0.00    +0.000 C 
ATOM     22  C   UNL     1       7.006   5.775  18.674  0.00  0.00    +0.000 C 
ENDBRANCH   1  20
TORSDOF 4
ENDMDL
MODEL 7
REMARK VINA RESULT:      -6.8      3.042      6.046
REMARK  Name = 
REMARK  7 active torsions:
REMARK  status: ('A' for Active; 'I' for Inactive)
REMARK    1  A    between atoms: C_1  and  C_2
REMARK    2  A    between atoms: C_6  and  C_7
REMARK    3  A    between atoms: C_7  and  N_8
REMARK    4  A    between atoms: C_7  and  C_18
REMARK    5  A    between atoms: C_9  and  C_11
REMARK    6  A    between atoms: C_13  and  C_14
REMARK    7  A    between atoms: C_16  and  C_17
REMARK                            x       y       z     vdW  Elec       q    Type
REMARK                         _______ _______ _______ _____ _____    ______ ____
ROOT
ATOM      1  C   UNL     1       3.044   6.071  18.001  0.00  0.00    +0.000 C 
ENDROOT
BRANCH   1   7
ATOM      2  C   UNL     1       2.110   2.720  21.464  0.00  0.00    +0.000 C 
ATOM      3  C   UNL     1       2.319   3.036  20.014  0.00  0.00    +0.000 A 
ATOM      4  C   UNL     1       2.169   2.059  19.051  0.00  0.00    +0.000 A 
ATOM      5  C   UNL     1       2.369   2.453  17.750  0.00  0.00    +0.000 A 
ATOM      6  N   UNL     1       2.680   3.710  17.390  0.00  0.00    +0.000 NA
ATOM      7  C   UNL     1       2.797   4.609  18.389  0.00  0.00    +0.000 A 
ATOM      8  N   UNL     1       2.634   4.315  19.704  0.00  0.00    +0.000 NA
ENDBRANCH   1   7
BRANCH   1   9
ATOM      9  N   UNL     1       2.316   6.974  18.884  0.00  0.00    +0.000 N 
ATOM     10  C   UNL     1       1.989   8.264  18.548  0.00  0.00    +0.000 C 
ATOM     11  O   UNL     1       2.218   8.709  17.425  0.00  0.00    +0.000 OA
ATOM     12  H   UNL     1       2.128   6.629  19.817  0.00  0.00    +0.000 HD
BRANCH  10  13
ATOM     13  C   UNL     1       1.374   9.054  19.603  0.00  0.00    +0.000 A 
ATOM     14  S   UNL     1       0.811   8.358  21.071  0.00  0.00    +0.000 S 
ATOM     15  C   UNL     1       0.347   9.908  21.634  0.00  0.00    +0.000 A 
ATOM     16  C   UNL     1      -0.254  10.081  22.984  0.00  0.00    +0.000 C 
ATOM     17  N   UNL     1       0.564  10.898  20.798  0.00  0.00    +0.000 NA
ATOM     18  C   UNL     1       1.152  10.424  19.633  0.00  0.00    +0.000 A 
ATOM     19  C   UNL     1       1.487  11.411  18.571  0.00  0.00    +0.000 C 
ENDBRANCH  10  13
ENDBRANCH   1   9
BRANCH   1  20
ATOM     20  C   UNL     1       4.516   6.418  18.082  0.00  0.00    +0.000 C 
ATOM     21  C   UNL     1       5.610   5.539  17.519  0.00  0.00    +0.000 C 
ATOM     22  C   UNL     1       5.237   6.804  16.807  0.00  0.00    +0.000 C 
ENDBRANCH   1  20
TORSDOF 4
ENDMDL
MODEL 8
REMARK VINA RESULT:      -6.8      1.818      6.622
REMARK  Name = 
REMARK  7 active torsions:
REMARK  status: ('A' for Active; 'I' for Inactive)
REMARK    1  A    between atoms: C_1  and  C_2
REMARK    2  A    between atoms: C_6  and  C_7
REMARK    3  A    between atoms: C_7  and  N_8
REMARK    4  A    between atoms: C_7  and  C_18
REMARK    5  A    between atoms: C_9  and  C_11
REMARK    6  A    between atoms: C_13  and  C_14
REMARK    7  A    between atoms: C_16  and  C_17
REMARK                            x       y       z     vdW  Elec       q    Type
REMARK                         _______ _______ _______ _____ _____    ______ ____
ROOT
ATOM      1  C   UNL     1       6.201   5.962  17.192  0.00  0.00    +0.000 C 
ENDROOT
BRANCH   1   7
ATOM      2  C   UNL     1       8.244   5.383  12.767  0.00  0.00    +0.000 C 
ATOM      3  C   UNL     1       7.196   4.970  13.755  0.00  0.00    +0.000 A 
ATOM      4  C   UNL     1       6.348   3.915  13.484  0.00  0.00    +0.000 A 
ATOM      5  C   UNL     1       5.432   3.606  14.460  0.00  0.00    +0.000 A 
ATOM      6  N   UNL     1       5.339   4.259  15.631  0.00  0.00    +0.000 NA
ATOM      7  C   UNL     1       6.211   5.270  15.825  0.00  0.00    +0.000 A 
ATOM      8  N   UNL     1       7.142   5.661  14.917  0.00  0.00    +0.000 NA
ENDBRANCH   1   7
BRANCH   1   9
ATOM      9  N   UNL     1       5.164   5.404  18.051  0.00  0.00    +0.000 N 
ATOM     10  C   UNL     1       3.964   6.024  18.293  0.00  0.00    +0.000 C 
ATOM     11  O   UNL     1       3.654   7.064  17.715  0.00  0.00    +0.000 OA
ATOM     12  H   UNL     1       5.405   4.553  18.545  0.00  0.00    +0.000 HD
BRANCH  10  13
ATOM     13  C   UNL     1       3.108   5.378  19.276  0.00  0.00    +0.000 A 
ATOM     14  S   UNL     1       3.116   3.679  19.536  0.00  0.00    +0.000 S 
ATOM     15  C   UNL     1       1.945   3.858  20.773  0.00  0.00    +0.000 A 
ATOM     16  C   UNL     1       1.451   2.676  21.532  0.00  0.00    +0.000 C 
ATOM     17  N   UNL     1       1.536   5.087  20.988  0.00  0.00    +0.000 NA
ATOM     18  C   UNL     1       2.194   5.968  20.140  0.00  0.00    +0.000 A 
ATOM     19  C   UNL     1       1.870   7.416  20.251  0.00  0.00    +0.000 C 
ENDBRANCH  10  13
ENDBRANCH   1   9
BRANCH   1  20
ATOM     20  C   UNL     1       7.532   5.803  17.897  0.00  0.00    +0.000 C 
ATOM     21  C   UNL     1       8.193   6.912  18.685  0.00  0.00    +0.000 C 
ATOM     22  C   UNL     1       7.547   5.770  19.411  0.00  0.00    +0.000 C 
ENDBRANCH   1  20
TORSDOF 4
ENDMDL
MODEL 9
REMARK VINA RESULT:      -6.8      2.857      6.498
REMARK  Name = 
REMARK  7 active torsions:
REMARK  status: ('A' for Active; 'I' for Inactive)
REMARK    1  A    between atoms: C_1  and  C_2
REMARK    2  A    between atoms: C_6  and  C_7
REMARK    3  A    between atoms: C_7  and  N_8
REMARK    4  A    between atoms: C_7  and  C_18
REMARK    5  A    between atoms: C_9  and  C_11
REMARK    6  A    between atoms: C_13  and  C_14
REMARK    7  A    between atoms: C_16  and  C_17
REMARK                            x       y       z     vdW  Elec       q    Type
REMARK                         _______ _______ _______ _____ _____    ______ ____
ROOT
ATOM      1  C   UNL     1       3.404   4.880  18.718  0.00  0.00    +0.000 C 
ENDROOT
BRANCH   1   7
ATOM      2  C   UNL     1       8.178   5.831  19.350  0.00  0.00    +0.000 C 
ATOM      3  C   UNL     1       7.080   5.335  18.459  0.00  0.00    +0.000 A 
ATOM      4  C   UNL     1       7.365   4.819  17.211  0.00  0.00    +0.000 A 
ATOM      5  C   UNL     1       6.291   4.377  16.477  0.00  0.00    +0.000 A 
ATOM      6  N   UNL     1       5.021   4.415  16.915  0.00  0.00    +0.000 NA
ATOM      7  C   UNL     1       4.826   4.923  18.149  0.00  0.00    +0.000 A 
ATOM      8  N   UNL     1       5.819   5.398  18.945  0.00  0.00    +0.000 NA
ENDBRANCH   1   7
BRANCH   1   9
ATOM      9  N   UNL     1       2.912   6.224  18.994  0.00  0.00    +0.000 N 
ATOM     10  C   UNL     1       2.123   6.538  20.072  0.00  0.00    +0.000 C 
ATOM     11  O   UNL     1       1.855   5.701  20.932  0.00  0.00    +0.000 OA
ATOM     12  H   UNL     1       3.114   6.925  18.291  0.00  0.00    +0.000 HD
BRANCH  10  13
ATOM     13  C   UNL     1       1.625   7.903  20.113  0.00  0.00    +0.000 A 
ATOM     14  S   UNL     1       0.994   8.615  21.545  0.00  0.00    +0.000 S 
ATOM     15  C   UNL     1       0.736  10.086  20.707  0.00  0.00    +0.000 A 
ATOM     16  C   UNL     1       0.177  11.275  21.407  0.00  0.00    +0.000 C 
ATOM     17  N   UNL     1       1.066  10.075  19.436  0.00  0.00    +0.000 NA
ATOM     18  C   UNL     1       1.577   8.833  19.083  0.00  0.00    +0.000 A 
ATOM     19  C   UNL     1       2.022   8.638  17.676  0.00  0.00    +0.000 C 
ENDBRANCH  10  13
ENDBRANCH   1   9
BRANCH   1  20
ATOM     20  C   UNL     1       2.446   4.217  17.751  0.00  0.00    +0.000 C 
ATOM     21  C   UNL     1       2.361   2.719  17.559  0.00  0.00    +0.000 C 
ATOM     22  C   UNL     1       1.280   3.432  18.315  0.00  0.00    +0.000 C 
ENDBRANCH   1  20
TORSDOF 4
ENDMDL
