MODEL 1
REMARK VINA RESULT:      -7.2      0.000      0.000
REMARK  Name = 
REMARK  12 active torsions:
REMARK  status: ('A' for Active; 'I' for Inactive)
REMARK    1  A    between atoms: C_1  and  O_2
REMARK    2  A    between atoms: O_2  and  C_3
REMARK    3  A    between atoms: N_5  and  N_6
REMARK    4  A    between atoms: C_7  and  C_9
REMARK    5  A    between atoms: C_9  and  C_18
REMARK    6  A    between atoms: C_10  and  C_11
REMARK    7  A    between atoms: C_20  and  O_21
REMARK    8  A    between atoms: O_21  and  C_22
REMARK    9  A    between atoms: C_23  and  O_24
REMARK   10  A    between atoms: O_24  and  C_25
REMARK   11  A    between atoms: C_26  and  O_27
REMARK   12  A    between atoms: O_27  and  C_28
REMARK                            x       y       z     vdW  Elec       q    Type
REMARK                         _______ _______ _______ _____ _____    ______ ____
ROOT
ATOM      1  C   UNL     1       3.653   3.734  19.106  0.00  0.00    +0.000 C 
ATOM      2  C   UNL     1       2.485   4.245  19.559  0.00  0.00    +0.000 C 
ENDROOT
BRANCH   2   3
ATOM      3  C   UNL     1       2.132   5.674  19.505  0.00  0.00    +0.000 A 
ATOM      4  C   UNL     1       2.191   6.372  18.290  0.00  0.00    +0.000 A 
ATOM      5  C   UNL     1       1.942   7.748  18.252  0.00  0.00    +0.000 A 
ATOM      6  C   UNL     1       1.627   8.429  19.426  0.00  0.00    +0.000 A 
ATOM      7  C   UNL     1       1.550   7.729  20.624  0.00  0.00    +0.000 A 
ATOM      8  F   UNL     1       1.241   8.384  21.751  0.00  0.00    +0.000 F 
ATOM      9  C   UNL     1       1.797   6.360  20.675  0.00  0.00    +0.000 A 
ENDBRANCH   2   3
BRANCH   1  10
ATOM     10  C   UNL     1       4.690   4.638  18.555  0.00  0.00    +0.000 A 
ATOM     11  C   UNL     1       4.758   4.894  17.183  0.00  0.00    +0.000 A 
ATOM     12  C   UNL     1       5.837   5.608  16.649  0.00  0.00    +0.000 A 
ATOM     13  C   UNL     1       6.860   6.086  17.501  0.00  0.00    +0.000 A 
ATOM     14  C   UNL     1       6.785   5.842  18.888  0.00  0.00    +0.000 A 
ATOM     15  C   UNL     1       5.691   5.132  19.399  0.00  0.00    +0.000 A 
BRANCH  12  16
ATOM     16  O   UNL     1       6.003   5.835  15.302  0.00  0.00    +0.000 OA
ATOM     17  C   UNL     1       6.135   4.693  14.465  0.00  0.00    +0.000 C 
ENDBRANCH  12  16
BRANCH  13  18
ATOM     18  O   UNL     1       7.910   6.706  16.857  0.00  0.00    +0.000 OA
ATOM     19  C   UNL     1       8.116   8.087  17.124  0.00  0.00    +0.000 C 
ENDBRANCH  13  18
BRANCH  14  20
ATOM     20  O   UNL     1       7.824   6.266  19.676  0.00  0.00    +0.000 OA
ATOM     21  C   UNL     1       8.575   5.287  20.381  0.00  0.00    +0.000 C 
ENDBRANCH  14  20
ENDBRANCH   1  10
BRANCH   1  23
ATOM     22  N   UNL     1       5.082   1.919  19.916  0.00  0.00    +0.000 N 
ATOM     23  C   UNL     1       3.953   2.260  19.201  0.00  0.00    +0.000 C 
ATOM     24  O   UNL     1       3.205   1.418  18.711  0.00  0.00    +0.000 OA
ATOM     25  H   UNL     1       5.660   2.580  20.427  0.00  0.00    +0.000 HD
BRANCH  22  28
ATOM     26  C   UNL     1       5.937   0.161  21.299  0.00  0.00    +0.000 C 
ATOM     27  O   UNL     1       6.211   0.922  22.221  0.00  0.00    +0.000 OA
ATOM     28  N   UNL     1       5.371   0.564  20.118  0.00  0.00    +0.000 N 
ATOM     29  H   UNL     1       5.151  -0.093  19.373  0.00  0.00    +0.000 HD
BRANCH  26  31
ATOM     30  C   UNL     1       7.135  -1.619  22.231  0.00  0.00    +0.000 C 
ATOM     31  O   UNL     1       6.146  -1.178  21.295  0.00  0.00    +0.000 OA
ENDBRANCH  26  31
ENDBRANCH  22  28
ENDBRANCH   1  23
TORSDOF 8
ENDMDL
MODEL 2
REMARK VINA RESULT:      -7.0      3.901      7.588
REMARK  Name = 
REMARK  12 active torsions:
REMARK  status: ('A' for Active; 'I' for Inactive)
REMARK    1  A    between atoms: C_1  and  O_2
REMARK    2  A    between atoms: O_2  and  C_3
REMARK    3  A    between atoms: N_5  and  N_6
REMARK    4  A    between atoms: C_7  and  C_9
REMARK    5  A    between atoms: C_9  and  C_18
REMARK    6  A    between atoms: C_10  and  C_11
REMARK    7  A    between atoms: C_20  and  O_21
REMARK    8  A    between atoms: O_21  and  C_22
REMARK    9  A    between atoms: C_23  and  O_24
REMARK   10  A    between atoms: O_24  and  C_25
REMARK   11  A    between atoms: C_26  and  O_27
REMARK   12  A    between atoms: O_27  and  C_28
REMARK                            x       y       z     vdW  Elec       q    Type
REMARK                         _______ _______ _______ _____ _____    ______ ____
ROOT
ATOM      1  C   UNL     1       7.002   5.970  17.307  0.00  0.00    +0.000 C 
ATOM      2  C   UNL     1       7.542   5.706  16.095  0.00  0.00    +0.000 C 
ENDROOT
BRANCH   2   3
ATOM      3  C   UNL     1       6.828   5.027  15.002  0.00  0.00    +0.000 A 
ATOM      4  C   UNL     1       5.577   4.434  15.233  0.00  0.00    +0.000 A 
ATOM      5  C   UNL     1       4.938   3.712  14.220  0.00  0.00    +0.000 A 
ATOM      6  C   UNL     1       5.542   3.586  12.971  0.00  0.00    +0.000 A 
ATOM      7  C   UNL     1       6.772   4.192  12.740  0.00  0.00    +0.000 A 
ATOM      8  F   UNL     1       7.349   4.075  11.537  0.00  0.00    +0.000 F 
ATOM      9  C   UNL     1       7.418   4.911  13.740  0.00  0.00    +0.000 A 
ENDBRANCH   2   3
BRANCH   1  10
ATOM     10  C   UNL     1       5.622   5.523  17.613  0.00  0.00    +0.000 A 
ATOM     11  C   UNL     1       4.542   6.400  17.484  0.00  0.00    +0.000 A 
ATOM     12  C   UNL     1       3.271   6.028  17.934  0.00  0.00    +0.000 A 
ATOM     13  C   UNL     1       3.070   4.753  18.512  0.00  0.00    +0.000 A 
ATOM     14  C   UNL     1       4.155   3.859  18.629  0.00  0.00    +0.000 A 
ATOM     15  C   UNL     1       5.416   4.252  18.163  0.00  0.00    +0.000 A 
BRANCH  12  16
ATOM     16  O   UNL     1       2.180   6.867  17.903  0.00  0.00    +0.000 OA
ATOM     17  C   UNL     1       2.437   8.264  17.962  0.00  0.00    +0.000 C 
ENDBRANCH  12  16
BRANCH  13  18
ATOM     18  O   UNL     1       1.797   4.525  18.990  0.00  0.00    +0.000 OA
ATOM     19  C   UNL     1       1.582   4.700  20.385  0.00  0.00    +0.000 C 
ENDBRANCH  13  18
BRANCH  14  20
ATOM     20  O   UNL     1       3.938   2.657  19.249  0.00  0.00    +0.000 OA
ATOM     21  C   UNL     1       3.511   1.558  18.455  0.00  0.00    +0.000 C 
ENDBRANCH  14  20
ENDBRANCH   1  10
BRANCH   1  23
ATOM     22  N   UNL     1       8.163   7.965  18.122  0.00  0.00    +0.000 N 
ATOM     23  C   UNL     1       7.794   6.662  18.386  0.00  0.00    +0.000 C 
ATOM     24  O   UNL     1       8.046   6.111  19.454  0.00  0.00    +0.000 OA
ATOM     25  H   UNL     1       7.877   8.488  17.299  0.00  0.00    +0.000 HD
BRANCH  22  28
ATOM     26  C   UNL     1       9.057  10.032  18.932  0.00  0.00    +0.000 C 
ATOM     27  O   UNL     1       8.713  10.656  17.933  0.00  0.00    +0.000 OA
ATOM     28  N   UNL     1       8.824   8.695  19.116  0.00  0.00    +0.000 N 
ATOM     29  H   UNL     1       9.118   8.207  19.959  0.00  0.00    +0.000 HD
BRANCH  26  31
ATOM     30  C   UNL     1      10.430  11.758  19.711  0.00  0.00    +0.000 C 
ATOM     31  O   UNL     1       9.713  10.554  19.997  0.00  0.00    +0.000 OA
ENDBRANCH  26  31
ENDBRANCH  22  28
ENDBRANCH   1  23
TORSDOF 8
ENDMDL
MODEL 3
REMARK VINA RESULT:      -6.9      6.737     10.279
REMARK  Name = 
REMARK  12 active torsions:
REMARK  status: ('A' for Active; 'I' for Inactive)
REMARK    1  A    between atoms: C_1  and  O_2
REMARK    2  A    between atoms: O_2  and  C_3
REMARK    3  A    between atoms: N_5  and  N_6
REMARK    4  A    between atoms: C_7  and  C_9
REMARK    5  A    between atoms: C_9  and  C_18
REMARK    6  A    between atoms: C_10  and  C_11
REMARK    7  A    between atoms: C_20  and  O_21
REMARK    8  A    between atoms: O_21  and  C_22
REMARK    9  A    between atoms: C_23  and  O_24
REMARK   10  A    between atoms: O_24  and  C_25
REMARK   11  A    between atoms: C_26  and  O_27
REMARK   12  A    between atoms: O_27  and  C_28
REMARK                            x       y       z     vdW  Elec       q    Type
REMARK                         _______ _______ _______ _____ _____    ______ ____
ROOT
ATOM      1  C   UNL     1      -1.167  11.711  18.234  0.00  0.00    +0.000 C 
ATOM      2  C   UNL     1      -0.696  12.975  18.332  0.00  0.00    +0.000 C 
ENDROOT
BRANCH   2   3
ATOM      3  C   UNL     1       0.536  13.346  19.049  0.00  0.00    +0.000 A 
ATOM      4  C   UNL     1       0.492  13.671  20.413  0.00  0.00    +0.000 A 
ATOM      5  C   UNL     1       1.643  14.108  21.074  0.00  0.00    +0.000 A 
ATOM      6  C   UNL     1       2.845  14.215  20.377  0.00  0.00    +0.000 A 
ATOM      7  C   UNL     1       2.889  13.873  19.031  0.00  0.00    +0.000 A 
ATOM      8  F   UNL     1       4.046  13.970  18.363  0.00  0.00    +0.000 F 
ATOM      9  C   UNL     1       1.749  13.438  18.361  0.00  0.00    +0.000 A 
ENDBRANCH   2   3
BRANCH   1  10
ATOM     10  C   UNL     1      -0.455  10.604  18.916  0.00  0.00    +0.000 A 
ATOM     11  C   UNL     1      -0.762  10.263  20.236  0.00  0.00    +0.000 A 
ATOM     12  C   UNL     1       0.025   9.337  20.929  0.00  0.00    +0.000 A 
ATOM     13  C   UNL     1       1.131   8.730  20.290  0.00  0.00    +0.000 A 
ATOM     14  C   UNL     1       1.434   9.061  18.953  0.00  0.00    +0.000 A 
ATOM     15  C   UNL     1       0.626   9.985  18.278  0.00  0.00    +0.000 A 
BRANCH  12  16
ATOM     16  O   UNL     1      -0.178   9.008  22.250  0.00  0.00    +0.000 OA
ATOM     17  C   UNL     1      -0.640  10.042  23.110  0.00  0.00    +0.000 C 
ENDBRANCH  12  16
BRANCH  13  18
ATOM     18  O   UNL     1       1.880   7.895  21.092  0.00  0.00    +0.000 OA
ATOM     19  C   UNL     1       1.735   6.495  20.892  0.00  0.00    +0.000 C 
ENDBRANCH  13  18
BRANCH  14  20
ATOM     20  O   UNL     1       2.549   8.501  18.385  0.00  0.00    +0.000 OA
ATOM     21  C   UNL     1       2.373   7.404  17.498  0.00  0.00    +0.000 C 
ENDBRANCH  14  20
ENDBRANCH   1  10
BRANCH   1  23
ATOM     22  N   UNL     1      -2.361  11.441  16.115  0.00  0.00    +0.000 N 
ATOM     23  C   UNL     1      -2.441  11.403  17.491  0.00  0.00    +0.000 C 
ATOM     24  O   UNL     1      -3.471  11.088  18.082  0.00  0.00    +0.000 OA
ATOM     25  H   UNL     1      -1.502  11.588  15.592  0.00  0.00    +0.000 HD
BRANCH  22  28
ATOM     26  C   UNL     1      -3.343  10.221  14.303  0.00  0.00    +0.000 C 
ATOM     27  O   UNL     1      -2.273   9.727  13.962  0.00  0.00    +0.000 OA
ATOM     28  N   UNL     1      -3.485  11.079  15.362  0.00  0.00    +0.000 N 
ATOM     29  H   UNL     1      -4.387  11.470  15.623  0.00  0.00    +0.000 HD
BRANCH  26  31
ATOM     30  C   UNL     1      -4.464   9.897  12.277  0.00  0.00    +0.000 C 
ATOM     31  O   UNL     1      -4.537  10.004  13.701  0.00  0.00    +0.000 OA
ENDBRANCH  26  31
ENDBRANCH  22  28
ENDBRANCH   1  23
TORSDOF 8
ENDMDL
MODEL 4
REMARK VINA RESULT:      -6.7      3.908      6.460
REMARK  Name = 
REMARK  12 active torsions:
REMARK  status: ('A' for Active; 'I' for Inactive)
REMARK    1  A    between atoms: C_1  and  O_2
REMARK    2  A    between atoms: O_2  and  C_3
REMARK    3  A    between atoms: N_5  and  N_6
REMARK    4  A    between atoms: C_7  and  C_9
REMARK    5  A    between atoms: C_9  and  C_18
REMARK    6  A    between atoms: C_10  and  C_11
REMARK    7  A    between atoms: C_20  and  O_21
REMARK    8  A    between atoms: O_21  and  C_22
REMARK    9  A    between atoms: C_23  and  O_24
REMARK   10  A    between atoms: O_24  and  C_25
REMARK   11  A    between atoms: C_26  and  O_27
REMARK   12  A    between atoms: O_27  and  C_28
REMARK                            x       y       z     vdW  Elec       q    Type
REMARK                         _______ _______ _______ _____ _____    ______ ____
ROOT
ATOM      1  C   UNL     1       3.052   6.474  18.028  0.00  0.00    +0.000 C 
ATOM      2  C   UNL     1       2.426   5.471  18.686  0.00  0.00    +0.000 C 
ENDROOT
BRANCH   2   3
ATOM      3  C   UNL     1       2.886   4.072  18.692  0.00  0.00    +0.000 A 
ATOM      4  C   UNL     1       2.367   3.151  17.770  0.00  0.00    +0.000 A 
ATOM      5  C   UNL     1       2.735   1.804  17.831  0.00  0.00    +0.000 A 
ATOM      6  C   UNL     1       3.630   1.373  18.807  0.00  0.00    +0.000 A 
ATOM      7  C   UNL     1       4.158   2.292  19.706  0.00  0.00    +0.000 A 
ATOM      8  F   UNL     1       5.023   1.878  20.641  0.00  0.00    +0.000 F 
ATOM      9  C   UNL     1       3.797   3.635  19.657  0.00  0.00    +0.000 A 
ENDBRANCH   2   3
BRANCH   1  10
ATOM     10  C   UNL     1       4.253   6.182  17.211  0.00  0.00    +0.000 A 
ATOM     11  C   UNL     1       4.258   5.122  16.301  0.00  0.00    +0.000 A 
ATOM     12  C   UNL     1       5.443   4.745  15.659  0.00  0.00    +0.000 A 
ATOM     13  C   UNL     1       6.643   5.447  15.921  0.00  0.00    +0.000 A 
ATOM     14  C   UNL     1       6.638   6.528  16.827  0.00  0.00    +0.000 A 
ATOM     15  C   UNL     1       5.436   6.891  17.450  0.00  0.00    +0.000 A 
BRANCH  12  16
ATOM     16  O   UNL     1       5.535   3.668  14.807  0.00  0.00    +0.000 OA
ATOM     17  C   UNL     1       5.111   3.869  13.465  0.00  0.00    +0.000 C 
ENDBRANCH  12  16
BRANCH  13  18
ATOM     18  O   UNL     1       7.762   4.940  15.294  0.00  0.00    +0.000 OA
ATOM     19  C   UNL     1       8.064   5.435  13.995  0.00  0.00    +0.000 C 
ENDBRANCH  13  18
BRANCH  14  20
ATOM     20  O   UNL     1       7.830   7.146  17.104  0.00  0.00    +0.000 OA
ATOM     21  C   UNL     1       7.795   8.451  17.665  0.00  0.00    +0.000 C 
ENDBRANCH  14  20
ENDBRANCH   1  10
BRANCH   1  23
ATOM     22  N   UNL     1       1.854   8.253  19.206  0.00  0.00    +0.000 N 
ATOM     23  C   UNL     1       2.521   7.883  18.057  0.00  0.00    +0.000 C 
ATOM     24  O   UNL     1       2.719   8.666  17.131  0.00  0.00    +0.000 OA
ATOM     25  H   UNL     1       1.768   7.670  20.034  0.00  0.00    +0.000 HD
BRANCH  22  28
ATOM     26  C   UNL     1       0.444   9.878  20.257  0.00  0.00    +0.000 C 
ATOM     27  O   UNL     1      -0.073   9.053  21.003  0.00  0.00    +0.000 OA
ATOM     28  N   UNL     1       1.411   9.575  19.336  0.00  0.00    +0.000 N 
ATOM     29  H   UNL     1       1.825  10.284  18.734  0.00  0.00    +0.000 HD
BRANCH  26  31
ATOM     30  C   UNL     1      -1.211  11.488  19.884  0.00  0.00    +0.000 C 
ATOM     31  O   UNL     1       0.149  11.200  20.223  0.00  0.00    +0.000 OA
ENDBRANCH  26  31
ENDBRANCH  22  28
ENDBRANCH   1  23
TORSDOF 8
ENDMDL
MODEL 5
REMARK VINA RESULT:      -6.6      9.188     12.709
REMARK  Name = 
REMARK  12 active torsions:
REMARK  status: ('A' for Active; 'I' for Inactive)
REMARK    1  A    between atoms: C_1  and  O_2
REMARK    2  A    between atoms: O_2  and  C_3
REMARK    3  A    between atoms: N_5  and  N_6
REMARK    4  A    between atoms: C_7  and  C_9
REMARK    5  A    between atoms: C_9  and  C_18
REMARK    6  A    between atoms: C_10  and  C_11
REMARK    7  A    between atoms: C_20  and  O_21
REMARK    8  A    between atoms: O_21  and  C_22
REMARK    9  A    between atoms: C_23  and  O_24
REMARK   10  A    between atoms: O_24  and  C_25
REMARK   11  A    between atoms: C_26  and  O_27
REMARK   12  A    between atoms: O_27  and  C_28
REMARK                            x       y       z     vdW  Elec       q    Type
REMARK                         _______ _______ _______ _____ _____    ______ ____
ROOT
ATOM      1  C   UNL     1      -0.250  12.972  19.574  0.00  0.00    +0.000 C 
ATOM      2  C   UNL     1       0.534  12.350  20.484  0.00  0.00    +0.000 C 
ENDROOT
BRANCH   2   3
ATOM      3  C   UNL     1       0.131  11.153  21.242  0.00  0.00    +0.000 A 
ATOM      4  C   UNL     1      -0.556  11.282  22.458  0.00  0.00    +0.000 A 
ATOM      5  C   UNL     1      -0.860  10.151  23.222  0.00  0.00    +0.000 A 
ATOM      6  C   UNL     1      -0.487   8.887  22.770  0.00  0.00    +0.000 A 
ATOM      7  C   UNL     1       0.175   8.763  21.554  0.00  0.00    +0.000 A 
ATOM      8  F   UNL     1       0.528   7.546  21.118  0.00  0.00    +0.000 F 
ATOM      9  C   UNL     1       0.486   9.880  20.786  0.00  0.00    +0.000 A 
ENDBRANCH   2   3
BRANCH   1  10
ATOM     10  C   UNL     1      -1.625  12.479  19.325  0.00  0.00    +0.000 A 
ATOM     11  C   UNL     1      -1.902  11.658  18.229  0.00  0.00    +0.000 A 
ATOM     12  C   UNL     1      -3.224  11.336  17.902  0.00  0.00    +0.000 A 
ATOM     13  C   UNL     1      -4.289  11.832  18.690  0.00  0.00    +0.000 A 
ATOM     14  C   UNL     1      -4.011  12.648  19.807  0.00  0.00    +0.000 A 
ATOM     15  C   UNL     1      -2.679  12.949  20.118  0.00  0.00    +0.000 A 
BRANCH  12  16
ATOM     16  O   UNL     1      -3.572  10.593  16.797  0.00  0.00    +0.000 OA
ATOM     17  C   UNL     1      -2.516   9.961  16.084  0.00  0.00    +0.000 C 
ENDBRANCH  12  16
BRANCH  13  18
ATOM     18  O   UNL     1      -5.549  11.516  18.230  0.00  0.00    +0.000 OA
ATOM     19  C   UNL     1      -6.205  12.476  17.411  0.00  0.00    +0.000 C 
ENDBRANCH  13  18
BRANCH  14  20
ATOM     20  O   UNL     1      -5.069  13.161  20.512  0.00  0.00    +0.000 OA
ATOM     21  C   UNL     1      -5.337  12.630  21.802  0.00  0.00    +0.000 C 
ENDBRANCH  14  20
ENDBRANCH   1  10
BRANCH   1  23
ATOM     22  N   UNL     1      -0.641  15.275  18.843  0.00  0.00    +0.000 N 
ATOM     23  C   UNL     1       0.222  14.200  18.840  0.00  0.00    +0.000 C 
ATOM     24  O   UNL     1       1.333  14.251  18.317  0.00  0.00    +0.000 OA
ATOM     25  H   UNL     1      -1.517  15.308  19.358  0.00  0.00    +0.000 HD
BRANCH  22  28
ATOM     26  C   UNL     1      -1.053  17.570  18.300  0.00  0.00    +0.000 C 
ATOM     27  O   UNL     1      -2.155  17.575  18.838  0.00  0.00    +0.000 OA
ATOM     28  N   UNL     1      -0.229  16.477  18.256  0.00  0.00    +0.000 N 
ATOM     29  H   UNL     1       0.683  16.506  17.805  0.00  0.00    +0.000 HD
BRANCH  26  31
ATOM     30  C   UNL     1       0.153  18.297  16.432  0.00  0.00    +0.000 C 
ATOM     31  O   UNL     1      -0.479  18.626  17.672  0.00  0.00    +0.000 OA
ENDBRANCH  26  31
ENDBRANCH  22  28
ENDBRANCH   1  23
TORSDOF 8
ENDMDL
MODEL 6
REMARK VINA RESULT:      -6.5      6.587      9.683
REMARK  Name = 
REMARK  12 active torsions:
REMARK  status: ('A' for Active; 'I' for Inactive)
REMARK    1  A    between atoms: C_1  and  O_2
REMARK    2  A    between atoms: O_2  and  C_3
REMARK    3  A    between atoms: N_5  and  N_6
REMARK    4  A    between atoms: C_7  and  C_9
REMARK    5  A    between atoms: C_9  and  C_18
REMARK    6  A    between atoms: C_10  and  C_11
REMARK    7  A    between atoms: C_20  and  O_21
REMARK    8  A    between atoms: O_21  and  C_22
REMARK    9  A    between atoms: C_23  and  O_24
REMARK   10  A    between atoms: O_24  and  C_25
REMARK   11  A    between atoms: C_26  and  O_27
REMARK   12  A    between atoms: O_27  and  C_28
REMARK                            x       y       z     vdW  Elec       q    Type
REMARK                         _______ _______ _______ _____ _____    ______ ____
ROOT
ATOM      1  C   UNL     1       0.243  10.588  20.446  0.00  0.00    +0.000 C 
ATOM      2  C   UNL     1       1.252  11.464  20.657  0.00  0.00    +0.000 C 
ENDROOT
BRANCH   2   3
ATOM      3  C   UNL     1       1.222  12.876  20.241  0.00  0.00    +0.000 A 
ATOM      4  C   UNL     1       1.583  13.238  18.934  0.00  0.00    +0.000 A 
ATOM      5  C   UNL     1       1.641  14.585  18.564  0.00  0.00    +0.000 A 
ATOM      6  C   UNL     1       1.330  15.575  19.493  0.00  0.00    +0.000 A 
ATOM      7  C   UNL     1       0.953  15.211  20.781  0.00  0.00    +0.000 A 
ATOM      8  F   UNL     1       0.649  16.163  21.672  0.00  0.00    +0.000 F 
ATOM      9  C   UNL     1       0.894  13.874  21.163  0.00  0.00    +0.000 A 
ENDBRANCH   2   3
BRANCH   1  10
ATOM     10  C   UNL     1      -0.970  11.023  19.713  0.00  0.00    +0.000 A 
ATOM     11  C   UNL     1      -1.850  11.951  20.275  0.00  0.00    +0.000 A 
ATOM     12  C   UNL     1      -3.075  12.228  19.658  0.00  0.00    +0.000 A 
ATOM     13  C   UNL     1      -3.422  11.579  18.451  0.00  0.00    +0.000 A 
ATOM     14  C   UNL     1      -2.529  10.654  17.873  0.00  0.00    +0.000 A 
ATOM     15  C   UNL     1      -1.305  10.399  18.506  0.00  0.00    +0.000 A 
BRANCH  12  16
ATOM     16  O   UNL     1      -4.018  13.076  20.193  0.00  0.00    +0.000 OA
ATOM     17  C   UNL     1      -4.472  12.790  21.510  0.00  0.00    +0.000 C 
ENDBRANCH  12  16
BRANCH  13  18
ATOM     18  O   UNL     1      -4.683  11.870  17.976  0.00  0.00    +0.000 OA
ATOM     19  C   UNL     1      -5.729  10.962  18.299  0.00  0.00    +0.000 C 
ENDBRANCH  13  18
BRANCH  14  20
ATOM     20  O   UNL     1      -2.923   9.997  16.736  0.00  0.00    +0.000 OA
ATOM     21  C   UNL     1      -2.718  10.636  15.484  0.00  0.00    +0.000 C 
ENDBRANCH  14  20
ENDBRANCH   1  10
BRANCH   1  23
ATOM     22  N   UNL     1       1.456   8.463  20.457  0.00  0.00    +0.000 N 
ATOM     23  C   UNL     1       0.344   9.152  20.891  0.00  0.00    +0.000 C 
ATOM     24  O   UNL     1      -0.493   8.649  21.637  0.00  0.00    +0.000 OA
ATOM     25  H   UNL     1       2.222   8.877  19.933  0.00  0.00    +0.000 HD
BRANCH  22  28
ATOM     26  C   UNL     1       2.232   6.231  20.071  0.00  0.00    +0.000 C 
ATOM     27  O   UNL     1       2.600   6.480  18.927  0.00  0.00    +0.000 OA
ATOM     28  N   UNL     1       1.657   7.152  20.906  0.00  0.00    +0.000 N 
ATOM     29  H   UNL     1       1.366   6.915  21.852  0.00  0.00    +0.000 HD
BRANCH  26  31
ATOM     30  C   UNL     1       1.181   4.191  20.523  0.00  0.00    +0.000 C 
ATOM     31  O   UNL     1       2.331   5.027  20.684  0.00  0.00    +0.000 OA
ENDBRANCH  26  31
ENDBRANCH  22  28
ENDBRANCH   1  23
TORSDOF 8
ENDMDL
MODEL 7
REMARK VINA RESULT:      -6.5      4.026      6.320
REMARK  Name = 
REMARK  12 active torsions:
REMARK  status: ('A' for Active; 'I' for Inactive)
REMARK    1  A    between atoms: C_1  and  O_2
REMARK    2  A    between atoms: O_2  and  C_3
REMARK    3  A    between atoms: N_5  and  N_6
REMARK    4  A    between atoms: C_7  and  C_9
REMARK    5  A    between atoms: C_9  and  C_18
REMARK    6  A    between atoms: C_10  and  C_11
REMARK    7  A    between atoms: C_20  and  O_21
REMARK    8  A    between atoms: O_21  and  C_22
REMARK    9  A    between atoms: C_23  and  O_24
REMARK   10  A    between atoms: O_24  and  C_25
REMARK   11  A    between atoms: C_26  and  O_27
REMARK   12  A    between atoms: O_27  and  C_28
REMARK                            x       y       z     vdW  Elec       q    Type
REMARK                         _______ _______ _______ _____ _____    ______ ____
ROOT
ATOM      1  C   UNL     1       2.458   6.476  19.569  0.00  0.00    +0.000 C 
ATOM      2  C   UNL     1       1.755   5.345  19.811  0.00  0.00    +0.000 C 
ENDROOT
BRANCH   2   3
ATOM      3  C   UNL     1       2.223   3.992  19.469  0.00  0.00    +0.000 A 
ATOM      4  C   UNL     1       2.900   3.215  20.420  0.00  0.00    +0.000 A 
ATOM      5  C   UNL     1       3.423   1.966  20.071  0.00  0.00    +0.000 A 
ATOM      6  C   UNL     1       3.264   1.485  18.774  0.00  0.00    +0.000 A 
ATOM      7  C   UNL     1       2.574   2.249  17.840  0.00  0.00    +0.000 A 
ATOM      8  F   UNL     1       2.417   1.783  16.594  0.00  0.00    +0.000 F 
ATOM      9  C   UNL     1       2.051   3.494  18.174  0.00  0.00    +0.000 A 
ENDBRANCH   2   3
BRANCH   1  10
ATOM     10  C   UNL     1       3.766   6.396  18.877  0.00  0.00    +0.000 A 
ATOM     11  C   UNL     1       3.889   6.770  17.536  0.00  0.00    +0.000 A 
ATOM     12  C   UNL     1       5.080   6.533  16.842  0.00  0.00    +0.000 A 
ATOM     13  C   UNL     1       6.174   5.925  17.500  0.00  0.00    +0.000 A 
ATOM     14  C   UNL     1       6.059   5.561  18.858  0.00  0.00    +0.000 A 
ATOM     15  C   UNL     1       4.858   5.816  19.534  0.00  0.00    +0.000 A 
BRANCH  12  16
ATOM     16  O   UNL     1       5.245   6.810  15.504  0.00  0.00    +0.000 OA
ATOM     17  C   UNL     1       5.127   5.720  14.598  0.00  0.00    +0.000 C 
ENDBRANCH  12  16
BRANCH  13  18
ATOM     18  O   UNL     1       7.266   5.669  16.698  0.00  0.00    +0.000 OA
ATOM     19  C   UNL     1       7.471   4.325  16.281  0.00  0.00    +0.000 C 
ENDBRANCH  13  18
BRANCH  14  20
ATOM     20  O   UNL     1       7.116   4.918  19.447  0.00  0.00    +0.000 OA
ATOM     21  C   UNL     1       8.220   5.699  19.883  0.00  0.00    +0.000 C 
ENDBRANCH  14  20
ENDBRANCH   1  10
BRANCH   1  23
ATOM     22  N   UNL     1       1.690   8.047  21.281  0.00  0.00    +0.000 N 
ATOM     23  C   UNL     1       1.915   7.832  19.938  0.00  0.00    +0.000 C 
ATOM     24  O   UNL     1       1.735   8.705  19.092  0.00  0.00    +0.000 OA
ATOM     25  H   UNL     1       1.931   7.390  22.018  0.00  0.00    +0.000 HD
BRANCH  22  28
ATOM     26  C   UNL     1       0.036   9.462  22.278  0.00  0.00    +0.000 C 
ATOM     27  O   UNL     1      -0.748   8.536  22.463  0.00  0.00    +0.000 OA
ATOM     28  N   UNL     1       1.270   9.315  21.703  0.00  0.00    +0.000 N 
ATOM     29  H   UNL     1       1.900  10.102  21.566  0.00  0.00    +0.000 HD
BRANCH  26  31
ATOM     30  C   UNL     1       0.040  11.680  21.537  0.00  0.00    +0.000 C 
ATOM     31  O   UNL     1      -0.187  10.758  22.607  0.00  0.00    +0.000 OA
ENDBRANCH  26  31
ENDBRANCH  22  28
ENDBRANCH   1  23
TORSDOF 8
ENDMDL
MODEL 8
REMARK VINA RESULT:      -6.5      1.256      1.688
REMARK  Name = 
REMARK  12 active torsions:
REMARK  status: ('A' for Active; 'I' for Inactive)
REMARK    1  A    between atoms: C_1  and  O_2
REMARK    2  A    between atoms: O_2  and  C_3
REMARK    3  A    between atoms: N_5  and  N_6
REMARK    4  A    between atoms: C_7  and  C_9
REMARK    5  A    between atoms: C_9  and  C_18
REMARK    6  A    between atoms: C_10  and  C_11
REMARK    7  A    between atoms: C_20  and  O_21
REMARK    8  A    between atoms: O_21  and  C_22
REMARK    9  A    between atoms: C_23  and  O_24
REMARK   10  A    between atoms: O_24  and  C_25
REMARK   11  A    between atoms: C_26  and  O_27
REMARK   12  A    between atoms: O_27  and  C_28
REMARK                            x       y       z     vdW  Elec       q    Type
REMARK                         _______ _______ _______ _____ _____    ______ ____
ROOT
ATOM      1  C   UNL     1       3.821   3.637  19.141  0.00  0.00    +0.000 C 
ATOM      2  C   UNL     1       2.832   4.256  19.826  0.00  0.00    +0.000 C 
ENDROOT
BRANCH   2   3
ATOM      3  C   UNL     1       2.511   5.688  19.702  0.00  0.00    +0.000 A 
ATOM      4  C   UNL     1       2.024   6.403  20.807  0.00  0.00    +0.000 A 
ATOM      5  C   UNL     1       1.635   7.739  20.669  0.00  0.00    +0.000 A 
ATOM      6  C   UNL     1       1.739   8.368  19.430  0.00  0.00    +0.000 A 
ATOM      7  C   UNL     1       2.241   7.662  18.343  0.00  0.00    +0.000 A 
ATOM      8  F   UNL     1       2.346   8.269  17.154  0.00  0.00    +0.000 F 
ATOM      9  C   UNL     1       2.630   6.331  18.467  0.00  0.00    +0.000 A 
ENDBRANCH   2   3
BRANCH   1  10
ATOM     10  C   UNL     1       4.690   4.421  18.232  0.00  0.00    +0.000 A 
ATOM     11  C   UNL     1       4.433   4.466  16.859  0.00  0.00    +0.000 A 
ATOM     12  C   UNL     1       5.349   5.062  15.986  0.00  0.00    +0.000 A 
ATOM     13  C   UNL     1       6.538   5.637  16.493  0.00  0.00    +0.000 A 
ATOM     14  C   UNL     1       6.793   5.607  17.880  0.00  0.00    +0.000 A 
ATOM     15  C   UNL     1       5.856   5.011  18.734  0.00  0.00    +0.000 A 
BRANCH  12  16
ATOM     16  O   UNL     1       5.193   5.079  14.619  0.00  0.00    +0.000 OA
ATOM     17  C   UNL     1       5.317   3.836  13.939  0.00  0.00    +0.000 C 
ENDBRANCH  12  16
BRANCH  13  18
ATOM     18  O   UNL     1       7.402   6.126  15.536  0.00  0.00    +0.000 OA
ATOM     19  C   UNL     1       8.092   5.176  14.733  0.00  0.00    +0.000 C 
ENDBRANCH  13  18
BRANCH  14  20
ATOM     20  O   UNL     1       7.983   6.118  18.330  0.00  0.00    +0.000 OA
ATOM     21  C   UNL     1       8.139   7.530  18.361  0.00  0.00    +0.000 C 
ENDBRANCH  14  20
ENDBRANCH   1  10
BRANCH   1  23
ATOM     22  N   UNL     1       5.112   1.851  20.204  0.00  0.00    +0.000 N 
ATOM     23  C   UNL     1       4.101   2.168  19.322  0.00  0.00    +0.000 C 
ATOM     24  O   UNL     1       3.429   1.310  18.755  0.00  0.00    +0.000 OA
ATOM     25  H   UNL     1       5.613   2.528  20.773  0.00  0.00    +0.000 HD
BRANCH  22  28
ATOM     26  C   UNL     1       6.053   0.167  21.623  0.00  0.00    +0.000 C 
ATOM     27  O   UNL     1       6.468   0.984  22.438  0.00  0.00    +0.000 OA
ATOM     28  N   UNL     1       5.366   0.503  20.486  0.00  0.00    +0.000 N 
ATOM     29  H   UNL     1       5.031  -0.199  19.831  0.00  0.00    +0.000 HD
BRANCH  26  31
ATOM     30  C   UNL     1       7.340  -1.591  22.473  0.00  0.00    +0.000 C 
ATOM     31  O   UNL     1       6.203  -1.177  21.710  0.00  0.00    +0.000 OA
ENDBRANCH  26  31
ENDBRANCH  22  28
ENDBRANCH   1  23
TORSDOF 8
ENDMDL
MODEL 9
REMARK VINA RESULT:      -6.4      9.017     12.096
REMARK  Name = 
REMARK  12 active torsions:
REMARK  status: ('A' for Active; 'I' for Inactive)
REMARK    1  A    between atoms: C_1  and  O_2
REMARK    2  A    between atoms: O_2  and  C_3
REMARK    3  A    between atoms: N_5  and  N_6
REMARK    4  A    between atoms: C_7  and  C_9
REMARK    5  A    between atoms: C_9  and  C_18
REMARK    6  A    between atoms: C_10  and  C_11
REMARK    7  A    between atoms: C_20  and  O_21
REMARK    8  A    between atoms: O_21  and  C_22
REMARK    9  A    between atoms: C_23  and  O_24
REMARK   10  A    between atoms: O_24  and  C_25
REMARK   11  A    between atoms: C_26  and  O_27
REMARK   12  A    between atoms: O_27  and  C_28
REMARK                            x       y       z     vdW  Elec       q    Type
REMARK                         _______ _______ _______ _____ _____    ______ ____
ROOT
ATOM      1  C   UNL     1      -0.202  12.958  19.671  0.00  0.00    +0.000 C 
ATOM      2  C   UNL     1       0.577  12.319  20.574  0.00  0.00    +0.000 C 
ENDROOT
BRANCH   2   3
ATOM      3  C   UNL     1       0.179  11.094  21.288  0.00  0.00    +0.000 A 
ATOM      4  C   UNL     1      -0.548  11.176  22.485  0.00  0.00    +0.000 A 
ATOM      5  C   UNL     1      -0.849  10.020  23.210  0.00  0.00    +0.000 A 
ATOM      6  C   UNL     1      -0.433   8.777  22.739  0.00  0.00    +0.000 A 
ATOM      7  C   UNL     1       0.270   8.698  21.543  0.00  0.00    +0.000 A 
ATOM      8  F   UNL     1       0.665   7.502  21.088  0.00  0.00    +0.000 F 
ATOM      9  C   UNL     1       0.578   9.842  20.812  0.00  0.00    +0.000 A 
ENDBRANCH   2   3
BRANCH   1  10
ATOM     10  C   UNL     1      -1.567  12.456  19.387  0.00  0.00    +0.000 A 
ATOM     11  C   UNL     1      -1.808  11.627  18.288  0.00  0.00    +0.000 A 
ATOM     12  C   UNL     1      -3.119  11.295  17.926  0.00  0.00    +0.000 A 
ATOM     13  C   UNL     1      -4.208  11.789  18.683  0.00  0.00    +0.000 A 
ATOM     14  C   UNL     1      -3.966  12.612  19.801  0.00  0.00    +0.000 A 
ATOM     15  C   UNL     1      -2.644  12.923  20.148  0.00  0.00    +0.000 A 
BRANCH  12  16
ATOM     16  O   UNL     1      -3.432  10.543  16.817  0.00  0.00    +0.000 OA
ATOM     17  C   UNL     1      -2.825  10.922  15.587  0.00  0.00    +0.000 C 
ENDBRANCH  12  16
BRANCH  13  18
ATOM     18  O   UNL     1      -5.453  11.463  18.189  0.00  0.00    +0.000 OA
ATOM     19  C   UNL     1      -6.191  10.465  18.884  0.00  0.00    +0.000 C 
ENDBRANCH  13  18
BRANCH  14  20
ATOM     20  O   UNL     1      -5.046  13.123  20.474  0.00  0.00    +0.000 OA
ATOM     21  C   UNL     1      -5.035  13.079  21.894  0.00  0.00    +0.000 C 
ENDBRANCH  14  20
ENDBRANCH   1  10
BRANCH   1  23
ATOM     22  N   UNL     1       1.631  14.375  18.880  0.00  0.00    +0.000 N 
ATOM     23  C   UNL     1       0.265  14.214  18.982  0.00  0.00    +0.000 C 
ATOM     24  O   UNL     1      -0.530  15.017  18.497  0.00  0.00    +0.000 OA
ATOM     25  H   UNL     1       2.314  13.681  19.169  0.00  0.00    +0.000 HD
BRANCH  22  28
ATOM     26  C   UNL     1       3.057  16.294  18.765  0.00  0.00    +0.000 C 
ATOM     27  O   UNL     1       3.497  16.125  19.897  0.00  0.00    +0.000 OA
ATOM     28  N   UNL     1       2.132  15.475  18.174  0.00  0.00    +0.000 N 
ATOM     29  H   UNL     1       1.789  15.640  17.230  0.00  0.00    +0.000 HD
BRANCH  26  31
ATOM     30  C   UNL     1       2.612  17.380  16.742  0.00  0.00    +0.000 C 
ATOM     31  O   UNL     1       3.408  17.300  17.927  0.00  0.00    +0.000 OA
ENDBRANCH  26  31
ENDBRANCH  22  28
ENDBRANCH   1  23
TORSDOF 8
ENDMDL
