MODEL 1
REMARK VINA RESULT:      -7.3      0.000      0.000
REMARK  Name = 
REMARK  9 active torsions:
REMARK  status: ('A' for Active; 'I' for Inactive)
REMARK    1  A    between atoms: C_1  and  O_2
REMARK    2  A    between atoms: O_2  and  C_3
REMARK    3  A    between atoms: C_8  and  N_9
REMARK    4  A    between atoms: N_12  and  C_13
REMARK    5  A    between atoms: C_13  and  C_14
REMARK    6  A    between atoms: C_16  and  C_17
REMARK    7  A    between atoms: N_19  and  C_20
REMARK    8  A    between atoms: C_20  and  C_21
REMARK    9  A    between atoms: C_21  and  N_22
REMARK                            x       y       z     vdW  Elec       q    Type
REMARK                         _______ _______ _______ _____ _____    ______ ____
ROOT
ATOM      1  C   UNL     1       8.181   8.611  18.029  0.00  0.00    +0.000 A 
ATOM      2  N   UNL     1       7.578   7.998  17.022  0.00  0.00    +0.000 NA
ATOM      3  C   UNL     1       7.531   6.675  17.433  0.00  0.00    +0.000 A 
ATOM      4  C   UNL     1       8.164   6.552  18.646  0.00  0.00    +0.000 A 
ATOM      5  O   UNL     1       8.583   7.782  19.041  0.00  0.00    +0.000 OA
ENDROOT
BRANCH   3   6
ATOM      6  C   UNL     1       6.856   5.597  16.731  0.00  0.00    +0.000 C 
ATOM      7  O   UNL     1       7.458   4.756  16.079  0.00  0.00    +0.000 OA
ATOM      8  N   UNL     1       5.484   5.590  16.883  0.00  0.00    +0.000 N 
ATOM      9  H   UNL     1       5.053   6.381  17.346  0.00  0.00    +0.000 HD
BRANCH   8  10
ATOM     10  C   UNL     1       4.675   4.520  16.325  0.00  0.00    +0.000 C 
BRANCH  10  11
ATOM     11  C   UNL     1       4.046   3.631  17.426  0.00  0.00    +0.000 C 
BRANCH  11  12
ATOM     12  N   UNL     1       3.509   4.359  18.592  0.00  0.00    +0.000 NA
ATOM     13  C   UNL     1       3.548   3.508  19.810  0.00  0.00    +0.000 C 
ATOM     14  C   UNL     1       2.459   2.414  19.886  0.00  0.00    +0.000 C 
ATOM     15  O   UNL     1       1.144   2.928  19.635  0.00  0.00    +0.000 OA
ATOM     16  C   UNL     1       1.104   3.631  18.387  0.00  0.00    +0.000 C 
ATOM     17  C   UNL     1       2.105   4.795  18.408  0.00  0.00    +0.000 C 
ENDBRANCH  11  12
ENDBRANCH  10  11
ENDBRANCH   8  10
ENDBRANCH   3   6
BRANCH   1  18
ATOM     18  C   UNL     1       8.410  10.080  18.243  0.00  0.00    +0.000 C 
BRANCH  18  22
ATOM     19  N   UNL     1       9.765  13.342  19.153  0.00  0.00    +0.000 N 
ATOM     20  C   UNL     1       9.841  12.799  17.791  0.00  0.00    +0.000 C 
ATOM     21  C   UNL     1      10.459  11.382  17.825  0.00  0.00    +0.000 C 
ATOM     22  N   UNL     1       9.763  10.422  18.724  0.00  0.00    +0.000 NA
ATOM     23  C   UNL     1       9.693  11.034  20.073  0.00  0.00    +0.000 C 
ATOM     24  C   UNL     1       9.104  12.469  20.135  0.00  0.00    +0.000 C 
BRANCH  19  30
ATOM     25  C   UNL     1       9.469  15.758  19.646  0.00  0.00    +0.000 A 
ATOM     26  C   UNL     1      10.067  16.994  19.958  0.00  0.00    +0.000 A 
ATOM     27  C   UNL     1      11.438  17.098  20.164  0.00  0.00    +0.000 A 
ATOM     28  C   UNL     1      12.230  15.967  20.054  0.00  0.00    +0.000 A 
ATOM     29  C   UNL     1      11.646  14.738  19.732  0.00  0.00    +0.000 A 
ATOM     30  C   UNL     1      10.261  14.589  19.505  0.00  0.00    +0.000 A 
BRANCH  25  32
ATOM     31  C   UNL     1       7.703  16.408  18.200  0.00  0.00    +0.000 C 
ATOM     32  O   UNL     1       8.123  15.687  19.357  0.00  0.00    +0.000 OA
ENDBRANCH  25  32
ENDBRANCH  19  30
ENDBRANCH  18  22
ENDBRANCH   1  18
TORSDOF 8
ENDMDL
MODEL 2
REMARK VINA RESULT:      -6.9      1.295      1.804
REMARK  Name = 
REMARK  9 active torsions:
REMARK  status: ('A' for Active; 'I' for Inactive)
REMARK    1  A    between atoms: C_1  and  O_2
REMARK    2  A    between atoms: O_2  and  C_3
REMARK    3  A    between atoms: C_8  and  N_9
REMARK    4  A    between atoms: N_12  and  C_13
REMARK    5  A    between atoms: C_13  and  C_14
REMARK    6  A    between atoms: C_16  and  C_17
REMARK    7  A    between atoms: N_19  and  C_20
REMARK    8  A    between atoms: C_20  and  C_21
REMARK    9  A    between atoms: C_21  and  N_22
REMARK                            x       y       z     vdW  Elec       q    Type
REMARK                         _______ _______ _______ _____ _____    ______ ____
ROOT
ATOM      1  C   UNL     1       8.254   8.975  17.955  0.00  0.00    +0.000 A 
ATOM      2  N   UNL     1       7.636   8.268  17.021  0.00  0.00    +0.000 NA
ATOM      3  C   UNL     1       7.597   6.990  17.559  0.00  0.00    +0.000 A 
ATOM      4  C   UNL     1       8.248   6.985  18.768  0.00  0.00    +0.000 A 
ATOM      5  O   UNL     1       8.672   8.247  19.037  0.00  0.00    +0.000 OA
ENDROOT
BRANCH   3   6
ATOM      6  C   UNL     1       6.912   5.850  16.974  0.00  0.00    +0.000 C 
ATOM      7  O   UNL     1       7.500   4.974  16.357  0.00  0.00    +0.000 OA
ATOM      8  N   UNL     1       5.550   5.828  17.198  0.00  0.00    +0.000 N 
ATOM      9  H   UNL     1       5.125   6.643  17.624  0.00  0.00    +0.000 HD
BRANCH   8  10
ATOM     10  C   UNL     1       4.739   4.704  16.764  0.00  0.00    +0.000 C 
BRANCH  10  11
ATOM     11  C   UNL     1       4.578   3.638  17.876  0.00  0.00    +0.000 C 
BRANCH  11  12
ATOM     12  N   UNL     1       3.467   2.686  17.677  0.00  0.00    +0.000 NA
ATOM     13  C   UNL     1       2.201   3.405  17.378  0.00  0.00    +0.000 C 
ATOM     14  C   UNL     1       1.520   4.076  18.593  0.00  0.00    +0.000 C 
ATOM     15  O   UNL     1       1.377   3.183  19.706  0.00  0.00    +0.000 OA
ATOM     16  C   UNL     1       2.640   2.605  20.058  0.00  0.00    +0.000 C 
ATOM     17  C   UNL     1       3.215   1.832  18.861  0.00  0.00    +0.000 C 
ENDBRANCH  11  12
ENDBRANCH  10  11
ENDBRANCH   8  10
ENDBRANCH   3   6
BRANCH   1  18
ATOM     18  C   UNL     1       8.485  10.458  18.023  0.00  0.00    +0.000 C 
BRANCH  18  22
ATOM     19  N   UNL     1      10.043  13.742  18.327  0.00  0.00    +0.000 N 
ATOM     20  C   UNL     1      10.431  12.767  17.299  0.00  0.00    +0.000 C 
ATOM     21  C   UNL     1      10.757  11.409  17.962  0.00  0.00    +0.000 C 
ATOM     22  N   UNL     1       9.668  10.854  18.812  0.00  0.00    +0.000 NA
ATOM     23  C   UNL     1       9.301  11.890  19.809  0.00  0.00    +0.000 C 
ATOM     24  C   UNL     1       8.977  13.296  19.236  0.00  0.00    +0.000 C 
BRANCH  19  30
ATOM     25  C   UNL     1      11.108  15.554  19.649  0.00  0.00    +0.000 A 
ATOM     26  C   UNL     1      11.630  16.861  19.677  0.00  0.00    +0.000 A 
ATOM     27  C   UNL     1      11.705  17.631  18.522  0.00  0.00    +0.000 A 
ATOM     28  C   UNL     1      11.253  17.104  17.323  0.00  0.00    +0.000 A 
ATOM     29  C   UNL     1      10.721  15.812  17.289  0.00  0.00    +0.000 A 
ATOM     30  C   UNL     1      10.617  15.000  18.439  0.00  0.00    +0.000 A 
BRANCH  25  32
ATOM     31  C   UNL     1      10.562  15.596  21.958  0.00  0.00    +0.000 C 
ATOM     32  O   UNL     1      10.957  14.837  20.817  0.00  0.00    +0.000 OA
ENDBRANCH  25  32
ENDBRANCH  19  30
ENDBRANCH  18  22
ENDBRANCH   1  18
TORSDOF 8
ENDMDL
MODEL 3
REMARK VINA RESULT:      -6.9      1.442      1.861
REMARK  Name = 
REMARK  9 active torsions:
REMARK  status: ('A' for Active; 'I' for Inactive)
REMARK    1  A    between atoms: C_1  and  O_2
REMARK    2  A    between atoms: O_2  and  C_3
REMARK    3  A    between atoms: C_8  and  N_9
REMARK    4  A    between atoms: N_12  and  C_13
REMARK    5  A    between atoms: C_13  and  C_14
REMARK    6  A    between atoms: C_16  and  C_17
REMARK    7  A    between atoms: N_19  and  C_20
REMARK    8  A    between atoms: C_20  and  C_21
REMARK    9  A    between atoms: C_21  and  N_22
REMARK                            x       y       z     vdW  Elec       q    Type
REMARK                         _______ _______ _______ _____ _____    ______ ____
ROOT
ATOM      1  C   UNL     1       8.353   8.798  18.339  0.00  0.00    +0.000 A 
ATOM      2  N   UNL     1       7.466   8.575  17.381  0.00  0.00    +0.000 NA
ATOM      3  C   UNL     1       7.203   7.218  17.497  0.00  0.00    +0.000 A 
ATOM      4  C   UNL     1       7.993   6.684  18.485  0.00  0.00    +0.000 A 
ATOM      5  O   UNL     1       8.733   7.682  19.035  0.00  0.00    +0.000 OA
ENDROOT
BRANCH   3   6
ATOM      6  C   UNL     1       6.198   6.487  16.744  0.00  0.00    +0.000 C 
ATOM      7  O   UNL     1       5.513   7.010  15.878  0.00  0.00    +0.000 OA
ATOM      8  N   UNL     1       6.102   5.150  17.074  0.00  0.00    +0.000 N 
ATOM      9  H   UNL     1       6.627   4.819  17.876  0.00  0.00    +0.000 HD
BRANCH   8  10
ATOM     10  C   UNL     1       5.215   4.261  16.345  0.00  0.00    +0.000 C 
BRANCH  10  11
ATOM     11  C   UNL     1       4.365   3.379  17.292  0.00  0.00    +0.000 C 
BRANCH  11  12
ATOM     12  N   UNL     1       2.909   3.617  17.234  0.00  0.00    +0.000 NA
ATOM     13  C   UNL     1       2.557   4.903  17.890  0.00  0.00    +0.000 C 
ATOM     14  C   UNL     1       2.577   4.884  19.435  0.00  0.00    +0.000 C 
ATOM     15  O   UNL     1       1.836   3.786  19.982  0.00  0.00    +0.000 OA
ATOM     16  C   UNL     1       2.288   2.544  19.430  0.00  0.00    +0.000 C 
ATOM     17  C   UNL     1       2.121   2.555  17.903  0.00  0.00    +0.000 C 
ENDBRANCH  11  12
ENDBRANCH  10  11
ENDBRANCH   8  10
ENDBRANCH   3   6
BRANCH   1  18
ATOM     18  C   UNL     1       8.931  10.102  18.809  0.00  0.00    +0.000 C 
BRANCH  18  22
ATOM     19  N   UNL     1      10.322  13.467  19.036  0.00  0.00    +0.000 N 
ATOM     20  C   UNL     1       8.884  13.206  18.901  0.00  0.00    +0.000 C 
ATOM     21  C   UNL     1       8.630  12.277  17.691  0.00  0.00    +0.000 C 
ATOM     22  N   UNL     1       9.384  10.994  17.724  0.00  0.00    +0.000 NA
ATOM     23  C   UNL     1      10.822  11.319  17.888  0.00  0.00    +0.000 C 
ATOM     24  C   UNL     1      11.172  12.266  19.068  0.00  0.00    +0.000 C 
BRANCH  19  30
ATOM     25  C   UNL     1      11.073  15.424  20.366  0.00  0.00    +0.000 A 
ATOM     26  C   UNL     1      11.579  16.738  20.374  0.00  0.00    +0.000 A 
ATOM     27  C   UNL     1      11.907  17.389  19.191  0.00  0.00    +0.000 A 
ATOM     28  C   UNL     1      11.728  16.737  17.983  0.00  0.00    +0.000 A 
ATOM     29  C   UNL     1      11.215  15.436  17.965  0.00  0.00    +0.000 A 
ATOM     30  C   UNL     1      10.859  14.742  19.141  0.00  0.00    +0.000 A 
BRANCH  25  32
ATOM     31  C   UNL     1       9.527  15.406  22.167  0.00  0.00    +0.000 C 
ATOM     32  O   UNL     1      10.669  14.824  21.540  0.00  0.00    +0.000 OA
ENDBRANCH  25  32
ENDBRANCH  19  30
ENDBRANCH  18  22
ENDBRANCH   1  18
TORSDOF 8
ENDMDL
MODEL 4
REMARK VINA RESULT:      -6.9      1.846     11.473
REMARK  Name = 
REMARK  9 active torsions:
REMARK  status: ('A' for Active; 'I' for Inactive)
REMARK    1  A    between atoms: C_1  and  O_2
REMARK    2  A    between atoms: O_2  and  C_3
REMARK    3  A    between atoms: C_8  and  N_9
REMARK    4  A    between atoms: N_12  and  C_13
REMARK    5  A    between atoms: C_13  and  C_14
REMARK    6  A    between atoms: C_16  and  C_17
REMARK    7  A    between atoms: N_19  and  C_20
REMARK    8  A    between atoms: C_20  and  C_21
REMARK    9  A    between atoms: C_21  and  N_22
REMARK                            x       y       z     vdW  Elec       q    Type
REMARK                         _______ _______ _______ _____ _____    ______ ____
ROOT
ATOM      1  C   UNL     1       7.974   7.904  17.861  0.00  0.00    +0.000 A 
ATOM      2  N   UNL     1       8.770   8.252  18.860  0.00  0.00    +0.000 NA
ATOM      3  C   UNL     1       8.830   9.634  18.758  0.00  0.00    +0.000 A 
ATOM      4  C   UNL     1       8.109  10.040  17.661  0.00  0.00    +0.000 A 
ATOM      5  O   UNL     1       7.554   8.946  17.078  0.00  0.00    +0.000 OA
ENDROOT
BRANCH   3   6
ATOM      6  C   UNL     1       9.488  10.522  19.700  0.00  0.00    +0.000 C 
ATOM      7  O   UNL     1       9.105  10.662  20.852  0.00  0.00    +0.000 OA
ATOM      8  N   UNL     1      10.594  11.174  19.191  0.00  0.00    +0.000 N 
ATOM      9  H   UNL     1      10.781  11.088  18.198  0.00  0.00    +0.000 HD
BRANCH   8  10
ATOM     10  C   UNL     1      11.418  12.020  20.035  0.00  0.00    +0.000 C 
BRANCH  10  11
ATOM     11  C   UNL     1      11.769  13.363  19.349  0.00  0.00    +0.000 C 
BRANCH  11  12
ATOM     12  N   UNL     1      10.933  13.710  18.183  0.00  0.00    +0.000 NA
ATOM     13  C   UNL     1      11.763  14.274  17.087  0.00  0.00    +0.000 C 
ATOM     14  C   UNL     1      12.226  15.735  17.295  0.00  0.00    +0.000 C 
ATOM     15  O   UNL     1      11.147  16.608  17.652  0.00  0.00    +0.000 OA
ATOM     16  C   UNL     1      10.446  16.107  18.796  0.00  0.00    +0.000 C 
ATOM     17  C   UNL     1       9.885  14.709  18.496  0.00  0.00    +0.000 C 
ENDBRANCH  11  12
ENDBRANCH  10  11
ENDBRANCH   8  10
ENDBRANCH   3   6
BRANCH   1  18
ATOM     18  C   UNL     1       7.415   6.552  17.523  0.00  0.00    +0.000 C 
BRANCH  18  22
ATOM     19  N   UNL     1       4.357   4.698  18.245  0.00  0.00    +0.000 N 
ATOM     20  C   UNL     1       5.402   4.193  17.346  0.00  0.00    +0.000 C 
ATOM     21  C   UNL     1       5.730   5.258  16.273  0.00  0.00    +0.000 C 
ATOM     22  N   UNL     1       6.118   6.588  16.817  0.00  0.00    +0.000 NA
ATOM     23  C   UNL     1       5.042   7.033  17.737  0.00  0.00    +0.000 C 
ATOM     24  C   UNL     1       4.629   6.017  18.836  0.00  0.00    +0.000 C 
BRANCH  19  30
ATOM     25  C   UNL     1       3.073   3.071  19.612  0.00  0.00    +0.000 A 
ATOM     26  C   UNL     1       1.872   2.361  19.807  0.00  0.00    +0.000 A 
ATOM     27  C   UNL     1       0.775   2.565  18.978  0.00  0.00    +0.000 A 
ATOM     28  C   UNL     1       0.866   3.476  17.940  0.00  0.00    +0.000 A 
ATOM     29  C   UNL     1       2.059   4.175  17.731  0.00  0.00    +0.000 A 
ATOM     30  C   UNL     1       3.200   3.992  18.541  0.00  0.00    +0.000 A 
BRANCH  25  32
ATOM     31  C   UNL     1       4.735   1.489  20.222  0.00  0.00    +0.000 C 
ATOM     32  O   UNL     1       4.181   2.794  20.385  0.00  0.00    +0.000 OA
ENDBRANCH  25  32
ENDBRANCH  19  30
ENDBRANCH  18  22
ENDBRANCH   1  18
TORSDOF 8
ENDMDL
MODEL 5
REMARK VINA RESULT:      -6.9      1.263      1.641
REMARK  Name = 
REMARK  9 active torsions:
REMARK  status: ('A' for Active; 'I' for Inactive)
REMARK    1  A    between atoms: C_1  and  O_2
REMARK    2  A    between atoms: O_2  and  C_3
REMARK    3  A    between atoms: C_8  and  N_9
REMARK    4  A    between atoms: N_12  and  C_13
REMARK    5  A    between atoms: C_13  and  C_14
REMARK    6  A    between atoms: C_16  and  C_17
REMARK    7  A    between atoms: N_19  and  C_20
REMARK    8  A    between atoms: C_20  and  C_21
REMARK    9  A    between atoms: C_21  and  N_22
REMARK                            x       y       z     vdW  Elec       q    Type
REMARK                         _______ _______ _______ _____ _____    ______ ____
ROOT
ATOM      1  C   UNL     1       8.272   8.830  17.964  0.00  0.00    +0.000 A 
ATOM      2  N   UNL     1       7.449   8.303  17.071  0.00  0.00    +0.000 NA
ATOM      3  C   UNL     1       7.269   7.006  17.528  0.00  0.00    +0.000 A 
ATOM      4  C   UNL     1       8.043   6.805  18.644  0.00  0.00    +0.000 A 
ATOM      5  O   UNL     1       8.689   7.963  18.937  0.00  0.00    +0.000 OA
ENDROOT
BRANCH   3   6
ATOM      6  C   UNL     1       6.351   6.032  16.962  0.00  0.00    +0.000 C 
ATOM      7  O   UNL     1       6.109   5.973  15.766  0.00  0.00    +0.000 OA
ATOM      8  N   UNL     1       5.799   5.167  17.885  0.00  0.00    +0.000 N 
ATOM      9  H   UNL     1       5.965   5.351  18.868  0.00  0.00    +0.000 HD
BRANCH   8  10
ATOM     10  C   UNL     1       4.939   4.074  17.466  0.00  0.00    +0.000 C 
BRANCH  10  11
ATOM     11  C   UNL     1       3.470   4.286  17.907  0.00  0.00    +0.000 C 
BRANCH  11  12
ATOM     12  N   UNL     1       2.684   3.050  18.090  0.00  0.00    +0.000 NA
ATOM     13  C   UNL     1       1.290   3.365  18.496  0.00  0.00    +0.000 C 
ATOM     14  C   UNL     1       1.112   3.796  19.970  0.00  0.00    +0.000 C 
ATOM     15  O   UNL     1       1.744   2.892  20.886  0.00  0.00    +0.000 OA
ATOM     16  C   UNL     1       3.124   2.709  20.549  0.00  0.00    +0.000 C 
ATOM     17  C   UNL     1       3.247   2.150  19.124  0.00  0.00    +0.000 C 
ENDBRANCH  11  12
ENDBRANCH  10  11
ENDBRANCH   8  10
ENDBRANCH   3   6
BRANCH   1  18
ATOM     18  C   UNL     1       8.741  10.251  18.096  0.00  0.00    +0.000 C 
BRANCH  18  22
ATOM     19  N   UNL     1       9.907  13.432  19.449  0.00  0.00    +0.000 N 
ATOM     20  C   UNL     1      10.649  12.679  18.431  0.00  0.00    +0.000 C 
ATOM     21  C   UNL     1      10.857  11.221  18.905  0.00  0.00    +0.000 C 
ATOM     22  N   UNL     1       9.605  10.501  19.266  0.00  0.00    +0.000 NA
ATOM     23  C   UNL     1       8.887  11.320  20.274  0.00  0.00    +0.000 C 
ATOM     24  C   UNL     1       8.651  12.807  19.893  0.00  0.00    +0.000 C 
BRANCH  19  30
ATOM     25  C   UNL     1      10.593  15.801  19.169  0.00  0.00    +0.000 A 
ATOM     26  C   UNL     1      11.071  16.984  19.766  0.00  0.00    +0.000 A 
ATOM     27  C   UNL     1      11.271  17.066  21.139  0.00  0.00    +0.000 A 
ATOM     28  C   UNL     1      11.001  15.964  21.933  0.00  0.00    +0.000 A 
ATOM     29  C   UNL     1      10.540  14.781  21.346  0.00  0.00    +0.000 A 
ATOM     30  C   UNL     1      10.332  14.651  19.957  0.00  0.00    +0.000 A 
BRANCH  25  32
ATOM     31  C   UNL     1      11.638  16.108  17.060  0.00  0.00    +0.000 C 
ATOM     32  O   UNL     1      10.485  15.706  17.798  0.00  0.00    +0.000 OA
ENDBRANCH  25  32
ENDBRANCH  19  30
ENDBRANCH  18  22
ENDBRANCH   1  18
TORSDOF 8
ENDMDL
MODEL 6
REMARK VINA RESULT:      -6.7      1.493      1.728
REMARK  Name = 
REMARK  9 active torsions:
REMARK  status: ('A' for Active; 'I' for Inactive)
REMARK    1  A    between atoms: C_1  and  O_2
REMARK    2  A    between atoms: O_2  and  C_3
REMARK    3  A    between atoms: C_8  and  N_9
REMARK    4  A    between atoms: N_12  and  C_13
REMARK    5  A    between atoms: C_13  and  C_14
REMARK    6  A    between atoms: C_16  and  C_17
REMARK    7  A    between atoms: N_19  and  C_20
REMARK    8  A    between atoms: C_20  and  C_21
REMARK    9  A    between atoms: C_21  and  N_22
REMARK                            x       y       z     vdW  Elec       q    Type
REMARK                         _______ _______ _______ _____ _____    ______ ____
ROOT
ATOM      1  C   UNL     1       8.203   8.985  17.928  0.00  0.00    +0.000 A 
ATOM      2  N   UNL     1       7.336   8.556  17.024  0.00  0.00    +0.000 NA
ATOM      3  C   UNL     1       7.161   7.221  17.355  0.00  0.00    +0.000 A 
ATOM      4  C   UNL     1       7.979   6.903  18.412  0.00  0.00    +0.000 A 
ATOM      5  O   UNL     1       8.651   8.021  18.791  0.00  0.00    +0.000 OA
ENDROOT
BRANCH   3   6
ATOM      6  C   UNL     1       6.209   6.315  16.735  0.00  0.00    +0.000 C 
ATOM      7  O   UNL     1       5.436   6.672  15.859  0.00  0.00    +0.000 OA
ATOM      8  N   UNL     1       6.271   5.017  17.202  0.00  0.00    +0.000 N 
ATOM      9  H   UNL     1       6.862   4.828  18.004  0.00  0.00    +0.000 HD
BRANCH   8  10
ATOM     10  C   UNL     1       5.453   3.971  16.614  0.00  0.00    +0.000 C 
BRANCH  10  11
ATOM     11  C   UNL     1       4.155   3.723  17.420  0.00  0.00    +0.000 C 
BRANCH  11  12
ATOM     12  N   UNL     1       4.315   3.733  18.888  0.00  0.00    +0.000 NA
ATOM     13  C   UNL     1       3.818   2.465  19.482  0.00  0.00    +0.000 C 
ATOM     14  C   UNL     1       2.280   2.333  19.566  0.00  0.00    +0.000 C 
ATOM     15  O   UNL     1       1.662   3.481  20.162  0.00  0.00    +0.000 OA
ATOM     16  C   UNL     1       2.055   4.679  19.484  0.00  0.00    +0.000 C 
ATOM     17  C   UNL     1       3.581   4.840  19.544  0.00  0.00    +0.000 C 
ENDBRANCH  11  12
ENDBRANCH  10  11
ENDBRANCH   8  10
ENDBRANCH   3   6
BRANCH   1  18
ATOM     18  C   UNL     1       8.693  10.382  18.182  0.00  0.00    +0.000 C 
BRANCH  18  22
ATOM     19  N   UNL     1      10.101  13.338  19.789  0.00  0.00    +0.000 N 
ATOM     20  C   UNL     1      10.595  12.815  18.510  0.00  0.00    +0.000 C 
ATOM     21  C   UNL     1      10.926  11.311  18.651  0.00  0.00    +0.000 C 
ATOM     22  N   UNL     1       9.803  10.472  19.151  0.00  0.00    +0.000 NA
ATOM     23  C   UNL     1       9.329  11.063  20.426  0.00  0.00    +0.000 C 
ATOM     24  C   UNL     1       8.992  12.578  20.386  0.00  0.00    +0.000 C 
BRANCH  19  30
ATOM     25  C   UNL     1      11.626  15.297  19.839  0.00  0.00    +0.000 A 
ATOM     26  C   UNL     1      12.126  16.403  20.553  0.00  0.00    +0.000 A 
ATOM     27  C   UNL     1      11.627  16.732  21.808  0.00  0.00    +0.000 A 
ATOM     28  C   UNL     1      10.626  15.956  22.368  0.00  0.00    +0.000 A 
ATOM     29  C   UNL     1      10.134  14.849  21.671  0.00  0.00    +0.000 A 
ATOM     30  C   UNL     1      10.617  14.473  20.399  0.00  0.00    +0.000 A 
BRANCH  25  32
ATOM     31  C   UNL     1      12.333  15.978  17.677  0.00  0.00    +0.000 C 
ATOM     32  O   UNL     1      12.192  14.930  18.636  0.00  0.00    +0.000 OA
ENDBRANCH  25  32
ENDBRANCH  19  30
ENDBRANCH  18  22
ENDBRANCH   1  18
TORSDOF 8
ENDMDL
MODEL 7
REMARK VINA RESULT:      -6.7      1.570     11.250
REMARK  Name = 
REMARK  9 active torsions:
REMARK  status: ('A' for Active; 'I' for Inactive)
REMARK    1  A    between atoms: C_1  and  O_2
REMARK    2  A    between atoms: O_2  and  C_3
REMARK    3  A    between atoms: C_8  and  N_9
REMARK    4  A    between atoms: N_12  and  C_13
REMARK    5  A    between atoms: C_13  and  C_14
REMARK    6  A    between atoms: C_16  and  C_17
REMARK    7  A    between atoms: N_19  and  C_20
REMARK    8  A    between atoms: C_20  and  C_21
REMARK    9  A    between atoms: C_21  and  N_22
REMARK                            x       y       z     vdW  Elec       q    Type
REMARK                         _______ _______ _______ _____ _____    ______ ____
ROOT
ATOM      1  C   UNL     1       7.593   7.082  17.376  0.00  0.00    +0.000 A 
ATOM      2  N   UNL     1       7.742   8.392  17.251  0.00  0.00    +0.000 NA
ATOM      3  C   UNL     1       8.393   8.755  18.421  0.00  0.00    +0.000 A 
ATOM      4  C   UNL     1       8.549   7.646  19.217  0.00  0.00    +0.000 A 
ATOM      5  O   UNL     1       8.045   6.568  18.562  0.00  0.00    +0.000 OA
ENDROOT
BRANCH   3   6
ATOM      6  C   UNL     1       8.898  10.082  18.729  0.00  0.00    +0.000 C 
ATOM      7  O   UNL     1       9.341  10.379  19.828  0.00  0.00    +0.000 OA
ATOM      8  N   UNL     1       8.856  10.966  17.670  0.00  0.00    +0.000 N 
ATOM      9  H   UNL     1       8.375  10.676  16.827  0.00  0.00    +0.000 HD
BRANCH   8  10
ATOM     10  C   UNL     1       9.415  12.302  17.789  0.00  0.00    +0.000 C 
BRANCH  10  11
ATOM     11  C   UNL     1       8.323  13.370  18.038  0.00  0.00    +0.000 C 
BRANCH  11  12
ATOM     12  N   UNL     1       8.481  14.154  19.280  0.00  0.00    +0.000 NA
ATOM     13  C   UNL     1       7.515  15.282  19.320  0.00  0.00    +0.000 C 
ATOM     14  C   UNL     1       7.868  16.486  18.416  0.00  0.00    +0.000 C 
ATOM     15  O   UNL     1       9.218  16.932  18.597  0.00  0.00    +0.000 OA
ATOM     16  C   UNL     1      10.139  15.848  18.421  0.00  0.00    +0.000 C 
ATOM     17  C   UNL     1       9.836  14.733  19.432  0.00  0.00    +0.000 C 
ENDBRANCH  11  12
ENDBRANCH  10  11
ENDBRANCH   8  10
ENDBRANCH   3   6
BRANCH   1  18
ATOM     18  C   UNL     1       7.075   6.088  16.376  0.00  0.00    +0.000 C 
BRANCH  18  22
ATOM     19  N   UNL     1       4.115   4.346  17.603  0.00  0.00    +0.000 N 
ATOM     20  C   UNL     1       4.883   3.889  16.438  0.00  0.00    +0.000 C 
ATOM     21  C   UNL     1       5.049   5.051  15.431  0.00  0.00    +0.000 C 
ATOM     22  N   UNL     1       5.661   6.283  16.000  0.00  0.00    +0.000 NA
ATOM     23  C   UNL     1       4.861   6.680  17.185  0.00  0.00    +0.000 C 
ATOM     24  C   UNL     1       4.623   5.569  18.243  0.00  0.00    +0.000 C 
BRANCH  19  30
ATOM     25  C   UNL     1       3.046   2.485  18.852  0.00  0.00    +0.000 A 
ATOM     26  C   UNL     1       1.857   1.850  19.261  0.00  0.00    +0.000 A 
ATOM     27  C   UNL     1       0.613   2.389  18.954  0.00  0.00    +0.000 A 
ATOM     28  C   UNL     1       0.540   3.566  18.229  0.00  0.00    +0.000 A 
ATOM     29  C   UNL     1       1.715   4.196  17.808  0.00  0.00    +0.000 A 
ATOM     30  C   UNL     1       2.999   3.680  18.088  0.00  0.00    +0.000 A 
BRANCH  25  32
ATOM     31  C   UNL     1       4.802   2.081  20.396  0.00  0.00    +0.000 C 
ATOM     32  O   UNL     1       4.269   1.894  19.086  0.00  0.00    +0.000 OA
ENDBRANCH  25  32
ENDBRANCH  19  30
ENDBRANCH  18  22
ENDBRANCH   1  18
TORSDOF 8
ENDMDL
MODEL 8
REMARK VINA RESULT:      -6.6      6.731     10.215
REMARK  Name = 
REMARK  9 active torsions:
REMARK  status: ('A' for Active; 'I' for Inactive)
REMARK    1  A    between atoms: C_1  and  O_2
REMARK    2  A    between atoms: O_2  and  C_3
REMARK    3  A    between atoms: C_8  and  N_9
REMARK    4  A    between atoms: N_12  and  C_13
REMARK    5  A    between atoms: C_13  and  C_14
REMARK    6  A    between atoms: C_16  and  C_17
REMARK    7  A    between atoms: N_19  and  C_20
REMARK    8  A    between atoms: C_20  and  C_21
REMARK    9  A    between atoms: C_21  and  N_22
REMARK                            x       y       z     vdW  Elec       q    Type
REMARK                         _______ _______ _______ _____ _____    ______ ____
ROOT
ATOM      1  C   UNL     1       1.650   9.089  19.464  0.00  0.00    +0.000 A 
ATOM      2  N   UNL     1       2.236   8.131  18.763  0.00  0.00    +0.000 NA
ATOM      3  C   UNL     1       2.257   7.057  19.640  0.00  0.00    +0.000 A 
ATOM      4  C   UNL     1       1.732   7.447  20.848  0.00  0.00    +0.000 A 
ATOM      5  O   UNL     1       1.337   8.743  20.751  0.00  0.00    +0.000 OA
ENDROOT
BRANCH   3   6
ATOM      6  C   UNL     1       2.695   5.711  19.316  0.00  0.00    +0.000 C 
ATOM      7  O   UNL     1       3.111   4.932  20.161  0.00  0.00    +0.000 OA
ATOM      8  N   UNL     1       2.577   5.380  17.980  0.00  0.00    +0.000 N 
ATOM      9  H   UNL     1       2.327   6.115  17.329  0.00  0.00    +0.000 HD
BRANCH   8  10
ATOM     10  C   UNL     1       2.880   4.039  17.512  0.00  0.00    +0.000 C 
BRANCH  10  11
ATOM     11  C   UNL     1       4.349   3.905  17.039  0.00  0.00    +0.000 C 
BRANCH  11  12
ATOM     12  N   UNL     1       4.993   5.168  16.624  0.00  0.00    +0.000 NA
ATOM     13  C   UNL     1       5.482   5.075  15.224  0.00  0.00    +0.000 C 
ATOM     14  C   UNL     1       6.777   4.253  15.029  0.00  0.00    +0.000 C 
ATOM     15  O   UNL     1       7.817   4.644  15.935  0.00  0.00    +0.000 OA
ATOM     16  C   UNL     1       7.356   4.595  17.290  0.00  0.00    +0.000 C 
ATOM     17  C   UNL     1       6.154   5.533  17.469  0.00  0.00    +0.000 C 
ENDBRANCH  11  12
ENDBRANCH  10  11
ENDBRANCH   8  10
ENDBRANCH   3   6
BRANCH   1  18
ATOM     18  C   UNL     1       1.217  10.458  19.021  0.00  0.00    +0.000 C 
BRANCH  18  22
ATOM     19  N   UNL     1      -2.261  11.380  18.427  0.00  0.00    +0.000 N 
ATOM     20  C   UNL     1      -1.138  12.280  18.139  0.00  0.00    +0.000 C 
ATOM     21  C   UNL     1      -0.238  12.412  19.390  0.00  0.00    +0.000 C 
ATOM     22  N   UNL     1       0.264  11.120  19.933  0.00  0.00    +0.000 NA
ATOM     23  C   UNL     1      -0.910  10.245  20.177  0.00  0.00    +0.000 C 
ATOM     24  C   UNL     1      -1.884  10.071  18.981  0.00  0.00    +0.000 C 
BRANCH  19  30
ATOM     25  C   UNL     1      -4.207  11.671  16.912  0.00  0.00    +0.000 A 
ATOM     26  C   UNL     1      -5.547  12.076  16.754  0.00  0.00    +0.000 A 
ATOM     27  C   UNL     1      -6.302  12.501  17.842  0.00  0.00    +0.000 A 
ATOM     28  C   UNL     1      -5.725  12.530  19.100  0.00  0.00    +0.000 A 
ATOM     29  C   UNL     1      -4.392  12.142  19.264  0.00  0.00    +0.000 A 
ATOM     30  C   UNL     1      -3.586  11.714  18.187  0.00  0.00    +0.000 A 
BRANCH  25  32
ATOM     31  C   UNL     1      -3.602  10.003  15.335  0.00  0.00    +0.000 C 
ATOM     32  O   UNL     1      -3.444  11.338  15.812  0.00  0.00    +0.000 OA
ENDBRANCH  25  32
ENDBRANCH  19  30
ENDBRANCH  18  22
ENDBRANCH   1  18
TORSDOF 8
ENDMDL
MODEL 9
REMARK VINA RESULT:      -6.6      7.492     10.874
REMARK  Name = 
REMARK  9 active torsions:
REMARK  status: ('A' for Active; 'I' for Inactive)
REMARK    1  A    between atoms: C_1  and  O_2
REMARK    2  A    between atoms: O_2  and  C_3
REMARK    3  A    between atoms: C_8  and  N_9
REMARK    4  A    between atoms: N_12  and  C_13
REMARK    5  A    between atoms: C_13  and  C_14
REMARK    6  A    between atoms: C_16  and  C_17
REMARK    7  A    between atoms: N_19  and  C_20
REMARK    8  A    between atoms: C_20  and  C_21
REMARK    9  A    between atoms: C_21  and  N_22
REMARK                            x       y       z     vdW  Elec       q    Type
REMARK                         _______ _______ _______ _____ _____    ______ ____
ROOT
ATOM      1  C   UNL     1       0.978  10.197  19.134  0.00  0.00    +0.000 A 
ATOM      2  N   UNL     1       1.060   8.983  19.658  0.00  0.00    +0.000 NA
ATOM      3  C   UNL     1       1.946   8.329  18.815  0.00  0.00    +0.000 A 
ATOM      4  C   UNL     1       2.306   9.171  17.792  0.00  0.00    +0.000 A 
ATOM      5  O   UNL     1       1.697  10.370  17.982  0.00  0.00    +0.000 OA
ENDROOT
BRANCH   3   6
ATOM      6  C   UNL     1       2.471   6.990  19.019  0.00  0.00    +0.000 C 
ATOM      7  O   UNL     1       2.474   6.442  20.111  0.00  0.00    +0.000 OA
ATOM      8  N   UNL     1       2.942   6.383  17.872  0.00  0.00    +0.000 N 
ATOM      9  H   UNL     1       3.005   6.942  17.029  0.00  0.00    +0.000 HD
BRANCH   8  10
ATOM     10  C   UNL     1       3.408   5.007  17.890  0.00  0.00    +0.000 C 
BRANCH  10  11
ATOM     11  C   UNL     1       4.225   4.652  16.624  0.00  0.00    +0.000 C 
BRANCH  11  12
ATOM     12  N   UNL     1       5.553   4.059  16.878  0.00  0.00    +0.000 NA
ATOM     13  C   UNL     1       6.396   4.979  17.685  0.00  0.00    +0.000 C 
ATOM     14  C   UNL     1       6.987   6.181  16.912  0.00  0.00    +0.000 C 
ATOM     15  O   UNL     1       7.638   5.787  15.697  0.00  0.00    +0.000 OA
ATOM     16  C   UNL     1       6.755   5.012  14.877  0.00  0.00    +0.000 C 
ATOM     17  C   UNL     1       6.301   3.756  15.636  0.00  0.00    +0.000 C 
ENDBRANCH  11  12
ENDBRANCH  10  11
ENDBRANCH   8  10
ENDBRANCH   3   6
BRANCH   1  18
ATOM     18  C   UNL     1       0.276  11.413  19.668  0.00  0.00    +0.000 C 
BRANCH  18  22
ATOM     19  N   UNL     1      -3.309  11.971  19.285  0.00  0.00    +0.000 N 
ATOM     20  C   UNL     1      -2.604  10.850  18.651  0.00  0.00    +0.000 C 
ATOM     21  C   UNL     1      -1.390  11.378  17.852  0.00  0.00    +0.000 C 
ATOM     22  N   UNL     1      -0.437  12.203  18.644  0.00  0.00    +0.000 NA
ATOM     23  C   UNL     1      -1.208  13.299  19.281  0.00  0.00    +0.000 C 
ATOM     24  C   UNL     1      -2.460  12.864  20.089  0.00  0.00    +0.000 C 
BRANCH  19  30
ATOM     25  C   UNL     1      -5.563  12.353  20.253  0.00  0.00    +0.000 A 
ATOM     26  C   UNL     1      -6.945  12.511  20.034  0.00  0.00    +0.000 A 
ATOM     27  C   UNL     1      -7.470  12.533  18.747  0.00  0.00    +0.000 A 
ATOM     28  C   UNL     1      -6.621  12.390  17.662  0.00  0.00    +0.000 A 
ATOM     29  C   UNL     1      -5.249  12.219  17.872  0.00  0.00    +0.000 A 
ATOM     30  C   UNL     1      -4.675  12.181  19.161  0.00  0.00    +0.000 A 
BRANCH  25  32
ATOM     31  C   UNL     1      -5.799  12.948  22.539  0.00  0.00    +0.000 C 
ATOM     32  O   UNL     1      -5.069  12.244  21.536  0.00  0.00    +0.000 OA
ENDBRANCH  25  32
ENDBRANCH  19  30
ENDBRANCH  18  22
ENDBRANCH   1  18
TORSDOF 8
ENDMDL
