MODEL 1
REMARK VINA RESULT:      -8.0      0.000      0.000
REMARK  Name = 
REMARK  9 active torsions:
REMARK  status: ('A' for Active; 'I' for Inactive)
REMARK    1  A    between atoms: C_1  and  C_2
REMARK    2  A    between atoms: C_2  and  O_3
REMARK    3  A    between atoms: O_3  and  C_4
REMARK    4  A    between atoms: C_7  and  C_8
REMARK    5  A    between atoms: C_10  and  C_11
REMARK    6  A    between atoms: N_18  and  C_19
REMARK    7  A    between atoms: C_19  and  C_20
REMARK    8  A    between atoms: N_25  and  C_26
REMARK    9  A    between atoms: C_30  and  C_31
REMARK                            x       y       z     vdW  Elec       q    Type
REMARK                         _______ _______ _______ _____ _____    ______ ____
ROOT
ATOM      1  C   UNL     1       3.298   5.796  19.168  0.00  0.00    +0.000 A 
ATOM      2  N   UNL     1       3.025   4.672  19.876  0.00  0.00    +0.000 NA
ATOM      3  C   UNL     1       2.035   4.732  20.800  0.00  0.00    +0.000 A 
ATOM      4  N   UNL     1       1.253   5.794  21.122  0.00  0.00    +0.000 NA
ATOM      5  C   UNL     1       1.552   6.881  20.380  0.00  0.00    +0.000 A 
ATOM      6  C   UNL     1       2.530   6.949  19.392  0.00  0.00    +0.000 A 
ATOM      7  C   UNL     1       2.451   8.255  18.824  0.00  0.00    +0.000 A 
ATOM      8  C   UNL     1       1.481   8.947  19.492  0.00  0.00    +0.000 A 
ATOM      9  N   UNL     1       0.947   8.115  20.443  0.00  0.00    +0.000 N 
ENDROOT
BRANCH   1  13
ATOM     10  C   UNL     1       6.432   5.541  16.233  0.00  0.00    +0.000 A 
ATOM     11  C   UNL     1       5.331   4.685  16.187  0.00  0.00    +0.000 A 
ATOM     12  C   UNL     1       4.279   4.840  17.078  0.00  0.00    +0.000 A 
ATOM     13  C   UNL     1       4.335   5.764  18.130  0.00  0.00    +0.000 A 
ATOM     14  C   UNL     1       5.457   6.605  18.179  0.00  0.00    +0.000 A 
ATOM     15  C   UNL     1       6.515   6.508  17.242  0.00  0.00    +0.000 A 
BRANCH  15  16
ATOM     16  C   UNL     1       7.648   7.494  17.377  0.00  0.00    +0.000 C 
ATOM     17  F   UNL     1       8.492   7.596  16.315  0.00  0.00    +0.000 F 
ATOM     18  F   UNL     1       7.185   8.759  17.600  0.00  0.00    +0.000 F 
ATOM     19  F   UNL     1       8.445   7.213  18.451  0.00  0.00    +0.000 F 
ENDBRANCH  15  16
BRANCH  10  20
ATOM     20  O   UNL     1       7.425   5.462  15.296  0.00  0.00    +0.000 OA
BRANCH  20  22
ATOM     21  C   UNL     1       7.945   5.350  12.963  0.00  0.00    +0.000 C 
ATOM     22  C   UNL     1       7.020   4.864  14.055  0.00  0.00    +0.000 C 
ENDBRANCH  20  22
ENDBRANCH  10  20
ENDBRANCH   1  13
BRANCH   3  23
ATOM     23  C   UNL     1       1.776   3.509  21.532  0.00  0.00    +0.000 C 
ATOM     24  N   UNL     1       1.589   2.528  22.120  0.00  0.00    +0.000 NA
ENDBRANCH   3  23
BRANCH   9  25
ATOM     25  C   UNL     1      -0.158   8.503  21.298  0.00  0.00    +0.000 C 
BRANCH  25  26
ATOM     26  C   UNL     1       0.054   9.862  21.935  0.00  0.00    +0.000 C 
ATOM     27  O   UNL     1       0.585   9.945  23.049  0.00  0.00    +0.000 OA
ATOM     28  N   UNL     1      -0.262  11.001  21.197  0.00  0.00    +0.000 N 
ATOM     29  C   UNL     1       0.054  12.291  21.821  0.00  0.00    +0.000 C 
ATOM     30  C   UNL     1       0.116  13.449  20.808  0.00  0.00    +0.000 C 
ATOM     31  N   UNL     1      -1.044  13.544  19.903  0.00  0.00    +0.000 NA
ATOM     32  C   UNL     1      -2.240  14.010  20.603  0.00  0.00    +0.000 C 
ATOM     33  C   UNL     1      -1.263  12.239  19.256  0.00  0.00    +0.000 C 
ATOM     34  C   UNL     1      -1.358  11.038  20.219  0.00  0.00    +0.000 C 
ENDBRANCH  25  26
ENDBRANCH   9  25
TORSDOF 7
ENDMDL
MODEL 2
REMARK VINA RESULT:      -7.9      2.733      4.303
REMARK  Name = 
REMARK  9 active torsions:
REMARK  status: ('A' for Active; 'I' for Inactive)
REMARK    1  A    between atoms: C_1  and  C_2
REMARK    2  A    between atoms: C_2  and  O_3
REMARK    3  A    between atoms: O_3  and  C_4
REMARK    4  A    between atoms: C_7  and  C_8
REMARK    5  A    between atoms: C_10  and  C_11
REMARK    6  A    between atoms: N_18  and  C_19
REMARK    7  A    between atoms: C_19  and  C_20
REMARK    8  A    between atoms: N_25  and  C_26
REMARK    9  A    between atoms: C_30  and  C_31
REMARK                            x       y       z     vdW  Elec       q    Type
REMARK                         _______ _______ _______ _____ _____    ______ ____
ROOT
ATOM      1  C   UNL     1       1.831   7.899  20.185  0.00  0.00    +0.000 A 
ATOM      2  N   UNL     1       1.408   8.083  21.461  0.00  0.00    +0.000 NA
ATOM      3  C   UNL     1       0.863   9.282  21.779  0.00  0.00    +0.000 A 
ATOM      4  N   UNL     1       0.672  10.356  20.972  0.00  0.00    +0.000 NA
ATOM      5  C   UNL     1       1.092  10.119  19.712  0.00  0.00    +0.000 A 
ATOM      6  C   UNL     1       1.654   8.932  19.251  0.00  0.00    +0.000 A 
ATOM      7  C   UNL     1       1.880   9.099  17.853  0.00  0.00    +0.000 A 
ATOM      8  C   UNL     1       1.501  10.367  17.513  0.00  0.00    +0.000 A 
ATOM      9  N   UNL     1       1.036  10.986  18.646  0.00  0.00    +0.000 N 
ENDROOT
BRANCH   1  13
ATOM     10  C   UNL     1       3.632   4.131  19.159  0.00  0.00    +0.000 A 
ATOM     11  C   UNL     1       2.809   4.254  20.278  0.00  0.00    +0.000 A 
ATOM     12  C   UNL     1       2.154   5.447  20.544  0.00  0.00    +0.000 A 
ATOM     13  C   UNL     1       2.391   6.602  19.787  0.00  0.00    +0.000 A 
ATOM     14  C   UNL     1       3.238   6.472  18.676  0.00  0.00    +0.000 A 
ATOM     15  C   UNL     1       3.869   5.247  18.348  0.00  0.00    +0.000 A 
BRANCH  15  16
ATOM     16  C   UNL     1       4.726   5.224  17.107  0.00  0.00    +0.000 C 
ATOM     17  F   UNL     1       4.408   4.293  16.168  0.00  0.00    +0.000 F 
ATOM     18  F   UNL     1       4.697   6.425  16.457  0.00  0.00    +0.000 F 
ATOM     19  F   UNL     1       6.044   5.012  17.400  0.00  0.00    +0.000 F 
ENDBRANCH  15  16
BRANCH  10  20
ATOM     20  O   UNL     1       4.201   2.931  18.831  0.00  0.00    +0.000 OA
BRANCH  20  22
ATOM     21  C   UNL     1       2.309   2.132  17.603  0.00  0.00    +0.000 C 
ATOM     22  C   UNL     1       3.269   1.843  18.733  0.00  0.00    +0.000 C 
ENDBRANCH  20  22
ENDBRANCH  10  20
ENDBRANCH   1  13
BRANCH   3  23
ATOM     23  C   UNL     1       0.425   9.434  23.153  0.00  0.00    +0.000 C 
ATOM     24  N   UNL     1       0.089   9.570  24.253  0.00  0.00    +0.000 NA
ENDBRANCH   3  23
BRANCH   9  25
ATOM     25  C   UNL     1       0.488  12.329  18.641  0.00  0.00    +0.000 C 
BRANCH  25  26
ATOM     26  C   UNL     1      -1.026  12.337  18.731  0.00  0.00    +0.000 C 
ATOM     27  O   UNL     1      -1.700  11.866  17.808  0.00  0.00    +0.000 OA
ATOM     28  N   UNL     1      -1.622  12.781  19.910  0.00  0.00    +0.000 N 
ATOM     29  C   UNL     1      -3.083  12.675  19.982  0.00  0.00    +0.000 C 
ATOM     30  C   UNL     1      -3.620  12.738  21.423  0.00  0.00    +0.000 C 
ATOM     31  N   UNL     1      -3.109  13.864  22.227  0.00  0.00    +0.000 NA
ATOM     32  C   UNL     1      -3.674  15.140  21.792  0.00  0.00    +0.000 C 
ATOM     33  C   UNL     1      -1.636  13.871  22.171  0.00  0.00    +0.000 C 
ATOM     34  C   UNL     1      -1.035  13.833  20.752  0.00  0.00    +0.000 C 
ENDBRANCH  25  26
ENDBRANCH   9  25
TORSDOF 7
ENDMDL
MODEL 3
REMARK VINA RESULT:      -7.8      2.961      4.619
REMARK  Name = 
REMARK  9 active torsions:
REMARK  status: ('A' for Active; 'I' for Inactive)
REMARK    1  A    between atoms: C_1  and  C_2
REMARK    2  A    between atoms: C_2  and  O_3
REMARK    3  A    between atoms: O_3  and  C_4
REMARK    4  A    between atoms: C_7  and  C_8
REMARK    5  A    between atoms: C_10  and  C_11
REMARK    6  A    between atoms: N_18  and  C_19
REMARK    7  A    between atoms: C_19  and  C_20
REMARK    8  A    between atoms: N_25  and  C_26
REMARK    9  A    between atoms: C_30  and  C_31
REMARK                            x       y       z     vdW  Elec       q    Type
REMARK                         _______ _______ _______ _____ _____    ______ ____
ROOT
ATOM      1  C   UNL     1       1.816   7.958  20.185  0.00  0.00    +0.000 A 
ATOM      2  N   UNL     1       1.400   8.137  21.463  0.00  0.00    +0.000 NA
ATOM      3  C   UNL     1       0.852   9.333  21.788  0.00  0.00    +0.000 A 
ATOM      4  N   UNL     1       0.652  10.408  20.984  0.00  0.00    +0.000 NA
ATOM      5  C   UNL     1       1.066  10.175  19.721  0.00  0.00    +0.000 A 
ATOM      6  C   UNL     1       1.631   8.991  19.254  0.00  0.00    +0.000 A 
ATOM      7  C   UNL     1       1.848   9.163  17.855  0.00  0.00    +0.000 A 
ATOM      8  C   UNL     1       1.462  10.430  17.521  0.00  0.00    +0.000 A 
ATOM      9  N   UNL     1       1.001  11.045  18.657  0.00  0.00    +0.000 N 
ENDROOT
BRANCH   1  13
ATOM     10  C   UNL     1       3.628   4.200  19.138  0.00  0.00    +0.000 A 
ATOM     11  C   UNL     1       2.824   4.320  20.271  0.00  0.00    +0.000 A 
ATOM     12  C   UNL     1       2.165   5.510  20.545  0.00  0.00    +0.000 A 
ATOM     13  C   UNL     1       2.380   6.664  19.781  0.00  0.00    +0.000 A 
ATOM     14  C   UNL     1       3.207   6.536  18.655  0.00  0.00    +0.000 A 
ATOM     15  C   UNL     1       3.842   5.315  18.319  0.00  0.00    +0.000 A 
BRANCH  15  16
ATOM     16  C   UNL     1       4.676   5.295  17.063  0.00  0.00    +0.000 C 
ATOM     17  F   UNL     1       4.392   4.317  16.163  0.00  0.00    +0.000 F 
ATOM     18  F   UNL     1       4.571   6.469  16.374  0.00  0.00    +0.000 F 
ATOM     19  F   UNL     1       6.009   5.163  17.337  0.00  0.00    +0.000 F 
ENDBRANCH  15  16
BRANCH  10  20
ATOM     20  O   UNL     1       4.200   3.003  18.804  0.00  0.00    +0.000 OA
BRANCH  20  22
ATOM     21  C   UNL     1       2.336   2.045  17.650  0.00  0.00    +0.000 C 
ATOM     22  C   UNL     1       3.291   1.892  18.811  0.00  0.00    +0.000 C 
ENDBRANCH  20  22
ENDBRANCH  10  20
ENDBRANCH   1  13
BRANCH   3  23
ATOM     23  C   UNL     1       0.421   9.480  23.163  0.00  0.00    +0.000 C 
ATOM     24  N   UNL     1       0.070   9.578  24.263  0.00  0.00    +0.000 NA
ENDBRANCH   3  23
BRANCH   9  25
ATOM     25  C   UNL     1       0.448  12.385  18.659  0.00  0.00    +0.000 C 
BRANCH  25  26
ATOM     26  C   UNL     1       1.500  13.445  18.922  0.00  0.00    +0.000 C 
ATOM     27  O   UNL     1       2.654  13.108  19.210  0.00  0.00    +0.000 OA
ATOM     28  N   UNL     1       1.163  14.783  18.725  0.00  0.00    +0.000 N 
ATOM     29  C   UNL     1       2.244  15.760  18.897  0.00  0.00    +0.000 C 
ATOM     30  C   UNL     1       1.940  17.116  18.235  0.00  0.00    +0.000 C 
ATOM     31  N   UNL     1       0.622  17.688  18.570  0.00  0.00    +0.000 NA
ATOM     32  C   UNL     1       0.576  18.170  19.949  0.00  0.00    +0.000 C 
ATOM     33  C   UNL     1      -0.424  16.683  18.308  0.00  0.00    +0.000 C 
ATOM     34  C   UNL     1      -0.189  15.307  18.964  0.00  0.00    +0.000 C 
ENDBRANCH  25  26
ENDBRANCH   9  25
TORSDOF 7
ENDMDL
MODEL 4
REMARK VINA RESULT:      -7.8      3.041      4.814
REMARK  Name = 
REMARK  9 active torsions:
REMARK  status: ('A' for Active; 'I' for Inactive)
REMARK    1  A    between atoms: C_1  and  C_2
REMARK    2  A    between atoms: C_2  and  O_3
REMARK    3  A    between atoms: O_3  and  C_4
REMARK    4  A    between atoms: C_7  and  C_8
REMARK    5  A    between atoms: C_10  and  C_11
REMARK    6  A    between atoms: N_18  and  C_19
REMARK    7  A    between atoms: C_19  and  C_20
REMARK    8  A    between atoms: N_25  and  C_26
REMARK    9  A    between atoms: C_30  and  C_31
REMARK                            x       y       z     vdW  Elec       q    Type
REMARK                         _______ _______ _______ _____ _____    ______ ____
ROOT
ATOM      1  C   UNL     1       1.057   8.900  19.192  0.00  0.00    +0.000 A 
ATOM      2  N   UNL     1       0.254   9.509  18.284  0.00  0.00    +0.000 NA
ATOM      3  C   UNL     1      -0.749  10.290  18.750  0.00  0.00    +0.000 A 
ATOM      4  N   UNL     1      -1.070  10.559  20.042  0.00  0.00    +0.000 NA
ATOM      5  C   UNL     1      -0.235   9.945  20.905  0.00  0.00    +0.000 A 
ATOM      6  C   UNL     1       0.840   9.131  20.559  0.00  0.00    +0.000 A 
ATOM      7  C   UNL     1       1.483   8.759  21.777  0.00  0.00    +0.000 A 
ATOM      8  C   UNL     1       0.777   9.306  22.811  0.00  0.00    +0.000 A 
ATOM      9  N   UNL     1      -0.272  10.014  22.279  0.00  0.00    +0.000 N 
ENDROOT
BRANCH   1  13
ATOM     10  C   UNL     1       4.222   6.410  17.683  0.00  0.00    +0.000 A 
ATOM     11  C   UNL     1       3.943   7.648  17.104  0.00  0.00    +0.000 A 
ATOM     12  C   UNL     1       2.987   8.486  17.660  0.00  0.00    +0.000 A 
ATOM     13  C   UNL     1       2.180   8.077  18.730  0.00  0.00    +0.000 A 
ATOM     14  C   UNL     1       2.457   6.821  19.290  0.00  0.00    +0.000 A 
ATOM     15  C   UNL     1       3.470   5.973  18.780  0.00  0.00    +0.000 A 
BRANCH  15  16
ATOM     16  C   UNL     1       3.697   4.663  19.493  0.00  0.00    +0.000 C 
ATOM     17  F   UNL     1       3.356   3.536  18.812  0.00  0.00    +0.000 F 
ATOM     18  F   UNL     1       5.009   4.501  19.836  0.00  0.00    +0.000 F 
ATOM     19  F   UNL     1       3.011   4.599  20.673  0.00  0.00    +0.000 F 
ENDBRANCH  15  16
BRANCH  10  20
ATOM     20  O   UNL     1       5.232   5.621  17.204  0.00  0.00    +0.000 OA
BRANCH  20  22
ATOM     21  C   UNL     1       7.331   6.298  18.133  0.00  0.00    +0.000 C 
ATOM     22  C   UNL     1       6.446   6.330  16.909  0.00  0.00    +0.000 C 
ENDBRANCH  20  22
ENDBRANCH  10  20
ENDBRANCH   1  13
BRANCH   3  23
ATOM     23  C   UNL     1      -1.581  10.921  17.745  0.00  0.00    +0.000 C 
ATOM     24  N   UNL     1      -2.230  11.426  16.929  0.00  0.00    +0.000 NA
ENDBRANCH   3  23
BRANCH   9  25
ATOM     25  C   UNL     1      -1.197  10.780  23.090  0.00  0.00    +0.000 C 
BRANCH  25  26
ATOM     26  C   UNL     1      -1.140  12.265  22.785  0.00  0.00    +0.000 C 
ATOM     27  O   UNL     1      -0.062  12.791  22.485  0.00  0.00    +0.000 OA
ATOM     28  N   UNL     1      -2.334  12.984  22.747  0.00  0.00    +0.000 N 
ATOM     29  C   UNL     1      -2.233  14.393  22.350  0.00  0.00    +0.000 C 
ATOM     30  C   UNL     1      -3.578  14.984  21.888  0.00  0.00    +0.000 C 
ATOM     31  N   UNL     1      -4.707  14.749  22.808  0.00  0.00    +0.000 NA
ATOM     32  C   UNL     1      -4.591  15.551  24.024  0.00  0.00    +0.000 C 
ATOM     33  C   UNL     1      -4.796  13.309  23.108  0.00  0.00    +0.000 C 
ATOM     34  C   UNL     1      -3.486  12.661  23.599  0.00  0.00    +0.000 C 
ENDBRANCH  25  26
ENDBRANCH   9  25
TORSDOF 7
ENDMDL
MODEL 5
REMARK VINA RESULT:      -7.7      3.300      5.696
REMARK  Name = 
REMARK  9 active torsions:
REMARK  status: ('A' for Active; 'I' for Inactive)
REMARK    1  A    between atoms: C_1  and  C_2
REMARK    2  A    between atoms: C_2  and  O_3
REMARK    3  A    between atoms: O_3  and  C_4
REMARK    4  A    between atoms: C_7  and  C_8
REMARK    5  A    between atoms: C_10  and  C_11
REMARK    6  A    between atoms: N_18  and  C_19
REMARK    7  A    between atoms: C_19  and  C_20
REMARK    8  A    between atoms: N_25  and  C_26
REMARK    9  A    between atoms: C_30  and  C_31
REMARK                            x       y       z     vdW  Elec       q    Type
REMARK                         _______ _______ _______ _____ _____    ______ ____
ROOT
ATOM      1  C   UNL     1       1.328   9.152  20.073  0.00  0.00    +0.000 A 
ATOM      2  N   UNL     1       1.799  10.107  19.233  0.00  0.00    +0.000 NA
ATOM      3  C   UNL     1       1.410  11.387  19.449  0.00  0.00    +0.000 A 
ATOM      4  N   UNL     1       0.590  11.860  20.423  0.00  0.00    +0.000 NA
ATOM      5  C   UNL     1       0.162  10.876  21.241  0.00  0.00    +0.000 A 
ATOM      6  C   UNL     1       0.497   9.529  21.140  0.00  0.00    +0.000 A 
ATOM      7  C   UNL     1      -0.116   8.868  22.245  0.00  0.00    +0.000 A 
ATOM      8  C   UNL     1      -0.828   9.797  22.949  0.00  0.00    +0.000 A 
ATOM      9  N   UNL     1      -0.667  11.011  22.330  0.00  0.00    +0.000 N 
ENDROOT
BRANCH   1  13
ATOM     10  C   UNL     1       2.734   5.104  19.709  0.00  0.00    +0.000 A 
ATOM     11  C   UNL     1       1.865   5.474  20.735  0.00  0.00    +0.000 A 
ATOM     12  C   UNL     1       1.340   6.757  20.786  0.00  0.00    +0.000 A 
ATOM     13  C   UNL     1       1.756   7.759  19.899  0.00  0.00    +0.000 A 
ATOM     14  C   UNL     1       2.646   7.380  18.884  0.00  0.00    +0.000 A 
ATOM     15  C   UNL     1       3.148   6.060  18.773  0.00  0.00    +0.000 A 
BRANCH  15  16
ATOM     16  C   UNL     1       4.069   5.767  17.616  0.00  0.00    +0.000 C 
ATOM     17  F   UNL     1       4.307   6.794  16.757  0.00  0.00    +0.000 F 
ATOM     18  F   UNL     1       5.298   5.356  18.046  0.00  0.00    +0.000 F 
ATOM     19  F   UNL     1       3.604   4.743  16.839  0.00  0.00    +0.000 F 
ENDBRANCH  15  16
BRANCH  10  20
ATOM     20  O   UNL     1       3.177   3.815  19.591  0.00  0.00    +0.000 OA
BRANCH  20  22
ATOM     21  C   UNL     1       1.456   2.558  18.504  0.00  0.00    +0.000 C 
ATOM     22  C   UNL     1       2.165   2.820  19.812  0.00  0.00    +0.000 C 
ENDBRANCH  20  22
ENDBRANCH  10  20
ENDBRANCH   1  13
BRANCH   3  23
ATOM     23  C   UNL     1       1.937  12.374  18.529  0.00  0.00    +0.000 C 
ATOM     24  N   UNL     1       2.361  13.176  17.808  0.00  0.00    +0.000 NA
ENDBRANCH   3  23
BRANCH   9  25
ATOM     25  C   UNL     1      -1.234  12.241  22.848  0.00  0.00    +0.000 C 
BRANCH  25  26
ATOM     26  C   UNL     1      -2.437  12.704  22.049  0.00  0.00    +0.000 C 
ATOM     27  O   UNL     1      -2.307  13.000  20.856  0.00  0.00    +0.000 OA
ATOM     28  N   UNL     1      -3.691  12.683  22.658  0.00  0.00    +0.000 N 
ATOM     29  C   UNL     1      -4.832  13.047  21.812  0.00  0.00    +0.000 C 
ATOM     30  C   UNL     1      -6.180  12.569  22.383  0.00  0.00    +0.000 C 
ATOM     31  N   UNL     1      -6.411  12.915  23.798  0.00  0.00    +0.000 NA
ATOM     32  C   UNL     1      -6.662  14.344  23.972  0.00  0.00    +0.000 C 
ATOM     33  C   UNL     1      -5.263  12.460  24.602  0.00  0.00    +0.000 C 
ATOM     34  C   UNL     1      -3.883  12.926  24.095  0.00  0.00    +0.000 C 
ENDBRANCH  25  26
ENDBRANCH   9  25
TORSDOF 7
ENDMDL
MODEL 6
REMARK VINA RESULT:      -7.6      3.052      4.817
REMARK  Name = 
REMARK  9 active torsions:
REMARK  status: ('A' for Active; 'I' for Inactive)
REMARK    1  A    between atoms: C_1  and  C_2
REMARK    2  A    between atoms: C_2  and  O_3
REMARK    3  A    between atoms: O_3  and  C_4
REMARK    4  A    between atoms: C_7  and  C_8
REMARK    5  A    between atoms: C_10  and  C_11
REMARK    6  A    between atoms: N_18  and  C_19
REMARK    7  A    between atoms: C_19  and  C_20
REMARK    8  A    between atoms: N_25  and  C_26
REMARK    9  A    between atoms: C_30  and  C_31
REMARK                            x       y       z     vdW  Elec       q    Type
REMARK                         _______ _______ _______ _____ _____    ______ ____
ROOT
ATOM      1  C   UNL     1       0.976   8.937  19.246  0.00  0.00    +0.000 A 
ATOM      2  N   UNL     1       0.208   9.577  18.329  0.00  0.00    +0.000 NA
ATOM      3  C   UNL     1      -0.759  10.409  18.785  0.00  0.00    +0.000 A 
ATOM      4  N   UNL     1      -1.074  10.702  20.073  0.00  0.00    +0.000 NA
ATOM      5  C   UNL     1      -0.273  10.056  20.945  0.00  0.00    +0.000 A 
ATOM      6  C   UNL     1       0.764   9.188  20.611  0.00  0.00    +0.000 A 
ATOM      7  C   UNL     1       1.382   8.795  21.834  0.00  0.00    +0.000 A 
ATOM      8  C   UNL     1       0.697   9.382  22.860  0.00  0.00    +0.000 A 
ATOM      9  N   UNL     1      -0.313  10.136  22.318  0.00  0.00    +0.000 N 
ENDROOT
BRANCH   1  13
ATOM     10  C   UNL     1       4.025   6.286  17.773  0.00  0.00    +0.000 A 
ATOM     11  C   UNL     1       3.799   7.525  17.175  0.00  0.00    +0.000 A 
ATOM     12  C   UNL     1       2.882   8.414  17.717  0.00  0.00    +0.000 A 
ATOM     13  C   UNL     1       2.061   8.058  18.796  0.00  0.00    +0.000 A 
ATOM     14  C   UNL     1       2.283   6.800  19.376  0.00  0.00    +0.000 A 
ATOM     15  C   UNL     1       3.257   5.900  18.878  0.00  0.00    +0.000 A 
BRANCH  15  16
ATOM     16  C   UNL     1       3.428   4.594  19.612  0.00  0.00    +0.000 C 
ATOM     17  F   UNL     1       2.793   4.485  20.810  0.00  0.00    +0.000 F 
ATOM     18  F   UNL     1       2.985   3.539  18.866  0.00  0.00    +0.000 F 
ATOM     19  F   UNL     1       4.742   4.319  19.869  0.00  0.00    +0.000 F 
ENDBRANCH  15  16
BRANCH  10  20
ATOM     20  O   UNL     1       4.998   5.445  17.306  0.00  0.00    +0.000 OA
BRANCH  20  22
ATOM     21  C   UNL     1       5.973   4.414  15.379  0.00  0.00    +0.000 C 
ATOM     22  C   UNL     1       5.381   5.684  15.943  0.00  0.00    +0.000 C 
ENDBRANCH  20  22
ENDBRANCH  10  20
ENDBRANCH   1  13
BRANCH   3  23
ATOM     23  C   UNL     1      -1.555  11.072  17.771  0.00  0.00    +0.000 C 
ATOM     24  N   UNL     1      -2.198  11.584  16.955  0.00  0.00    +0.000 NA
ENDBRANCH   3  23
BRANCH   9  25
ATOM     25  C   UNL     1      -1.204  10.952  23.118  0.00  0.00    +0.000 C 
BRANCH  25  26
ATOM     26  C   UNL     1      -1.193  12.408  22.695  0.00  0.00    +0.000 C 
ATOM     27  O   UNL     1      -0.116  12.991  22.526  0.00  0.00    +0.000 OA
ATOM     28  N   UNL     1      -2.407  13.026  22.401  0.00  0.00    +0.000 N 
ATOM     29  C   UNL     1      -2.332  14.404  21.901  0.00  0.00    +0.000 C 
ATOM     30  C   UNL     1      -3.615  14.851  21.177  0.00  0.00    +0.000 C 
ATOM     31  N   UNL     1      -4.865  14.601  21.920  0.00  0.00    +0.000 NA
ATOM     32  C   UNL     1      -5.004  15.502  23.062  0.00  0.00    +0.000 C 
ATOM     33  C   UNL     1      -4.911  13.187  22.330  0.00  0.00    +0.000 C 
ATOM     34  C   UNL     1      -3.662  12.682  23.082  0.00  0.00    +0.000 C 
ENDBRANCH  25  26
ENDBRANCH   9  25
TORSDOF 7
ENDMDL
MODEL 7
REMARK VINA RESULT:      -7.6      3.931      5.116
REMARK  Name = 
REMARK  9 active torsions:
REMARK  status: ('A' for Active; 'I' for Inactive)
REMARK    1  A    between atoms: C_1  and  C_2
REMARK    2  A    between atoms: C_2  and  O_3
REMARK    3  A    between atoms: O_3  and  C_4
REMARK    4  A    between atoms: C_7  and  C_8
REMARK    5  A    between atoms: C_10  and  C_11
REMARK    6  A    between atoms: N_18  and  C_19
REMARK    7  A    between atoms: C_19  and  C_20
REMARK    8  A    between atoms: N_25  and  C_26
REMARK    9  A    between atoms: C_30  and  C_31
REMARK                            x       y       z     vdW  Elec       q    Type
REMARK                         _______ _______ _______ _____ _____    ______ ____
ROOT
ATOM      1  C   UNL     1       1.844   7.742  20.343  0.00  0.00    +0.000 A 
ATOM      2  N   UNL     1       1.382   8.020  21.588  0.00  0.00    +0.000 NA
ATOM      3  C   UNL     1       0.795   9.224  21.789  0.00  0.00    +0.000 A 
ATOM      4  N   UNL     1       0.596  10.221  20.889  0.00  0.00    +0.000 NA
ATOM      5  C   UNL     1       1.057   9.891  19.665  0.00  0.00    +0.000 A 
ATOM      6  C   UNL     1       1.664   8.686  19.320  0.00  0.00    +0.000 A 
ATOM      7  C   UNL     1       1.923   8.742  17.919  0.00  0.00    +0.000 A 
ATOM      8  C   UNL     1       1.518   9.965  17.464  0.00  0.00    +0.000 A 
ATOM      9  N   UNL     1       1.005  10.664  18.528  0.00  0.00    +0.000 N 
ENDROOT
BRANCH   1  13
ATOM     10  C   UNL     1       3.491   3.888  19.377  0.00  0.00    +0.000 A 
ATOM     11  C   UNL     1       3.922   5.040  18.719  0.00  0.00    +0.000 A 
ATOM     12  C   UNL     1       3.457   6.288  19.105  0.00  0.00    +0.000 A 
ATOM     13  C   UNL     1       2.451   6.434  20.070  0.00  0.00    +0.000 A 
ATOM     14  C   UNL     1       2.011   5.266  20.711  0.00  0.00    +0.000 A 
ATOM     15  C   UNL     1       2.516   3.985  20.378  0.00  0.00    +0.000 A 
BRANCH  15  16
ATOM     16  C   UNL     1       1.992   2.811  21.165  0.00  0.00    +0.000 C 
ATOM     17  F   UNL     1       1.014   3.078  22.071  0.00  0.00    +0.000 F 
ATOM     18  F   UNL     1       1.478   1.848  20.344  0.00  0.00    +0.000 F 
ATOM     19  F   UNL     1       2.982   2.185  21.870  0.00  0.00    +0.000 F 
ENDBRANCH  15  16
BRANCH  10  20
ATOM     20  O   UNL     1       4.019   2.663  19.073  0.00  0.00    +0.000 OA
BRANCH  20  22
ATOM     21  C   UNL     1       2.385   2.192  17.389  0.00  0.00    +0.000 C 
ATOM     22  C   UNL     1       3.862   2.278  17.698  0.00  0.00    +0.000 C 
ENDBRANCH  20  22
ENDBRANCH  10  20
ENDBRANCH   1  13
BRANCH   3  23
ATOM     23  C   UNL     1       0.316   9.478  23.133  0.00  0.00    +0.000 C 
ATOM     24  N   UNL     1      -0.083   9.691  24.200  0.00  0.00    +0.000 NA
ENDBRANCH   3  23
BRANCH   9  25
ATOM     25  C   UNL     1       0.421  11.984  18.396  0.00  0.00    +0.000 C 
BRANCH  25  26
ATOM     26  C   UNL     1      -1.092  11.959  18.495  0.00  0.00    +0.000 C 
ATOM     27  O   UNL     1      -1.752  11.300  17.682  0.00  0.00    +0.000 OA
ATOM     28  N   UNL     1      -1.701  12.599  19.573  0.00  0.00    +0.000 N 
ATOM     29  C   UNL     1      -3.158  12.461  19.675  0.00  0.00    +0.000 C 
ATOM     30  C   UNL     1      -3.695  12.777  21.083  0.00  0.00    +0.000 C 
ATOM     31  N   UNL     1      -3.220  14.052  21.655  0.00  0.00    +0.000 NA
ATOM     32  C   UNL     1      -3.828  15.203  20.991  0.00  0.00    +0.000 C 
ATOM     33  C   UNL     1      -1.749  14.096  21.587  0.00  0.00    +0.000 C 
ATOM     34  C   UNL     1      -1.148  13.810  20.196  0.00  0.00    +0.000 C 
ENDBRANCH  25  26
ENDBRANCH   9  25
TORSDOF 7
ENDMDL
MODEL 8
REMARK VINA RESULT:      -7.5      4.053      5.327
REMARK  Name = 
REMARK  9 active torsions:
REMARK  status: ('A' for Active; 'I' for Inactive)
REMARK    1  A    between atoms: C_1  and  C_2
REMARK    2  A    between atoms: C_2  and  O_3
REMARK    3  A    between atoms: O_3  and  C_4
REMARK    4  A    between atoms: C_7  and  C_8
REMARK    5  A    between atoms: C_10  and  C_11
REMARK    6  A    between atoms: N_18  and  C_19
REMARK    7  A    between atoms: C_19  and  C_20
REMARK    8  A    between atoms: N_25  and  C_26
REMARK    9  A    between atoms: C_30  and  C_31
REMARK                            x       y       z     vdW  Elec       q    Type
REMARK                         _______ _______ _______ _____ _____    ______ ____
ROOT
ATOM      1  C   UNL     1       1.913   7.659  20.335  0.00  0.00    +0.000 A 
ATOM      2  N   UNL     1       1.448   7.962  21.573  0.00  0.00    +0.000 NA
ATOM      3  C   UNL     1       0.880   9.179  21.753  0.00  0.00    +0.000 A 
ATOM      4  N   UNL     1       0.703  10.165  20.837  0.00  0.00    +0.000 NA
ATOM      5  C   UNL     1       1.167   9.810  19.621  0.00  0.00    +0.000 A 
ATOM      6  C   UNL     1       1.756   8.591  19.298  0.00  0.00    +0.000 A 
ATOM      7  C   UNL     1       2.026   8.621  17.898  0.00  0.00    +0.000 A 
ATOM      8  C   UNL     1       1.644   9.844  17.422  0.00  0.00    +0.000 A 
ATOM      9  N   UNL     1       1.136  10.567  18.472  0.00  0.00    +0.000 N 
ENDROOT
BRANCH   1  13
ATOM     10  C   UNL     1       3.503   3.764  19.437  0.00  0.00    +0.000 A 
ATOM     11  C   UNL     1       3.962   4.900  18.770  0.00  0.00    +0.000 A 
ATOM     12  C   UNL     1       3.515   6.162  19.136  0.00  0.00    +0.000 A 
ATOM     13  C   UNL     1       2.500   6.337  20.086  0.00  0.00    +0.000 A 
ATOM     14  C   UNL     1       2.032   5.185  20.736  0.00  0.00    +0.000 A 
ATOM     15  C   UNL     1       2.518   3.891  20.424  0.00  0.00    +0.000 A 
BRANCH  15  16
ATOM     16  C   UNL     1       1.963   2.736  21.219  0.00  0.00    +0.000 C 
ATOM     17  F   UNL     1       0.978   3.031  22.109  0.00  0.00    +0.000 F 
ATOM     18  F   UNL     1       1.445   1.771  20.404  0.00  0.00    +0.000 F 
ATOM     19  F   UNL     1       2.933   2.103  21.945  0.00  0.00    +0.000 F 
ENDBRANCH  15  16
BRANCH  10  20
ATOM     20  O   UNL     1       4.013   2.527  19.154  0.00  0.00    +0.000 OA
BRANCH  20  22
ATOM     21  C   UNL     1       2.333   2.256  17.471  0.00  0.00    +0.000 C 
ATOM     22  C   UNL     1       3.799   2.096  17.801  0.00  0.00    +0.000 C 
ENDBRANCH  20  22
ENDBRANCH  10  20
ENDBRANCH   1  13
BRANCH   3  23
ATOM     23  C   UNL     1       0.396   9.461  23.090  0.00  0.00    +0.000 C 
ATOM     24  N   UNL     1      -0.010   9.687  24.151  0.00  0.00    +0.000 NA
ENDBRANCH   3  23
BRANCH   9  25
ATOM     25  C   UNL     1       0.574  11.894  18.317  0.00  0.00    +0.000 C 
BRANCH  25  26
ATOM     26  C   UNL     1       1.615  12.985  18.476  0.00  0.00    +0.000 C 
ATOM     27  O   UNL     1       2.815  12.715  18.347  0.00  0.00    +0.000 OA
ATOM     28  N   UNL     1       1.183  14.297  18.660  0.00  0.00    +0.000 N 
ATOM     29  C   UNL     1       2.228  15.326  18.709  0.00  0.00    +0.000 C 
ATOM     30  C   UNL     1       1.687  16.745  18.451  0.00  0.00    +0.000 C 
ATOM     31  N   UNL     1       0.509  17.115  19.259  0.00  0.00    +0.000 NA
ATOM     32  C   UNL     1       0.860  17.332  20.660  0.00  0.00    +0.000 C 
ATOM     33  C   UNL     1      -0.527  16.079  19.109  0.00  0.00    +0.000 C 
ATOM     34  C   UNL     1      -0.054  14.636  19.377  0.00  0.00    +0.000 C 
ENDBRANCH  25  26
ENDBRANCH   9  25
TORSDOF 7
ENDMDL
MODEL 9
REMARK VINA RESULT:      -7.5      3.328      5.608
REMARK  Name = 
REMARK  9 active torsions:
REMARK  status: ('A' for Active; 'I' for Inactive)
REMARK    1  A    between atoms: C_1  and  C_2
REMARK    2  A    between atoms: C_2  and  O_3
REMARK    3  A    between atoms: O_3  and  C_4
REMARK    4  A    between atoms: C_7  and  C_8
REMARK    5  A    between atoms: C_10  and  C_11
REMARK    6  A    between atoms: N_18  and  C_19
REMARK    7  A    between atoms: C_19  and  C_20
REMARK    8  A    between atoms: N_25  and  C_26
REMARK    9  A    between atoms: C_30  and  C_31
REMARK                            x       y       z     vdW  Elec       q    Type
REMARK                         _______ _______ _______ _____ _____    ______ ____
ROOT
ATOM      1  C   UNL     1       1.146   9.403  20.184  0.00  0.00    +0.000 A 
ATOM      2  N   UNL     1       1.558  10.360  19.315  0.00  0.00    +0.000 NA
ATOM      3  C   UNL     1       1.168  11.636  19.549  0.00  0.00    +0.000 A 
ATOM      4  N   UNL     1       0.401  12.105  20.567  0.00  0.00    +0.000 NA
ATOM      5  C   UNL     1       0.031  11.120  21.411  0.00  0.00    +0.000 A 
ATOM      6  C   UNL     1       0.373   9.776  21.295  0.00  0.00    +0.000 A 
ATOM      7  C   UNL     1      -0.169   9.112  22.435  0.00  0.00    +0.000 A 
ATOM      8  C   UNL     1      -0.850  10.037  23.176  0.00  0.00    +0.000 A 
ATOM      9  N   UNL     1      -0.737  11.251  22.545  0.00  0.00    +0.000 N 
ENDROOT
BRANCH   1  13
ATOM     10  C   UNL     1       2.561   5.363  19.765  0.00  0.00    +0.000 A 
ATOM     11  C   UNL     1       1.673   5.713  20.782  0.00  0.00    +0.000 A 
ATOM     12  C   UNL     1       1.147   6.995  20.849  0.00  0.00    +0.000 A 
ATOM     13  C   UNL     1       1.577   8.014  19.990  0.00  0.00    +0.000 A 
ATOM     14  C   UNL     1       2.486   7.655  18.983  0.00  0.00    +0.000 A 
ATOM     15  C   UNL     1       2.990   6.338  18.855  0.00  0.00    +0.000 A 
BRANCH  15  16
ATOM     16  C   UNL     1       3.932   6.068  17.708  0.00  0.00    +0.000 C 
ATOM     17  F   UNL     1       3.621   5.016  16.904  0.00  0.00    +0.000 F 
ATOM     18  F   UNL     1       4.031   7.148  16.878  0.00  0.00    +0.000 F 
ATOM     19  F   UNL     1       5.207   5.833  18.139  0.00  0.00    +0.000 F 
ENDBRANCH  15  16
BRANCH  10  20
ATOM     20  O   UNL     1       3.006   4.077  19.629  0.00  0.00    +0.000 OA
BRANCH  20  22
ATOM     21  C   UNL     1       1.549   2.302  18.958  0.00  0.00    +0.000 C 
ATOM     22  C   UNL     1       2.099   3.082  20.129  0.00  0.00    +0.000 C 
ENDBRANCH  20  22
ENDBRANCH  10  20
ENDBRANCH   1  13
BRANCH   3  23
ATOM     23  C   UNL     1       1.633  12.626  18.597  0.00  0.00    +0.000 C 
ATOM     24  N   UNL     1       1.996  13.431  17.847  0.00  0.00    +0.000 NA
ENDBRANCH   3  23
BRANCH   9  25
ATOM     25  C   UNL     1      -1.286  12.476  23.090  0.00  0.00    +0.000 C 
BRANCH  25  26
ATOM     26  C   UNL     1      -2.801  12.449  23.163  0.00  0.00    +0.000 C 
ATOM     27  O   UNL     1      -3.367  11.637  23.904  0.00  0.00    +0.000 OA
ATOM     28  N   UNL     1      -3.519  13.420  22.467  0.00  0.00    +0.000 N 
ATOM     29  C   UNL     1      -4.975  13.409  22.650  0.00  0.00    +0.000 C 
ATOM     30  C   UNL     1      -5.641  14.738  22.249  0.00  0.00    +0.000 C 
ATOM     31  N   UNL     1      -5.256  15.248  20.920  0.00  0.00    +0.000 NA
ATOM     32  C   UNL     1      -5.838  14.448  19.844  0.00  0.00    +0.000 C 
ATOM     33  C   UNL     1      -3.786  15.301  20.827  0.00  0.00    +0.000 C 
ATOM     34  C   UNL     1      -3.059  13.991  21.194  0.00  0.00    +0.000 C 
ENDBRANCH  25  26
ENDBRANCH   9  25
TORSDOF 7
ENDMDL
