MODEL 1
REMARK VINA RESULT:      -8.1      0.000      0.000
REMARK  Name = 
REMARK  5 active torsions:
REMARK  status: ('A' for Active; 'I' for Inactive)
REMARK    1  A    between atoms: N_1  and  C_2
REMARK    2  A    between atoms: C_4  and  C_5
REMARK    3  A    between atoms: C_5  and  C_6
REMARK    4  A    between atoms: N_14  and  C_15
REMARK    5  A    between atoms: C_15  and  C_16
REMARK                            x       y       z     vdW  Elec       q    Type
REMARK                         _______ _______ _______ _____ _____    ______ ____
ROOT
ATOM      1  C   UNL     1       7.225   6.224  16.711  0.00  0.00    +0.000 A 
ATOM      2  N   UNL     1       7.230   5.864  15.405  0.00  0.00    +0.000 NA
ATOM      3  C   UNL     1       6.498   4.788  15.005  0.00  0.00    +0.000 A 
ATOM      4  N   UNL     1       5.711   4.012  15.785  0.00  0.00    +0.000 NA
ATOM      5  C   UNL     1       5.739   4.415  17.064  0.00  0.00    +0.000 A 
ATOM      6  C   UNL     1       6.445   5.473  17.599  0.00  0.00    +0.000 A 
ATOM      7  N   UNL     1       6.203   5.554  18.945  0.00  0.00    +0.000 NA
ATOM      8  N   UNL     1       5.373   4.566  19.271  0.00  0.00    +0.000 NA
ATOM      9  N   UNL     1       5.081   3.891  18.135  0.00  0.00    +0.000 N 
ENDROOT
BRANCH   1  10
ATOM     10  N   UNL     1       7.997   7.313  17.088  0.00  0.00    +0.000 N 
ATOM     11  H   UNL     1       7.501   7.948  17.701  0.00  0.00    +0.000 HD
ATOM     12  H   UNL     1       8.965   7.108  17.305  0.00  0.00    +0.000 HD
ENDBRANCH   1  10
BRANCH   3  13
ATOM     13  C   UNL     1       6.647   4.378  13.557  0.00  0.00    +0.000 C 
BRANCH  13  14
ATOM     14  C   UNL     1       5.636   3.341  13.151  0.00  0.00    +0.000 C 
ATOM     15  C   UNL     1       4.749   3.609  11.961  0.00  0.00    +0.000 C 
ATOM     16  C   UNL     1       5.809   2.550  11.877  0.00  0.00    +0.000 C 
ENDBRANCH  13  14
ENDBRANCH   3  13
BRANCH   9  17
ATOM     17  C   UNL     1       4.101   2.827  18.140  0.00  0.00    +0.000 C 
BRANCH  17  18
ATOM     18  C   UNL     1       3.056   3.045  19.231  0.00  0.00    +0.000 C 
ATOM     19  C   UNL     1       1.648   2.605  18.829  0.00  0.00    +0.000 C 
ATOM     20  C   UNL     1       0.684   3.111  19.897  0.00  0.00    +0.000 C 
ATOM     21  C   UNL     1       1.123   2.676  21.296  0.00  0.00    +0.000 C 
ATOM     22  C   UNL     1       2.633   2.776  21.531  0.00  0.00    +0.000 C 
ATOM     23  O   UNL     1       3.402   2.312  20.417  0.00  0.00    +0.000 OA
ENDBRANCH  17  18
ENDBRANCH   9  17
TORSDOF 5
ENDMDL
MODEL 2
REMARK VINA RESULT:      -7.8      1.156      1.309
REMARK  Name = 
REMARK  5 active torsions:
REMARK  status: ('A' for Active; 'I' for Inactive)
REMARK    1  A    between atoms: N_1  and  C_2
REMARK    2  A    between atoms: C_4  and  C_5
REMARK    3  A    between atoms: C_5  and  C_6
REMARK    4  A    between atoms: N_14  and  C_15
REMARK    5  A    between atoms: C_15  and  C_16
REMARK                            x       y       z     vdW  Elec       q    Type
REMARK                         _______ _______ _______ _____ _____    ______ ____
ROOT
ATOM      1  C   UNL     1       6.997   6.342  16.750  0.00  0.00    +0.000 A 
ATOM      2  N   UNL     1       6.491   5.971  15.550  0.00  0.00    +0.000 NA
ATOM      3  C   UNL     1       5.659   4.896  15.477  0.00  0.00    +0.000 A 
ATOM      4  N   UNL     1       5.237   4.132  16.510  0.00  0.00    +0.000 NA
ATOM      5  C   UNL     1       5.762   4.545  17.673  0.00  0.00    +0.000 A 
ATOM      6  C   UNL     1       6.624   5.604  17.880  0.00  0.00    +0.000 A 
ATOM      7  N   UNL     1       6.925   5.698  19.213  0.00  0.00    +0.000 NA
ATOM      8  N   UNL     1       6.286   4.718  19.846  0.00  0.00    +0.000 NA
ATOM      9  N   UNL     1       5.573   4.034  18.921  0.00  0.00    +0.000 N 
ENDROOT
BRANCH   1  10
ATOM     10  N   UNL     1       7.857   7.430  16.786  0.00  0.00    +0.000 N 
ATOM     11  H   UNL     1       8.395   7.473  17.642  0.00  0.00    +0.000 HD
ATOM     12  H   UNL     1       8.336   7.637  15.917  0.00  0.00    +0.000 HD
ENDBRANCH   1  10
BRANCH   3  13
ATOM     13  C   UNL     1       5.231   4.473  14.091  0.00  0.00    +0.000 C 
BRANCH  13  14
ATOM     14  C   UNL     1       6.279   3.646  13.398  0.00  0.00    +0.000 C 
ATOM     15  C   UNL     1       5.949   3.006  12.072  0.00  0.00    +0.000 C 
ATOM     16  C   UNL     1       6.937   4.136  12.130  0.00  0.00    +0.000 C 
ENDBRANCH  13  14
ENDBRANCH   3  13
BRANCH   9  17
ATOM     17  C   UNL     1       4.670   2.976  19.319  0.00  0.00    +0.000 C 
BRANCH  17  18
ATOM     18  C   UNL     1       3.240   3.492  19.449  0.00  0.00    +0.000 C 
ATOM     19  C   UNL     1       2.259   2.452  19.992  0.00  0.00    +0.000 C 
ATOM     20  C   UNL     1       0.852   3.015  19.828  0.00  0.00    +0.000 C 
ATOM     21  C   UNL     1       0.730   4.407  20.449  0.00  0.00    +0.000 C 
ATOM     22  C   UNL     1       1.940   5.309  20.191  0.00  0.00    +0.000 C 
ATOM     23  O   UNL     1       3.188   4.622  20.334  0.00  0.00    +0.000 OA
ENDBRANCH  17  18
ENDBRANCH   9  17
TORSDOF 5
ENDMDL
MODEL 3
REMARK VINA RESULT:      -7.5      1.568      1.741
REMARK  Name = 
REMARK  5 active torsions:
REMARK  status: ('A' for Active; 'I' for Inactive)
REMARK    1  A    between atoms: N_1  and  C_2
REMARK    2  A    between atoms: C_4  and  C_5
REMARK    3  A    between atoms: C_5  and  C_6
REMARK    4  A    between atoms: N_14  and  C_15
REMARK    5  A    between atoms: C_15  and  C_16
REMARK                            x       y       z     vdW  Elec       q    Type
REMARK                         _______ _______ _______ _____ _____    ______ ____
ROOT
ATOM      1  C   UNL     1       7.596   4.592  17.354  0.00  0.00    +0.000 A 
ATOM      2  N   UNL     1       7.550   4.674  16.002  0.00  0.00    +0.000 NA
ATOM      3  C   UNL     1       6.381   5.014  15.392  0.00  0.00    +0.000 A 
ATOM      4  N   UNL     1       5.213   5.318  16.000  0.00  0.00    +0.000 NA
ATOM      5  C   UNL     1       5.315   5.227  17.334  0.00  0.00    +0.000 A 
ATOM      6  C   UNL     1       6.430   4.882  18.072  0.00  0.00    +0.000 A 
ATOM      7  N   UNL     1       6.124   4.909  19.407  0.00  0.00    +0.000 NA
ATOM      8  N   UNL     1       4.843   5.250  19.526  0.00  0.00    +0.000 NA
ATOM      9  N   UNL     1       4.361   5.458  18.279  0.00  0.00    +0.000 N 
ENDROOT
BRANCH   1  10
ATOM     10  N   UNL     1       8.797   4.224  17.942  0.00  0.00    +0.000 N 
ATOM     11  H   UNL     1       9.553   4.855  17.711  0.00  0.00    +0.000 HD
ATOM     12  H   UNL     1       8.732   3.895  18.899  0.00  0.00    +0.000 HD
ENDBRANCH   1  10
BRANCH   3  13
ATOM     13  C   UNL     1       6.378   4.968  13.881  0.00  0.00    +0.000 C 
BRANCH  13  14
ATOM     14  C   UNL     1       6.078   3.592  13.353  0.00  0.00    +0.000 C 
ATOM     15  C   UNL     1       5.112   3.442  12.204  0.00  0.00    +0.000 C 
ATOM     16  C   UNL     1       6.572   3.162  11.992  0.00  0.00    +0.000 C 
ENDBRANCH  13  14
ENDBRANCH   3  13
BRANCH   9  17
ATOM     17  C   UNL     1       3.020   5.962  18.079  0.00  0.00    +0.000 C 
BRANCH  17  18
ATOM     18  C   UNL     1       1.978   4.976  18.600  0.00  0.00    +0.000 C 
ATOM     19  C   UNL     1       2.166   3.552  18.076  0.00  0.00    +0.000 C 
ATOM     20  C   UNL     1       0.929   2.750  18.465  0.00  0.00    +0.000 C 
ATOM     21  C   UNL     1       0.643   2.856  19.963  0.00  0.00    +0.000 C 
ATOM     22  C   UNL     1       0.843   4.262  20.535  0.00  0.00    +0.000 C 
ATOM     23  O   UNL     1       2.020   4.905  20.033  0.00  0.00    +0.000 OA
ENDBRANCH  17  18
ENDBRANCH   9  17
TORSDOF 5
ENDMDL
MODEL 4
REMARK VINA RESULT:      -7.5      1.136      1.379
REMARK  Name = 
REMARK  5 active torsions:
REMARK  status: ('A' for Active; 'I' for Inactive)
REMARK    1  A    between atoms: N_1  and  C_2
REMARK    2  A    between atoms: C_4  and  C_5
REMARK    3  A    between atoms: C_5  and  C_6
REMARK    4  A    between atoms: N_14  and  C_15
REMARK    5  A    between atoms: C_15  and  C_16
REMARK                            x       y       z     vdW  Elec       q    Type
REMARK                         _______ _______ _______ _____ _____    ______ ____
ROOT
ATOM      1  C   UNL     1       6.836   6.461  16.800  0.00  0.00    +0.000 A 
ATOM      2  N   UNL     1       6.347   6.110  15.586  0.00  0.00    +0.000 NA
ATOM      3  C   UNL     1       5.583   4.989  15.471  0.00  0.00    +0.000 A 
ATOM      4  N   UNL     1       5.216   4.157  16.472  0.00  0.00    +0.000 NA
ATOM      5  C   UNL     1       5.722   4.552  17.650  0.00  0.00    +0.000 A 
ATOM      6  C   UNL     1       6.516   5.654  17.898  0.00  0.00    +0.000 A 
ATOM      7  N   UNL     1       6.820   5.710  19.233  0.00  0.00    +0.000 NA
ATOM      8  N   UNL     1       6.246   4.666  19.826  0.00  0.00    +0.000 NA
ATOM      9  N   UNL     1       5.572   3.978  18.876  0.00  0.00    +0.000 N 
ENDROOT
BRANCH   1  10
ATOM     10  N   UNL     1       7.627   7.597  16.878  0.00  0.00    +0.000 N 
ATOM     11  H   UNL     1       7.119   8.442  16.645  0.00  0.00    +0.000 HD
ATOM     12  H   UNL     1       8.265   7.633  17.665  0.00  0.00    +0.000 HD
ENDBRANCH   1  10
BRANCH   3  13
ATOM     13  C   UNL     1       5.175   4.599  14.069  0.00  0.00    +0.000 C 
BRANCH  13  14
ATOM     14  C   UNL     1       6.171   3.677  13.420  0.00  0.00    +0.000 C 
ATOM     15  C   UNL     1       5.816   3.020  12.109  0.00  0.00    +0.000 C 
ATOM     16  C   UNL     1       6.881   4.078  12.149  0.00  0.00    +0.000 C 
ENDBRANCH  13  14
ENDBRANCH   3  13
BRANCH   9  17
ATOM     17  C   UNL     1       4.739   2.850  19.230  0.00  0.00    +0.000 C 
BRANCH  17  18
ATOM     18  C   UNL     1       3.434   3.310  19.876  0.00  0.00    +0.000 C 
ATOM     19  C   UNL     1       3.131   4.792  19.655  0.00  0.00    +0.000 C 
ATOM     20  C   UNL     1       1.956   5.161  20.554  0.00  0.00    +0.000 C 
ATOM     21  C   UNL     1       0.771   4.218  20.340  0.00  0.00    +0.000 C 
ATOM     22  C   UNL     1       1.169   2.748  20.180  0.00  0.00    +0.000 C 
ATOM     23  O   UNL     1       2.322   2.570  19.350  0.00  0.00    +0.000 OA
ENDBRANCH  17  18
ENDBRANCH   9  17
TORSDOF 5
ENDMDL
MODEL 5
REMARK VINA RESULT:      -7.3      0.795      1.132
REMARK  Name = 
REMARK  5 active torsions:
REMARK  status: ('A' for Active; 'I' for Inactive)
REMARK    1  A    between atoms: N_1  and  C_2
REMARK    2  A    between atoms: C_4  and  C_5
REMARK    3  A    between atoms: C_5  and  C_6
REMARK    4  A    between atoms: N_14  and  C_15
REMARK    5  A    between atoms: C_15  and  C_16
REMARK                            x       y       z     vdW  Elec       q    Type
REMARK                         _______ _______ _______ _____ _____    ______ ____
ROOT
ATOM      1  C   UNL     1       7.081   6.116  16.738  0.00  0.00    +0.000 A 
ATOM      2  N   UNL     1       7.078   5.827  15.414  0.00  0.00    +0.000 NA
ATOM      3  C   UNL     1       6.391   4.739  14.968  0.00  0.00    +0.000 A 
ATOM      4  N   UNL     1       5.658   3.886  15.718  0.00  0.00    +0.000 NA
ATOM      5  C   UNL     1       5.690   4.220  17.016  0.00  0.00    +0.000 A 
ATOM      6  C   UNL     1       6.355   5.282  17.596  0.00  0.00    +0.000 A 
ATOM      7  N   UNL     1       6.135   5.279  18.949  0.00  0.00    +0.000 NA
ATOM      8  N   UNL     1       5.360   4.235  19.234  0.00  0.00    +0.000 NA
ATOM      9  N   UNL     1       5.079   3.608  18.068  0.00  0.00    +0.000 N 
ENDROOT
BRANCH   1  10
ATOM     10  N   UNL     1       7.807   7.219  17.160  0.00  0.00    +0.000 N 
ATOM     11  H   UNL     1       8.777   6.999  17.347  0.00  0.00    +0.000 HD
ATOM     12  H   UNL     1       7.605   8.087  16.677  0.00  0.00    +0.000 HD
ENDBRANCH   1  10
BRANCH   3  13
ATOM     13  C   UNL     1       6.532   4.415  13.498  0.00  0.00    +0.000 C 
BRANCH  13  14
ATOM     14  C   UNL     1       5.618   3.300  13.070  0.00  0.00    +0.000 C 
ATOM     15  C   UNL     1       4.750   3.491  11.851  0.00  0.00    +0.000 C 
ATOM     16  C   UNL     1       5.892   2.516  11.809  0.00  0.00    +0.000 C 
ENDBRANCH  13  14
ENDBRANCH   3  13
BRANCH   9  17
ATOM     17  C   UNL     1       4.151   2.499  18.031  0.00  0.00    +0.000 C 
BRANCH  17  18
ATOM     18  C   UNL     1       2.953   2.752  18.942  0.00  0.00    +0.000 C 
ATOM     19  C   UNL     1       3.265   2.574  20.429  0.00  0.00    +0.000 C 
ATOM     20  C   UNL     1       1.941   2.605  21.184  0.00  0.00    +0.000 C 
ATOM     21  C   UNL     1       1.129   3.854  20.838  0.00  0.00    +0.000 C 
ATOM     22  C   UNL     1       1.160   4.222  19.352  0.00  0.00    +0.000 C 
ATOM     23  O   UNL     1       2.463   4.092  18.774  0.00  0.00    +0.000 OA
ENDBRANCH  17  18
ENDBRANCH   9  17
TORSDOF 5
ENDMDL
MODEL 6
REMARK VINA RESULT:      -7.3      2.169      2.946
REMARK  Name = 
REMARK  5 active torsions:
REMARK  status: ('A' for Active; 'I' for Inactive)
REMARK    1  A    between atoms: N_1  and  C_2
REMARK    2  A    between atoms: C_4  and  C_5
REMARK    3  A    between atoms: C_5  and  C_6
REMARK    4  A    between atoms: N_14  and  C_15
REMARK    5  A    between atoms: C_15  and  C_16
REMARK                            x       y       z     vdW  Elec       q    Type
REMARK                         _______ _______ _______ _____ _____    ______ ____
ROOT
ATOM      1  C   UNL     1       7.583   5.097  13.311  0.00  0.00    +0.000 A 
ATOM      2  N   UNL     1       6.917   4.476  12.308  0.00  0.00    +0.000 NA
ATOM      3  C   UNL     1       5.878   3.649  12.606  0.00  0.00    +0.000 A 
ATOM      4  N   UNL     1       5.391   3.377  13.838  0.00  0.00    +0.000 NA
ATOM      5  C   UNL     1       6.082   4.020  14.791  0.00  0.00    +0.000 A 
ATOM      6  C   UNL     1       7.157   4.870  14.625  0.00  0.00    +0.000 A 
ATOM      7  N   UNL     1       7.577   5.325  15.847  0.00  0.00    +0.000 NA
ATOM      8  N   UNL     1       6.802   4.772  16.777  0.00  0.00    +0.000 NA
ATOM      9  N   UNL     1       5.891   4.000  16.140  0.00  0.00    +0.000 N 
ENDROOT
BRANCH   1  10
ATOM     10  N   UNL     1       8.649   5.918  12.974  0.00  0.00    +0.000 N 
ATOM     11  H   UNL     1       9.522   5.410  12.894  0.00  0.00    +0.000 HD
ATOM     12  H   UNL     1       8.452   6.627  12.278  0.00  0.00    +0.000 HD
ENDBRANCH   1  10
BRANCH   3  13
ATOM     13  C   UNL     1       5.262   2.903  11.444  0.00  0.00    +0.000 C 
BRANCH  13  14
ATOM     14  C   UNL     1       3.809   3.239  11.256  0.00  0.00    +0.000 C 
ATOM     15  C   UNL     1       3.410   4.167  10.135  0.00  0.00    +0.000 C 
ATOM     16  C   UNL     1       3.041   2.713  10.067  0.00  0.00    +0.000 C 
ENDBRANCH  13  14
ENDBRANCH   3  13
BRANCH   9  17
ATOM     17  C   UNL     1       4.824   3.357  16.875  0.00  0.00    +0.000 C 
BRANCH  17  18
ATOM     18  C   UNL     1       3.977   4.381  17.624  0.00  0.00    +0.000 C 
ATOM     19  C   UNL     1       2.475   4.105  17.552  0.00  0.00    +0.000 C 
ATOM     20  C   UNL     1       1.754   5.325  18.114  0.00  0.00    +0.000 C 
ATOM     21  C   UNL     1       2.278   5.694  19.502  0.00  0.00    +0.000 C 
ATOM     22  C   UNL     1       3.799   5.584  19.640  0.00  0.00    +0.000 C 
ATOM     23  O   UNL     1       4.332   4.411  19.015  0.00  0.00    +0.000 OA
ENDBRANCH  17  18
ENDBRANCH   9  17
TORSDOF 5
ENDMDL
MODEL 7
REMARK VINA RESULT:      -7.2      3.125      3.312
REMARK  Name = 
REMARK  5 active torsions:
REMARK  status: ('A' for Active; 'I' for Inactive)
REMARK    1  A    between atoms: N_1  and  C_2
REMARK    2  A    between atoms: C_4  and  C_5
REMARK    3  A    between atoms: C_5  and  C_6
REMARK    4  A    between atoms: N_14  and  C_15
REMARK    5  A    between atoms: C_15  and  C_16
REMARK                            x       y       z     vdW  Elec       q    Type
REMARK                         _______ _______ _______ _____ _____    ______ ____
ROOT
ATOM      1  C   UNL     1       7.467   4.600  17.462  0.00  0.00    +0.000 A 
ATOM      2  N   UNL     1       7.501   4.676  16.110  0.00  0.00    +0.000 NA
ATOM      3  C   UNL     1       6.361   4.972  15.427  0.00  0.00    +0.000 A 
ATOM      4  N   UNL     1       5.147   5.236  15.961  0.00  0.00    +0.000 NA
ATOM      5  C   UNL     1       5.170   5.152  17.300  0.00  0.00    +0.000 A 
ATOM      6  C   UNL     1       6.249   4.849  18.106  0.00  0.00    +0.000 A 
ATOM      7  N   UNL     1       5.861   4.869  19.420  0.00  0.00    +0.000 NA
ATOM      8  N   UNL     1       4.564   5.164  19.458  0.00  0.00    +0.000 NA
ATOM      9  N   UNL     1       4.152   5.351  18.182  0.00  0.00    +0.000 N 
ENDROOT
BRANCH   1  10
ATOM     10  N   UNL     1       8.641   4.277  18.125  0.00  0.00    +0.000 N 
ATOM     11  H   UNL     1       9.284   5.057  18.182  0.00  0.00    +0.000 HD
ATOM     12  H   UNL     1       8.533   3.693  18.947  0.00  0.00    +0.000 HD
ENDBRANCH   1  10
BRANCH   3  13
ATOM     13  C   UNL     1       6.452   4.922  13.919  0.00  0.00    +0.000 C 
BRANCH  13  14
ATOM     14  C   UNL     1       6.008   3.596  13.365  0.00  0.00    +0.000 C 
ATOM     15  C   UNL     1       5.032   3.572  12.215  0.00  0.00    +0.000 C 
ATOM     16  C   UNL     1       6.454   3.142  11.996  0.00  0.00    +0.000 C 
ENDBRANCH  13  14
ENDBRANCH   3  13
BRANCH   9  17
ATOM     17  C   UNL     1       2.809   5.806  17.899  0.00  0.00    +0.000 C 
BRANCH  17  18
ATOM     18  C   UNL     1       2.512   7.124  18.610  0.00  0.00    +0.000 C 
ATOM     19  C   UNL     1       1.801   8.151  17.727  0.00  0.00    +0.000 C 
ATOM     20  C   UNL     1       1.802   9.480  18.473  0.00  0.00    +0.000 C 
ATOM     21  C   UNL     1       1.227   9.329  19.883  0.00  0.00    +0.000 C 
ATOM     22  C   UNL     1       1.680   8.057  20.604  0.00  0.00    +0.000 C 
ATOM     23  O   UNL     1       1.675   6.904  19.755  0.00  0.00    +0.000 OA
ENDBRANCH  17  18
ENDBRANCH   9  17
TORSDOF 5
ENDMDL
MODEL 8
REMARK VINA RESULT:      -7.2      3.427      7.235
REMARK  Name = 
REMARK  5 active torsions:
REMARK  status: ('A' for Active; 'I' for Inactive)
REMARK    1  A    between atoms: N_1  and  C_2
REMARK    2  A    between atoms: C_4  and  C_5
REMARK    3  A    between atoms: C_5  and  C_6
REMARK    4  A    between atoms: N_14  and  C_15
REMARK    5  A    between atoms: C_15  and  C_16
REMARK                            x       y       z     vdW  Elec       q    Type
REMARK                         _______ _______ _______ _____ _____    ______ ____
ROOT
ATOM      1  C   UNL     1       1.773   3.960  20.664  0.00  0.00    +0.000 A 
ATOM      2  N   UNL     1       1.389   5.257  20.584  0.00  0.00    +0.000 NA
ATOM      3  C   UNL     1       2.257   6.181  20.088  0.00  0.00    +0.000 A 
ATOM      4  N   UNL     1       3.505   5.948  19.623  0.00  0.00    +0.000 NA
ATOM      5  C   UNL     1       3.831   4.651  19.720  0.00  0.00    +0.000 A 
ATOM      6  C   UNL     1       3.054   3.622  20.213  0.00  0.00    +0.000 A 
ATOM      7  N   UNL     1       3.750   2.444  20.138  0.00  0.00    +0.000 NA
ATOM      8  N   UNL     1       4.947   2.709  19.622  0.00  0.00    +0.000 NA
ATOM      9  N   UNL     1       4.990   4.035  19.356  0.00  0.00    +0.000 N 
ENDROOT
BRANCH   1  10
ATOM     10  N   UNL     1       0.872   3.047  21.192  0.00  0.00    +0.000 N 
ATOM     11  H   UNL     1       0.335   3.430  21.961  0.00  0.00    +0.000 HD
ATOM     12  H   UNL     1       0.382   2.474  20.515  0.00  0.00    +0.000 HD
ENDBRANCH   1  10
BRANCH   3  13
ATOM     13  C   UNL     1       1.802   7.622  20.140  0.00  0.00    +0.000 C 
BRANCH  13  14
ATOM     14  C   UNL     1       0.923   7.900  21.329  0.00  0.00    +0.000 C 
ATOM     15  C   UNL     1       1.204   9.112  22.180  0.00  0.00    +0.000 C 
ATOM     16  C   UNL     1      -0.032   9.069  21.328  0.00  0.00    +0.000 C 
ENDBRANCH  13  14
ENDBRANCH   3  13
BRANCH   9  17
ATOM     17  C   UNL     1       6.125   4.615  18.672  0.00  0.00    +0.000 C 
BRANCH  17  18
ATOM     18  C   UNL     1       5.870   4.717  17.170  0.00  0.00    +0.000 C 
ATOM     19  C   UNL     1       5.766   6.156  16.663  0.00  0.00    +0.000 C 
ATOM     20  C   UNL     1       5.263   6.102  15.224  0.00  0.00    +0.000 C 
ATOM     21  C   UNL     1       6.123   5.173  14.366  0.00  0.00    +0.000 C 
ATOM     22  C   UNL     1       6.533   3.879  15.074  0.00  0.00    +0.000 C 
ATOM     23  O   UNL     1       6.929   4.087  16.433  0.00  0.00    +0.000 OA
ENDBRANCH  17  18
ENDBRANCH   9  17
TORSDOF 5
ENDMDL
MODEL 9
REMARK VINA RESULT:      -7.2      3.362      7.159
REMARK  Name = 
REMARK  5 active torsions:
REMARK  status: ('A' for Active; 'I' for Inactive)
REMARK    1  A    between atoms: N_1  and  C_2
REMARK    2  A    between atoms: C_4  and  C_5
REMARK    3  A    between atoms: C_5  and  C_6
REMARK    4  A    between atoms: N_14  and  C_15
REMARK    5  A    between atoms: C_15  and  C_16
REMARK                            x       y       z     vdW  Elec       q    Type
REMARK                         _______ _______ _______ _____ _____    ______ ____
ROOT
ATOM      1  C   UNL     1       1.698   4.064  20.252  0.00  0.00    +0.000 A 
ATOM      2  N   UNL     1       1.477   5.378  20.498  0.00  0.00    +0.000 NA
ATOM      3  C   UNL     1       2.122   6.317  19.752  0.00  0.00    +0.000 A 
ATOM      4  N   UNL     1       2.979   6.086  18.733  0.00  0.00    +0.000 NA
ATOM      5  C   UNL     1       3.158   4.773  18.528  0.00  0.00    +0.000 A 
ATOM      6  C   UNL     1       2.579   3.726  19.218  0.00  0.00    +0.000 A 
ATOM      7  N   UNL     1       3.019   2.536  18.701  0.00  0.00    +0.000 NA
ATOM      8  N   UNL     1       3.868   2.808  17.714  0.00  0.00    +0.000 NA
ATOM      9  N   UNL     1       3.939   4.155  17.599  0.00  0.00    +0.000 N 
ENDROOT
BRANCH   1  10
ATOM     10  N   UNL     1       1.040   3.135  21.043  0.00  0.00    +0.000 N 
ATOM     11  H   UNL     1       1.273   2.180  20.799  0.00  0.00    +0.000 HD
ATOM     12  H   UNL     1       0.973   3.367  22.028  0.00  0.00    +0.000 HD
ENDBRANCH   1  10
BRANCH   3  13
ATOM     13  C   UNL     1       1.914   7.756  20.163  0.00  0.00    +0.000 C 
BRANCH  13  14
ATOM     14  C   UNL     1       1.037   7.882  21.378  0.00  0.00    +0.000 C 
ATOM     15  C   UNL     1       1.149   9.116  22.239  0.00  0.00    +0.000 C 
ATOM     16  C   UNL     1      -0.089   8.887  21.419  0.00  0.00    +0.000 C 
ENDBRANCH  13  14
ENDBRANCH   3  13
BRANCH   9  17
ATOM     17  C   UNL     1       4.693   4.766  16.526  0.00  0.00    +0.000 C 
BRANCH  17  18
ATOM     18  C   UNL     1       6.000   5.362  17.043  0.00  0.00    +0.000 C 
ATOM     19  C   UNL     1       5.982   6.888  17.139  0.00  0.00    +0.000 C 
ATOM     20  C   UNL     1       7.408   7.350  17.416  0.00  0.00    +0.000 C 
ATOM     21  C   UNL     1       8.002   6.631  18.628  0.00  0.00    +0.000 C 
ATOM     22  C   UNL     1       7.664   5.139  18.692  0.00  0.00    +0.000 C 
ATOM     23  O   UNL     1       6.301   4.862  18.354  0.00  0.00    +0.000 OA
ENDBRANCH  17  18
ENDBRANCH   9  17
TORSDOF 5
ENDMDL
