MODEL 1
REMARK VINA RESULT:      -7.3      0.000      0.000
REMARK  Name = 
REMARK  7 active torsions:
REMARK  status: ('A' for Active; 'I' for Inactive)
REMARK    1  A    between atoms: C_1  and  O_2
REMARK    2  A    between atoms: O_2  and  C_3
REMARK    3  A    between atoms: C_8  and  O_9
REMARK    4  A    between atoms: O_9  and  C_10
REMARK    5  A    between atoms: C_10  and  C_11
REMARK    6  A    between atoms: N_13  and  C_14
REMARK    7  A    between atoms: C_14  and  C_15
REMARK                            x       y       z     vdW  Elec       q    Type
REMARK                         _______ _______ _______ _____ _____    ______ ____
ROOT
ATOM      1  C   UNL     1       7.038   7.183  17.457  0.00  0.00    +0.000 C 
ATOM      2  C   UNL     1       6.652   6.146  18.530  0.00  0.00    +0.000 C 
ATOM      3  N   UNL     1       5.650   5.161  18.048  0.00  0.00    +0.000 NA
ATOM      4  C   UNL     1       6.196   4.538  16.818  0.00  0.00    +0.000 C 
ATOM      5  C   UNL     1       6.681   5.547  15.759  0.00  0.00    +0.000 C 
ATOM      6  O   UNL     1       7.583   6.517  16.297  0.00  0.00    +0.000 OA
ENDROOT
BRANCH   1   7
ATOM      7  C   UNL     1       8.108   8.156  17.958  0.00  0.00    +0.000 C 
BRANCH   7   8
ATOM      8  O   UNL     1       7.753   9.514  17.713  0.00  0.00    +0.000 OA
BRANCH   8  14
ATOM      9  C   UNL     1       8.621  11.849  17.962  0.00  0.00    +0.000 A 
ATOM     10  C   UNL     1       9.470  12.691  18.697  0.00  0.00    +0.000 A 
ATOM     11  C   UNL     1      10.313  12.173  19.679  0.00  0.00    +0.000 A 
ATOM     12  C   UNL     1      10.288  10.813  19.958  0.00  0.00    +0.000 A 
ATOM     13  C   UNL     1       9.409   9.977  19.270  0.00  0.00    +0.000 A 
ATOM     14  C   UNL     1       8.559  10.482  18.271  0.00  0.00    +0.000 A 
BRANCH   9  16
ATOM     15  C   UNL     1       7.113  13.577  17.385  0.00  0.00    +0.000 C 
ATOM     16  O   UNL     1       7.801  12.385  17.008  0.00  0.00    +0.000 OA
ENDBRANCH   9  16
ENDBRANCH   8  14
ENDBRANCH   7   8
ENDBRANCH   1   7
BRANCH   3  17
ATOM     17  C   UNL     1       4.331   5.764  17.773  0.00  0.00    +0.000 C 
BRANCH  17  18
ATOM     18  C   UNL     1       3.170   5.118  18.499  0.00  0.00    +0.000 A 
ATOM     19  C   UNL     1       2.403   4.124  17.871  0.00  0.00    +0.000 A 
ATOM     20  C   UNL     1       1.351   3.506  18.547  0.00  0.00    +0.000 A 
ATOM     21  C   UNL     1       1.053   3.874  19.857  0.00  0.00    +0.000 A 
ATOM     22  C   UNL     1       1.799   4.868  20.487  0.00  0.00    +0.000 A 
ATOM     23  C   UNL     1       2.852   5.489  19.813  0.00  0.00    +0.000 A 
ENDBRANCH  17  18
ENDBRANCH   3  17
TORSDOF 6
ENDMDL
MODEL 2
REMARK VINA RESULT:      -7.3      4.390      5.288
REMARK  Name = 
REMARK  7 active torsions:
REMARK  status: ('A' for Active; 'I' for Inactive)
REMARK    1  A    between atoms: C_1  and  O_2
REMARK    2  A    between atoms: O_2  and  C_3
REMARK    3  A    between atoms: C_8  and  O_9
REMARK    4  A    between atoms: O_9  and  C_10
REMARK    5  A    between atoms: C_10  and  C_11
REMARK    6  A    between atoms: N_13  and  C_14
REMARK    7  A    between atoms: C_14  and  C_15
REMARK                            x       y       z     vdW  Elec       q    Type
REMARK                         _______ _______ _______ _____ _____    ______ ____
ROOT
ATOM      1  C   UNL     1       4.184   6.290  17.136  0.00  0.00    +0.000 C 
ATOM      2  C   UNL     1       4.912   5.510  18.249  0.00  0.00    +0.000 C 
ATOM      3  N   UNL     1       5.217   4.108  17.867  0.00  0.00    +0.000 NA
ATOM      4  C   UNL     1       5.987   4.151  16.601  0.00  0.00    +0.000 C 
ATOM      5  C   UNL     1       5.336   5.002  15.493  0.00  0.00    +0.000 C 
ATOM      6  O   UNL     1       4.993   6.315  15.940  0.00  0.00    +0.000 OA
ENDROOT
BRANCH   1   7
ATOM      7  C   UNL     1       3.925   7.746  17.531  0.00  0.00    +0.000 C 
BRANCH   7   8
ATOM      8  O   UNL     1       2.534   8.057  17.542  0.00  0.00    +0.000 OA
BRANCH   8  14
ATOM      9  C   UNL     1       1.299   9.498  19.175  0.00  0.00    +0.000 A 
ATOM     10  C   UNL     1       0.726   9.560  20.454  0.00  0.00    +0.000 A 
ATOM     11  C   UNL     1       0.876   8.508  21.354  0.00  0.00    +0.000 A 
ATOM     12  C   UNL     1       1.572   7.370  20.972  0.00  0.00    +0.000 A 
ATOM     13  C   UNL     1       2.100   7.277  19.683  0.00  0.00    +0.000 A 
ATOM     14  C   UNL     1       1.964   8.333  18.766  0.00  0.00    +0.000 A 
BRANCH   9  16
ATOM     15  C   UNL     1       1.164  11.843  18.896  0.00  0.00    +0.000 C 
ATOM     16  O   UNL     1       1.131  10.544  18.309  0.00  0.00    +0.000 OA
ENDBRANCH   9  16
ENDBRANCH   8  14
ENDBRANCH   7   8
ENDBRANCH   1   7
BRANCH   3  17
ATOM     17  C   UNL     1       4.010   3.276  17.703  0.00  0.00    +0.000 C 
BRANCH  17  18
ATOM     18  C   UNL     1       3.084   3.252  18.901  0.00  0.00    +0.000 A 
ATOM     19  C   UNL     1       1.751   3.672  18.777  0.00  0.00    +0.000 A 
ATOM     20  C   UNL     1       0.886   3.625  19.871  0.00  0.00    +0.000 A 
ATOM     21  C   UNL     1       1.344   3.158  21.101  0.00  0.00    +0.000 A 
ATOM     22  C   UNL     1       2.670   2.750  21.241  0.00  0.00    +0.000 A 
ATOM     23  C   UNL     1       3.537   2.798  20.147  0.00  0.00    +0.000 A 
ENDBRANCH  17  18
ENDBRANCH   3  17
TORSDOF 6
ENDMDL
MODEL 3
REMARK VINA RESULT:      -7.2      1.733      2.282
REMARK  Name = 
REMARK  7 active torsions:
REMARK  status: ('A' for Active; 'I' for Inactive)
REMARK    1  A    between atoms: C_1  and  O_2
REMARK    2  A    between atoms: O_2  and  C_3
REMARK    3  A    between atoms: C_8  and  O_9
REMARK    4  A    between atoms: O_9  and  C_10
REMARK    5  A    between atoms: C_10  and  C_11
REMARK    6  A    between atoms: N_13  and  C_14
REMARK    7  A    between atoms: C_14  and  C_15
REMARK                            x       y       z     vdW  Elec       q    Type
REMARK                         _______ _______ _______ _____ _____    ______ ____
ROOT
ATOM      1  C   UNL     1       7.657   7.179  18.272  0.00  0.00    +0.000 C 
ATOM      2  C   UNL     1       7.773   5.847  19.039  0.00  0.00    +0.000 C 
ATOM      3  N   UNL     1       6.736   4.860  18.642  0.00  0.00    +0.000 NA
ATOM      4  C   UNL     1       6.828   4.686  17.173  0.00  0.00    +0.000 C 
ATOM      5  C   UNL     1       6.810   6.006  16.377  0.00  0.00    +0.000 C 
ATOM      6  O   UNL     1       7.776   6.945  16.852  0.00  0.00    +0.000 OA
ENDROOT
BRANCH   1   7
ATOM      7  C   UNL     1       8.765   8.162  18.659  0.00  0.00    +0.000 C 
BRANCH   7   8
ATOM      8  O   UNL     1       8.331   9.516  18.579  0.00  0.00    +0.000 OA
BRANCH   8  14
ATOM      9  C   UNL     1       9.532  11.061  20.141  0.00  0.00    +0.000 A 
ATOM     10  C   UNL     1      10.566  12.000  20.264  0.00  0.00    +0.000 A 
ATOM     11  C   UNL     1      11.273  12.433  19.144  0.00  0.00    +0.000 A 
ATOM     12  C   UNL     1      10.973  11.905  17.895  0.00  0.00    +0.000 A 
ATOM     13  C   UNL     1       9.982  10.931  17.771  0.00  0.00    +0.000 A 
ATOM     14  C   UNL     1       9.255  10.489  18.890  0.00  0.00    +0.000 A 
BRANCH   9  16
ATOM     15  C   UNL     1       8.488  11.681  22.171  0.00  0.00    +0.000 C 
ATOM     16  O   UNL     1       8.859  10.649  21.259  0.00  0.00    +0.000 OA
ENDBRANCH   9  16
ENDBRANCH   8  14
ENDBRANCH   7   8
ENDBRANCH   1   7
BRANCH   3  17
ATOM     17  C   UNL     1       5.371   5.270  19.024  0.00  0.00    +0.000 C 
BRANCH  17  18
ATOM     18  C   UNL     1       4.284   4.276  18.672  0.00  0.00    +0.000 A 
ATOM     19  C   UNL     1       4.301   2.982  19.215  0.00  0.00    +0.000 A 
ATOM     20  C   UNL     1       3.286   2.072  18.916  0.00  0.00    +0.000 A 
ATOM     21  C   UNL     1       2.244   2.445  18.071  0.00  0.00    +0.000 A 
ATOM     22  C   UNL     1       2.222   3.723  17.515  0.00  0.00    +0.000 A 
ATOM     23  C   UNL     1       3.237   4.634  17.812  0.00  0.00    +0.000 A 
ENDBRANCH  17  18
ENDBRANCH   3  17
TORSDOF 6
ENDMDL
MODEL 4
REMARK VINA RESULT:      -7.2      1.725      2.243
REMARK  Name = 
REMARK  7 active torsions:
REMARK  status: ('A' for Active; 'I' for Inactive)
REMARK    1  A    between atoms: C_1  and  O_2
REMARK    2  A    between atoms: O_2  and  C_3
REMARK    3  A    between atoms: C_8  and  O_9
REMARK    4  A    between atoms: O_9  and  C_10
REMARK    5  A    between atoms: C_10  and  C_11
REMARK    6  A    between atoms: N_13  and  C_14
REMARK    7  A    between atoms: C_14  and  C_15
REMARK                            x       y       z     vdW  Elec       q    Type
REMARK                         _______ _______ _______ _____ _____    ______ ____
ROOT
ATOM      1  C   UNL     1       7.649   7.177  18.252  0.00  0.00    +0.000 C 
ATOM      2  C   UNL     1       7.746   5.855  19.038  0.00  0.00    +0.000 C 
ATOM      3  N   UNL     1       6.706   4.870  18.646  0.00  0.00    +0.000 NA
ATOM      4  C   UNL     1       6.811   4.673  17.181  0.00  0.00    +0.000 C 
ATOM      5  C   UNL     1       6.812   5.981  16.365  0.00  0.00    +0.000 C 
ATOM      6  O   UNL     1       7.780   6.921  16.836  0.00  0.00    +0.000 OA
ENDROOT
BRANCH   1   7
ATOM      7  C   UNL     1       8.760   8.156  18.635  0.00  0.00    +0.000 C 
BRANCH   7   8
ATOM      8  O   UNL     1       8.319   9.510  18.592  0.00  0.00    +0.000 OA
BRANCH   8  14
ATOM      9  C   UNL     1       9.537  11.050  20.145  0.00  0.00    +0.000 A 
ATOM     10  C   UNL     1      10.573  11.988  20.260  0.00  0.00    +0.000 A 
ATOM     11  C   UNL     1      11.270  12.422  19.134  0.00  0.00    +0.000 A 
ATOM     12  C   UNL     1      10.957  11.897  17.887  0.00  0.00    +0.000 A 
ATOM     13  C   UNL     1       9.964  10.924  17.771  0.00  0.00    +0.000 A 
ATOM     14  C   UNL     1       9.247  10.481  18.896  0.00  0.00    +0.000 A 
BRANCH   9  16
ATOM     15  C   UNL     1       8.452  11.674  22.153  0.00  0.00    +0.000 C 
ATOM     16  O   UNL     1       8.874  10.636  21.268  0.00  0.00    +0.000 OA
ENDBRANCH   9  16
ENDBRANCH   8  14
ENDBRANCH   7   8
ENDBRANCH   1   7
BRANCH   3  17
ATOM     17  C   UNL     1       5.340   5.296  19.009  0.00  0.00    +0.000 C 
BRANCH  17  18
ATOM     18  C   UNL     1       4.252   4.294  18.684  0.00  0.00    +0.000 A 
ATOM     19  C   UNL     1       3.187   4.649  17.842  0.00  0.00    +0.000 A 
ATOM     20  C   UNL     1       2.198   3.720  17.517  0.00  0.00    +0.000 A 
ATOM     21  C   UNL     1       2.262   2.427  18.032  0.00  0.00    +0.000 A 
ATOM     22  C   UNL     1       3.308   2.065  18.880  0.00  0.00    +0.000 A 
ATOM     23  C   UNL     1       4.298   2.994  19.207  0.00  0.00    +0.000 A 
ENDBRANCH  17  18
ENDBRANCH   3  17
TORSDOF 6
ENDMDL
MODEL 5
REMARK VINA RESULT:      -7.2      4.569      5.975
REMARK  Name = 
REMARK  7 active torsions:
REMARK  status: ('A' for Active; 'I' for Inactive)
REMARK    1  A    between atoms: C_1  and  O_2
REMARK    2  A    between atoms: O_2  and  C_3
REMARK    3  A    between atoms: C_8  and  O_9
REMARK    4  A    between atoms: O_9  and  C_10
REMARK    5  A    between atoms: C_10  and  C_11
REMARK    6  A    between atoms: N_13  and  C_14
REMARK    7  A    between atoms: C_14  and  C_15
REMARK                            x       y       z     vdW  Elec       q    Type
REMARK                         _______ _______ _______ _____ _____    ______ ____
ROOT
ATOM      1  C   UNL     1       3.840   6.406  17.551  0.00  0.00    +0.000 C 
ATOM      2  C   UNL     1       4.589   5.728  18.714  0.00  0.00    +0.000 C 
ATOM      3  N   UNL     1       5.147   4.401  18.347  0.00  0.00    +0.000 NA
ATOM      4  C   UNL     1       6.002   4.595  17.151  0.00  0.00    +0.000 C 
ATOM      5  C   UNL     1       5.315   5.356  15.999  0.00  0.00    +0.000 C 
ATOM      6  O   UNL     1       4.729   6.587  16.427  0.00  0.00    +0.000 OA
ENDROOT
BRANCH   1   7
ATOM      7  C   UNL     1       3.317   7.792  17.935  0.00  0.00    +0.000 C 
BRANCH   7   8
ATOM      8  O   UNL     1       2.540   7.759  19.129  0.00  0.00    +0.000 OA
BRANCH   8  14
ATOM      9  C   UNL     1       0.912   9.179  20.394  0.00  0.00    +0.000 A 
ATOM     10  C   UNL     1      -0.087  10.159  20.289  0.00  0.00    +0.000 A 
ATOM     11  C   UNL     1      -0.548  10.577  19.042  0.00  0.00    +0.000 A 
ATOM     12  C   UNL     1       0.010  10.043  17.888  0.00  0.00    +0.000 A 
ATOM     13  C   UNL     1       1.041   9.107  17.982  0.00  0.00    +0.000 A 
ATOM     14  C   UNL     1       1.512   8.670  19.232  0.00  0.00    +0.000 A 
BRANCH   9  16
ATOM     15  C   UNL     1       0.577   9.261  22.733  0.00  0.00    +0.000 C 
ATOM     16  O   UNL     1       1.350   8.793  21.630  0.00  0.00    +0.000 OA
ENDBRANCH   9  16
ENDBRANCH   8  14
ENDBRANCH   7   8
ENDBRANCH   1   7
BRANCH   3  17
ATOM     17  C   UNL     1       4.107   3.391  18.074  0.00  0.00    +0.000 C 
BRANCH  17  18
ATOM     18  C   UNL     1       3.097   3.198  19.185  0.00  0.00    +0.000 A 
ATOM     19  C   UNL     1       3.500   2.695  20.432  0.00  0.00    +0.000 A 
ATOM     20  C   UNL     1       2.579   2.544  21.469  0.00  0.00    +0.000 A 
ATOM     21  C   UNL     1       1.245   2.891  21.270  0.00  0.00    +0.000 A 
ATOM     22  C   UNL     1       0.829   3.379  20.032  0.00  0.00    +0.000 A 
ATOM     23  C   UNL     1       1.749   3.531  18.993  0.00  0.00    +0.000 A 
ENDBRANCH  17  18
ENDBRANCH   3  17
TORSDOF 6
ENDMDL
MODEL 6
REMARK VINA RESULT:      -7.2      4.310      5.307
REMARK  Name = 
REMARK  7 active torsions:
REMARK  status: ('A' for Active; 'I' for Inactive)
REMARK    1  A    between atoms: C_1  and  O_2
REMARK    2  A    between atoms: O_2  and  C_3
REMARK    3  A    between atoms: C_8  and  O_9
REMARK    4  A    between atoms: O_9  and  C_10
REMARK    5  A    between atoms: C_10  and  C_11
REMARK    6  A    between atoms: N_13  and  C_14
REMARK    7  A    between atoms: C_14  and  C_15
REMARK                            x       y       z     vdW  Elec       q    Type
REMARK                         _______ _______ _______ _____ _____    ______ ____
ROOT
ATOM      1  C   UNL     1       4.332   6.395  17.001  0.00  0.00    +0.000 C 
ATOM      2  C   UNL     1       5.036   5.581  18.105  0.00  0.00    +0.000 C 
ATOM      3  N   UNL     1       5.387   4.204  17.672  0.00  0.00    +0.000 NA
ATOM      4  C   UNL     1       6.201   4.321  16.438  0.00  0.00    +0.000 C 
ATOM      5  C   UNL     1       5.571   5.207  15.346  0.00  0.00    +0.000 C 
ATOM      6  O   UNL     1       5.182   6.491  15.838  0.00  0.00    +0.000 OA
ENDROOT
BRANCH   1   7
ATOM      7  C   UNL     1       4.025   7.825  17.451  0.00  0.00    +0.000 C 
BRANCH   7   8
ATOM      8  O   UNL     1       2.626   8.097  17.455  0.00  0.00    +0.000 OA
BRANCH   8  14
ATOM      9  C   UNL     1       1.328   9.428  19.132  0.00  0.00    +0.000 A 
ATOM     10  C   UNL     1       0.736   9.416  20.404  0.00  0.00    +0.000 A 
ATOM     11  C   UNL     1       0.903   8.329  21.258  0.00  0.00    +0.000 A 
ATOM     12  C   UNL     1       1.637   7.229  20.836  0.00  0.00    +0.000 A 
ATOM     13  C   UNL     1       2.185   7.209  19.552  0.00  0.00    +0.000 A 
ATOM     14  C   UNL     1       2.032   8.301  18.681  0.00  0.00    +0.000 A 
BRANCH   9  16
ATOM     15  C   UNL     1       0.833  11.735  18.967  0.00  0.00    +0.000 C 
ATOM     16  O   UNL     1       1.142  10.506  18.311  0.00  0.00    +0.000 OA
ENDBRANCH   9  16
ENDBRANCH   8  14
ENDBRANCH   7   8
ENDBRANCH   1   7
BRANCH   3  17
ATOM     17  C   UNL     1       4.205   3.355  17.426  0.00  0.00    +0.000 C 
BRANCH  17  18
ATOM     18  C   UNL     1       3.223   3.280  18.577  0.00  0.00    +0.000 A 
ATOM     19  C   UNL     1       3.644   2.847  19.843  0.00  0.00    +0.000 A 
ATOM     20  C   UNL     1       2.750   2.804  20.913  0.00  0.00    +0.000 A 
ATOM     21  C   UNL     1       1.425   3.192  20.729  0.00  0.00    +0.000 A 
ATOM     22  C   UNL     1       0.991   3.612  19.472  0.00  0.00    +0.000 A 
ATOM     23  C   UNL     1       1.884   3.655  18.400  0.00  0.00    +0.000 A 
ENDBRANCH  17  18
ENDBRANCH   3  17
TORSDOF 6
ENDMDL
MODEL 7
REMARK VINA RESULT:      -7.1      4.079      8.291
REMARK  Name = 
REMARK  7 active torsions:
REMARK  status: ('A' for Active; 'I' for Inactive)
REMARK    1  A    between atoms: C_1  and  O_2
REMARK    2  A    between atoms: O_2  and  C_3
REMARK    3  A    between atoms: C_8  and  O_9
REMARK    4  A    between atoms: O_9  and  C_10
REMARK    5  A    between atoms: C_10  and  C_11
REMARK    6  A    between atoms: N_13  and  C_14
REMARK    7  A    between atoms: C_14  and  C_15
REMARK                            x       y       z     vdW  Elec       q    Type
REMARK                         _______ _______ _______ _____ _____    ______ ____
ROOT
ATOM      1  C   UNL     1       5.326   5.914  18.154  0.00  0.00    +0.000 C 
ATOM      2  C   UNL     1       5.400   4.591  17.366  0.00  0.00    +0.000 C 
ATOM      3  N   UNL     1       6.712   4.386  16.702  0.00  0.00    +0.000 NA
ATOM      4  C   UNL     1       7.760   4.490  17.746  0.00  0.00    +0.000 C 
ATOM      5  C   UNL     1       7.660   5.757  18.618  0.00  0.00    +0.000 C 
ATOM      6  O   UNL     1       6.354   5.944  19.168  0.00  0.00    +0.000 OA
ENDROOT
BRANCH   1   7
ATOM      7  C   UNL     1       3.985   6.081  18.871  0.00  0.00    +0.000 C 
BRANCH   7   8
ATOM      8  O   UNL     1       3.787   5.087  19.873  0.00  0.00    +0.000 OA
BRANCH   8  14
ATOM      9  C   UNL     1       2.750   2.830  20.185  0.00  0.00    +0.000 A 
ATOM     10  C   UNL     1       1.690   1.988  19.818  0.00  0.00    +0.000 A 
ATOM     11  C   UNL     1       0.790   2.367  18.824  0.00  0.00    +0.000 A 
ATOM     12  C   UNL     1       0.922   3.607  18.213  0.00  0.00    +0.000 A 
ATOM     13  C   UNL     1       1.942   4.473  18.609  0.00  0.00    +0.000 A 
ATOM     14  C   UNL     1       2.863   4.102  19.604  0.00  0.00    +0.000 A 
BRANCH   9  16
ATOM     15  C   UNL     1       4.817   1.811  20.718  0.00  0.00    +0.000 C 
ATOM     16  O   UNL     1       3.616   2.435  21.168  0.00  0.00    +0.000 OA
ENDBRANCH   9  16
ENDBRANCH   8  14
ENDBRANCH   7   8
ENDBRANCH   1   7
BRANCH   3  17
ATOM     17  C   UNL     1       6.971   5.355  15.620  0.00  0.00    +0.000 C 
BRANCH  17  18
ATOM     18  C   UNL     1       6.842   4.797  14.218  0.00  0.00    +0.000 A 
ATOM     19  C   UNL     1       7.701   5.234  13.198  0.00  0.00    +0.000 A 
ATOM     20  C   UNL     1       7.604   4.701  11.912  0.00  0.00    +0.000 A 
ATOM     21  C   UNL     1       6.648   3.728  11.632  0.00  0.00    +0.000 A 
ATOM     22  C   UNL     1       5.780   3.295  12.633  0.00  0.00    +0.000 A 
ATOM     23  C   UNL     1       5.875   3.828  13.921  0.00  0.00    +0.000 A 
ENDBRANCH  17  18
ENDBRANCH   3  17
TORSDOF 6
ENDMDL
MODEL 8
REMARK VINA RESULT:      -7.1      4.576      6.941
REMARK  Name = 
REMARK  7 active torsions:
REMARK  status: ('A' for Active; 'I' for Inactive)
REMARK    1  A    between atoms: C_1  and  O_2
REMARK    2  A    between atoms: O_2  and  C_3
REMARK    3  A    between atoms: C_8  and  O_9
REMARK    4  A    between atoms: O_9  and  C_10
REMARK    5  A    between atoms: C_10  and  C_11
REMARK    6  A    between atoms: N_13  and  C_14
REMARK    7  A    between atoms: C_14  and  C_15
REMARK                            x       y       z     vdW  Elec       q    Type
REMARK                         _______ _______ _______ _____ _____    ______ ____
ROOT
ATOM      1  C   UNL     1       2.233   4.464  19.860  0.00  0.00    +0.000 C 
ATOM      2  C   UNL     1       2.239   4.585  18.323  0.00  0.00    +0.000 C 
ATOM      3  N   UNL     1       2.676   3.336  17.647  0.00  0.00    +0.000 NA
ATOM      4  C   UNL     1       1.804   2.240  18.132  0.00  0.00    +0.000 C 
ATOM      5  C   UNL     1       1.699   2.148  19.667  0.00  0.00    +0.000 C 
ATOM      6  O   UNL     1       1.351   3.396  20.269  0.00  0.00    +0.000 OA
ENDROOT
BRANCH   1   7
ATOM      7  C   UNL     1       1.732   5.743  20.534  0.00  0.00    +0.000 C 
BRANCH   7   8
ATOM      8  O   UNL     1       2.536   6.872  20.204  0.00  0.00    +0.000 OA
BRANCH   8  14
ATOM      9  C   UNL     1       1.006   8.831  20.503  0.00  0.00    +0.000 A 
ATOM     10  C   UNL     1       0.484   9.988  19.904  0.00  0.00    +0.000 A 
ATOM     11  C   UNL     1       0.759  10.287  18.572  0.00  0.00    +0.000 A 
ATOM     12  C   UNL     1       1.587   9.450  17.836  0.00  0.00    +0.000 A 
ATOM     13  C   UNL     1       2.153   8.326  18.438  0.00  0.00    +0.000 A 
ATOM     14  C   UNL     1       1.879   8.005  19.779  0.00  0.00    +0.000 A 
BRANCH   9  16
ATOM     15  C   UNL     1       0.238   9.668  22.578  0.00  0.00    +0.000 C 
ATOM     16  O   UNL     1       0.724   8.565  21.815  0.00  0.00    +0.000 OA
ENDBRANCH   9  16
ENDBRANCH   8  14
ENDBRANCH   7   8
ENDBRANCH   1   7
BRANCH   3  17
ATOM     17  C   UNL     1       4.094   3.010  17.894  0.00  0.00    +0.000 C 
BRANCH  17  18
ATOM     18  C   UNL     1       5.081   4.063  17.436  0.00  0.00    +0.000 A 
ATOM     19  C   UNL     1       5.931   4.690  18.360  0.00  0.00    +0.000 A 
ATOM     20  C   UNL     1       6.862   5.639  17.939  0.00  0.00    +0.000 A 
ATOM     21  C   UNL     1       6.952   5.974  16.590  0.00  0.00    +0.000 A 
ATOM     22  C   UNL     1       6.105   5.368  15.663  0.00  0.00    +0.000 A 
ATOM     23  C   UNL     1       5.172   4.418  16.083  0.00  0.00    +0.000 A 
ENDBRANCH  17  18
ENDBRANCH   3  17
TORSDOF 6
ENDMDL
MODEL 9
REMARK VINA RESULT:      -7.0      4.558      5.644
REMARK  Name = 
REMARK  7 active torsions:
REMARK  status: ('A' for Active; 'I' for Inactive)
REMARK    1  A    between atoms: C_1  and  O_2
REMARK    2  A    between atoms: O_2  and  C_3
REMARK    3  A    between atoms: C_8  and  O_9
REMARK    4  A    between atoms: O_9  and  C_10
REMARK    5  A    between atoms: C_10  and  C_11
REMARK    6  A    between atoms: N_13  and  C_14
REMARK    7  A    between atoms: C_14  and  C_15
REMARK                            x       y       z     vdW  Elec       q    Type
REMARK                         _______ _______ _______ _____ _____    ______ ____
ROOT
ATOM      1  C   UNL     1       3.882   6.284  17.393  0.00  0.00    +0.000 C 
ATOM      2  C   UNL     1       4.610   5.680  18.610  0.00  0.00    +0.000 C 
ATOM      3  N   UNL     1       5.182   4.337  18.334  0.00  0.00    +0.000 NA
ATOM      4  C   UNL     1       6.060   4.464  17.145  0.00  0.00    +0.000 C 
ATOM      5  C   UNL     1       5.393   5.150  15.937  0.00  0.00    +0.000 C 
ATOM      6  O   UNL     1       4.793   6.401  16.278  0.00  0.00    +0.000 OA
ENDROOT
BRANCH   1   7
ATOM      7  C   UNL     1       3.346   7.687  17.683  0.00  0.00    +0.000 C 
BRANCH   7   8
ATOM      8  O   UNL     1       2.343   7.678  18.695  0.00  0.00    +0.000 OA
BRANCH   8  14
ATOM      9  C   UNL     1       0.983   9.207  20.138  0.00  0.00    +0.000 A 
ATOM     10  C   UNL     1       0.548  10.528  20.328  0.00  0.00    +0.000 A 
ATOM     11  C   UNL     1       0.825  11.513  19.384  0.00  0.00    +0.000 A 
ATOM     12  C   UNL     1       1.569  11.195  18.255  0.00  0.00    +0.000 A 
ATOM     13  C   UNL     1       2.051   9.897  18.083  0.00  0.00    +0.000 A 
ATOM     14  C   UNL     1       1.774   8.889  19.023  0.00  0.00    +0.000 A 
BRANCH   9  16
ATOM     15  C   UNL     1      -0.349   8.589  21.992  0.00  0.00    +0.000 C 
ATOM     16  O   UNL     1       0.702   8.261  21.085  0.00  0.00    +0.000 OA
ENDBRANCH   9  16
ENDBRANCH   8  14
ENDBRANCH   7   8
ENDBRANCH   1   7
BRANCH   3  17
ATOM     17  C   UNL     1       4.152   3.306  18.101  0.00  0.00    +0.000 C 
BRANCH  17  18
ATOM     18  C   UNL     1       3.124   3.171  19.205  0.00  0.00    +0.000 A 
ATOM     19  C   UNL     1       1.778   3.490  18.966  0.00  0.00    +0.000 A 
ATOM     20  C   UNL     1       0.822   3.339  19.971  0.00  0.00    +0.000 A 
ATOM     21  C   UNL     1       1.201   2.869  21.226  0.00  0.00    +0.000 A 
ATOM     22  C   UNL     1       2.537   2.561  21.481  0.00  0.00    +0.000 A 
ATOM     23  C   UNL     1       3.495   2.712  20.476  0.00  0.00    +0.000 A 
ENDBRANCH  17  18
ENDBRANCH   3  17
TORSDOF 6
ENDMDL
