MODEL 1
REMARK VINA RESULT:      -7.5      0.000      0.000
REMARK  Name = 
REMARK  1 active torsions:
REMARK  status: ('A' for Active; 'I' for Inactive)
REMARK    1  A    between atoms: C_9  and  C_10
REMARK                            x       y       z     vdW  Elec       q    Type
REMARK                         _______ _______ _______ _____ _____    ______ ____
ROOT
ATOM      1  C   UNL     1       4.702   5.551  17.856  0.00  0.00    +0.000 A 
ATOM      2  C   UNL     1       4.541   6.797  17.214  0.00  0.00    +0.000 A 
ATOM      3  C   UNL     1       3.484   7.645  17.532  0.00  0.00    +0.000 A 
ATOM      4  C   UNL     1       2.564   7.266  18.498  0.00  0.00    +0.000 A 
ATOM      5  C   UNL     1       2.683   6.040  19.164  0.00  0.00    +0.000 A 
ATOM      6  C   UNL     1       1.742   5.701  20.147  0.00  0.00    +0.000 A 
ATOM      7  C   UNL     1       1.831   4.501  20.847  0.00  0.00    +0.000 A 
ATOM      8  C   UNL     1       2.860   3.618  20.559  0.00  0.00    +0.000 A 
ATOM      9  C   UNL     1       3.800   3.938  19.572  0.00  0.00    +0.000 A 
ATOM     10  C   UNL     1       3.753   5.155  18.851  0.00  0.00    +0.000 A 
ENDROOT
BRANCH   1  19
ATOM     11  O   UNL     1       7.860   5.995  17.773  0.00  0.00    +0.000 OA
ATOM     12  C   UNL     1       7.094   5.441  16.988  0.00  0.00    +0.000 C 
ATOM     13  O   UNL     1       7.274   5.554  15.641  0.00  0.00    +0.000 OA
ATOM     14  C   UNL     1       6.541   4.856  14.643  0.00  0.00    +0.000 C 
ATOM     15  C   UNL     1       6.973   4.881  13.376  0.00  0.00    +0.000 C 
ATOM     16 BR   UNL     1       8.451   5.823  12.760  0.00  0.00    +0.000 Br
ATOM     17  C   UNL     1       5.336   4.072  15.065  0.00  0.00    +0.000 C 
ATOM     18  C   UNL     1       5.506   3.547  16.479  0.00  0.00    +0.000 C 
ATOM     19  C   UNL     1       5.883   4.658  17.460  0.00  0.00    +0.000 C 
ENDBRANCH   1  19
TORSDOF 1
ENDMDL
MODEL 2
REMARK VINA RESULT:      -7.1      1.360      1.406
REMARK  Name = 
REMARK  1 active torsions:
REMARK  status: ('A' for Active; 'I' for Inactive)
REMARK    1  A    between atoms: C_9  and  C_10
REMARK                            x       y       z     vdW  Elec       q    Type
REMARK                         _______ _______ _______ _____ _____    ______ ____
ROOT
ATOM      1  C   UNL     1       4.744   4.736  17.131  0.00  0.00    +0.000 A 
ATOM      2  C   UNL     1       4.853   6.143  17.075  0.00  0.00    +0.000 A 
ATOM      3  C   UNL     1       3.842   6.968  17.555  0.00  0.00    +0.000 A 
ATOM      4  C   UNL     1       2.696   6.407  18.101  0.00  0.00    +0.000 A 
ATOM      5  C   UNL     1       2.543   5.018  18.180  0.00  0.00    +0.000 A 
ATOM      6  C   UNL     1       1.378   4.490  18.756  0.00  0.00    +0.000 A 
ATOM      7  C   UNL     1       1.190   3.115  18.872  0.00  0.00    +0.000 A 
ATOM      8  C   UNL     1       2.165   2.251  18.399  0.00  0.00    +0.000 A 
ATOM      9  C   UNL     1       3.328   2.764  17.811  0.00  0.00    +0.000 A 
ATOM     10  C   UNL     1       3.564   4.154  17.690  0.00  0.00    +0.000 A 
ENDROOT
BRANCH   1  19
ATOM     11  O   UNL     1       7.914   4.818  17.486  0.00  0.00    +0.000 OA
ATOM     12  C   UNL     1       7.209   4.625  16.498  0.00  0.00    +0.000 C 
ATOM     13  O   UNL     1       7.563   5.126  15.280  0.00  0.00    +0.000 OA
ATOM     14  C   UNL     1       6.906   4.858  14.048  0.00  0.00    +0.000 C 
ATOM     15  C   UNL     1       7.493   5.223  12.901  0.00  0.00    +0.000 C 
ATOM     16 BR   UNL     1       9.106   6.132  12.758  0.00  0.00    +0.000 Br
ATOM     17  C   UNL     1       5.599   4.126  14.085  0.00  0.00    +0.000 C 
ATOM     18  C   UNL     1       5.550   3.175  15.267  0.00  0.00    +0.000 C 
ATOM     19  C   UNL     1       5.890   3.880  16.581  0.00  0.00    +0.000 C 
ENDBRANCH   1  19
TORSDOF 1
ENDMDL
MODEL 3
REMARK VINA RESULT:      -6.9      2.532      3.195
REMARK  Name = 
REMARK  1 active torsions:
REMARK  status: ('A' for Active; 'I' for Inactive)
REMARK    1  A    between atoms: C_9  and  C_10
REMARK                            x       y       z     vdW  Elec       q    Type
REMARK                         _______ _______ _______ _____ _____    ______ ____
ROOT
ATOM      1  C   UNL     1       4.620   5.165  17.968  0.00  0.00    +0.000 A 
ATOM      2  C   UNL     1       4.014   6.439  17.926  0.00  0.00    +0.000 A 
ATOM      3  C   UNL     1       2.636   6.590  18.041  0.00  0.00    +0.000 A 
ATOM      4  C   UNL     1       1.831   5.472  18.200  0.00  0.00    +0.000 A 
ATOM      5  C   UNL     1       2.386   4.187  18.250  0.00  0.00    +0.000 A 
ATOM      6  C   UNL     1       1.541   3.083  18.431  0.00  0.00    +0.000 A 
ATOM      7  C   UNL     1       2.050   1.789  18.504  0.00  0.00    +0.000 A 
ATOM      8  C   UNL     1       3.416   1.586  18.384  0.00  0.00    +0.000 A 
ATOM      9  C   UNL     1       4.271   2.678  18.191  0.00  0.00    +0.000 A 
ATOM     10  C   UNL     1       3.794   4.009  18.129  0.00  0.00    +0.000 A 
ENDROOT
BRANCH   1  19
ATOM     11  O   UNL     1       7.016   5.091  20.073  0.00  0.00    +0.000 OA
ATOM     12  C   UNL     1       6.893   5.675  18.998  0.00  0.00    +0.000 C 
ATOM     13  O   UNL     1       7.387   6.934  18.828  0.00  0.00    +0.000 OA
ATOM     14  C   UNL     1       7.425   7.653  17.601  0.00  0.00    +0.000 C 
ATOM     15  C   UNL     1       8.144   8.780  17.526  0.00  0.00    +0.000 C 
ATOM     16 BR   UNL     1       9.078   9.558  18.931  0.00  0.00    +0.000 Br
ATOM     17  C   UNL     1       6.696   7.085  16.423  0.00  0.00    +0.000 C 
ATOM     18  C   UNL     1       6.671   5.568  16.487  0.00  0.00    +0.000 C 
ATOM     19  C   UNL     1       6.143   5.062  17.831  0.00  0.00    +0.000 C 
ENDBRANCH   1  19
TORSDOF 1
ENDMDL
MODEL 4
REMARK VINA RESULT:      -6.8      3.552      6.217
REMARK  Name = 
REMARK  1 active torsions:
REMARK  status: ('A' for Active; 'I' for Inactive)
REMARK    1  A    between atoms: C_9  and  C_10
REMARK                            x       y       z     vdW  Elec       q    Type
REMARK                         _______ _______ _______ _____ _____    ______ ____
ROOT
ATOM      1  C   UNL     1       4.482   5.626  17.972  0.00  0.00    +0.000 A 
ATOM      2  C   UNL     1       5.093   5.707  19.241  0.00  0.00    +0.000 A 
ATOM      3  C   UNL     1       6.440   5.407  19.418  0.00  0.00    +0.000 A 
ATOM      4  C   UNL     1       7.208   5.020  18.329  0.00  0.00    +0.000 A 
ATOM      5  C   UNL     1       6.647   4.928  17.050  0.00  0.00    +0.000 A 
ATOM      6  C   UNL     1       7.461   4.550  15.972  0.00  0.00    +0.000 A 
ATOM      7  C   UNL     1       6.950   4.463  14.679  0.00  0.00    +0.000 A 
ATOM      8  C   UNL     1       5.612   4.740  14.454  0.00  0.00    +0.000 A 
ATOM      9  C   UNL     1       4.784   5.107  15.523  0.00  0.00    +0.000 A 
ATOM     10  C   UNL     1       5.269   5.224  16.847  0.00  0.00    +0.000 A 
ENDROOT
BRANCH   1  19
ATOM     11  O   UNL     1       2.892   8.253  17.107  0.00  0.00    +0.000 OA
ATOM     12  C   UNL     1       2.696   7.442  18.009  0.00  0.00    +0.000 C 
ATOM     13  O   UNL     1       2.248   7.851  19.231  0.00  0.00    +0.000 OA
ATOM     14  C   UNL     1       1.860   6.999  20.301  0.00  0.00    +0.000 C 
ATOM     15  C   UNL     1       1.222   7.524  21.355  0.00  0.00    +0.000 C 
ATOM     16 BR   UNL     1       0.837   9.326  21.594  0.00  0.00    +0.000 Br
ATOM     17  C   UNL     1       2.136   5.533  20.178  0.00  0.00    +0.000 C 
ATOM     18  C   UNL     1       2.091   5.098  18.724  0.00  0.00    +0.000 C 
ATOM     19  C   UNL     1       2.992   5.964  17.842  0.00  0.00    +0.000 C 
ENDBRANCH   1  19
TORSDOF 1
ENDMDL
MODEL 5
REMARK VINA RESULT:      -6.6      3.775      5.165
REMARK  Name = 
REMARK  1 active torsions:
REMARK  status: ('A' for Active; 'I' for Inactive)
REMARK    1  A    between atoms: C_9  and  C_10
REMARK                            x       y       z     vdW  Elec       q    Type
REMARK                         _______ _______ _______ _____ _____    ______ ____
ROOT
ATOM      1  C   UNL     1       2.279   7.242  19.607  0.00  0.00    +0.000 A 
ATOM      2  C   UNL     1       2.594   7.322  18.233  0.00  0.00    +0.000 A 
ATOM      3  C   UNL     1       2.154   8.383  17.449  0.00  0.00    +0.000 A 
ATOM      4  C   UNL     1       1.389   9.390  18.019  0.00  0.00    +0.000 A 
ATOM      5  C   UNL     1       1.053   9.356  19.378  0.00  0.00    +0.000 A 
ATOM      6  C   UNL     1       0.293  10.403  19.921  0.00  0.00    +0.000 A 
ATOM      7  C   UNL     1      -0.050  10.420  21.271  0.00  0.00    +0.000 A 
ATOM      8  C   UNL     1       0.356   9.379  22.091  0.00  0.00    +0.000 A 
ATOM      9  C   UNL     1       1.105   8.322  21.560  0.00  0.00    +0.000 A 
ATOM     10  C   UNL     1       1.488   8.277  20.198  0.00  0.00    +0.000 A 
ENDROOT
BRANCH   1  19
ATOM     11  O   UNL     1       5.079   5.719  19.754  0.00  0.00    +0.000 OA
ATOM     12  C   UNL     1       3.923   5.301  19.739  0.00  0.00    +0.000 C 
ATOM     13  O   UNL     1       3.601   4.164  19.059  0.00  0.00    +0.000 OA
ATOM     14  C   UNL     1       2.338   3.513  19.080  0.00  0.00    +0.000 C 
ATOM     15  C   UNL     1       2.226   2.285  18.558  0.00  0.00    +0.000 C 
ATOM     16 BR   UNL     1       3.591   1.340  17.725  0.00  0.00    +0.000 Br
ATOM     17  C   UNL     1       1.189   4.214  19.738  0.00  0.00    +0.000 C 
ATOM     18  C   UNL     1       1.677   5.098  20.871  0.00  0.00    +0.000 C 
ATOM     19  C   UNL     1       2.789   6.045  20.417  0.00  0.00    +0.000 C 
ENDBRANCH   1  19
TORSDOF 1
ENDMDL
MODEL 6
REMARK VINA RESULT:      -6.6      3.657      6.106
REMARK  Name = 
REMARK  1 active torsions:
REMARK  status: ('A' for Active; 'I' for Inactive)
REMARK    1  A    between atoms: C_9  and  C_10
REMARK                            x       y       z     vdW  Elec       q    Type
REMARK                         _______ _______ _______ _____ _____    ______ ____
ROOT
ATOM      1  C   UNL     1       4.761   5.079  17.566  0.00  0.00    +0.000 A 
ATOM      2  C   UNL     1       5.462   5.438  18.737  0.00  0.00    +0.000 A 
ATOM      3  C   UNL     1       6.839   5.632  18.726  0.00  0.00    +0.000 A 
ATOM      4  C   UNL     1       7.548   5.471  17.545  0.00  0.00    +0.000 A 
ATOM      5  C   UNL     1       6.897   5.118  16.357  0.00  0.00    +0.000 A 
ATOM      6  C   UNL     1       7.647   4.983  15.179  0.00  0.00    +0.000 A 
ATOM      7  C   UNL     1       7.038   4.651  13.972  0.00  0.00    +0.000 A 
ATOM      8  C   UNL     1       5.670   4.437  13.933  0.00  0.00    +0.000 A 
ATOM      9  C   UNL     1       4.910   4.557  15.103  0.00  0.00    +0.000 A 
ATOM     10  C   UNL     1       5.488   4.910  16.346  0.00  0.00    +0.000 A 
ENDROOT
BRANCH   1  19
ATOM     11  O   UNL     1       2.437   6.474  19.249  0.00  0.00    +0.000 OA
ATOM     12  C   UNL     1       2.648   5.295  18.971  0.00  0.00    +0.000 C 
ATOM     13  O   UNL     1       2.400   4.309  19.880  0.00  0.00    +0.000 OA
ATOM     14  C   UNL     1       2.475   2.912  19.631  0.00  0.00    +0.000 C 
ATOM     15  C   UNL     1       1.983   2.058  20.538  0.00  0.00    +0.000 C 
ATOM     16 BR   UNL     1       1.243   2.534  22.174  0.00  0.00    +0.000 Br
ATOM     17  C   UNL     1       3.059   2.453  18.330  0.00  0.00    +0.000 C 
ATOM     18  C   UNL     1       2.796   3.470  17.235  0.00  0.00    +0.000 C 
ATOM     19  C   UNL     1       3.243   4.875  17.641  0.00  0.00    +0.000 C 
ENDBRANCH   1  19
TORSDOF 1
ENDMDL
MODEL 7
REMARK VINA RESULT:      -6.3      7.011      9.265
REMARK  Name = 
REMARK  1 active torsions:
REMARK  status: ('A' for Active; 'I' for Inactive)
REMARK    1  A    between atoms: C_9  and  C_10
REMARK                            x       y       z     vdW  Elec       q    Type
REMARK                         _______ _______ _______ _____ _____    ______ ____
ROOT
ATOM      1  C   UNL     1      -0.158  10.165  19.400  0.00  0.00    +0.000 A 
ATOM      2  C   UNL     1      -0.645  10.230  20.723  0.00  0.00    +0.000 A 
ATOM      3  C   UNL     1      -0.158   9.387  21.717  0.00  0.00    +0.000 A 
ATOM      4  C   UNL     1       0.827   8.459  21.412  0.00  0.00    +0.000 A 
ATOM      5  C   UNL     1       1.343   8.359  20.115  0.00  0.00    +0.000 A 
ATOM      6  C   UNL     1       2.352   7.421  19.851  0.00  0.00    +0.000 A 
ATOM      7  C   UNL     1       2.907   7.298  18.579  0.00  0.00    +0.000 A 
ATOM      8  C   UNL     1       2.448   8.108  17.553  0.00  0.00    +0.000 A 
ATOM      9  C   UNL     1       1.433   9.040  17.799  0.00  0.00    +0.000 A 
ATOM     10  C   UNL     1       0.856   9.208  19.081  0.00  0.00    +0.000 A 
ENDROOT
BRANCH   1  19
ATOM     11  O   UNL     1      -0.890  13.270  19.411  0.00  0.00    +0.000 OA
ATOM     12  C   UNL     1      -1.479  12.295  18.949  0.00  0.00    +0.000 C 
ATOM     13  O   UNL     1      -2.839  12.210  19.007  0.00  0.00    +0.000 OA
ATOM     14  C   UNL     1      -3.635  11.205  18.392  0.00  0.00    +0.000 C 
ATOM     15  C   UNL     1      -4.963  11.369  18.331  0.00  0.00    +0.000 C 
ATOM     16 BR   UNL     1      -5.906  12.799  19.050  0.00  0.00    +0.000 Br
ATOM     17  C   UNL     1      -2.944  10.022  17.788  0.00  0.00    +0.000 C 
ATOM     18  C   UNL     1      -1.568  10.408  17.276  0.00  0.00    +0.000 C 
ATOM     19  C   UNL     1      -0.738  11.116  18.348  0.00  0.00    +0.000 C 
ENDBRANCH   1  19
TORSDOF 1
ENDMDL
MODEL 8
REMARK VINA RESULT:      -6.3      1.551      2.527
REMARK  Name = 
REMARK  1 active torsions:
REMARK  status: ('A' for Active; 'I' for Inactive)
REMARK    1  A    between atoms: C_9  and  C_10
REMARK                            x       y       z     vdW  Elec       q    Type
REMARK                         _______ _______ _______ _____ _____    ______ ____
ROOT
ATOM      1  C   UNL     1       4.073   4.814  17.676  0.00  0.00    +0.000 A 
ATOM      2  C   UNL     1       4.005   3.631  16.909  0.00  0.00    +0.000 A 
ATOM      3  C   UNL     1       3.027   2.670  17.143  0.00  0.00    +0.000 A 
ATOM      4  C   UNL     1       2.094   2.869  18.150  0.00  0.00    +0.000 A 
ATOM      5  C   UNL     1       2.118   4.028  18.935  0.00  0.00    +0.000 A 
ATOM      6  C   UNL     1       1.146   4.200  19.931  0.00  0.00    +0.000 A 
ATOM      7  C   UNL     1       1.121   5.344  20.725  0.00  0.00    +0.000 A 
ATOM      8  C   UNL     1       2.081   6.326  20.537  0.00  0.00    +0.000 A 
ATOM      9  C   UNL     1       3.066   6.162  19.554  0.00  0.00    +0.000 A 
ATOM     10  C   UNL     1       3.114   5.022  18.716  0.00  0.00    +0.000 A 
ENDROOT
BRANCH   1  19
ATOM     11  O   UNL     1       4.256   7.347  15.743  0.00  0.00    +0.000 OA
ATOM     12  C   UNL     1       5.060   6.451  15.993  0.00  0.00    +0.000 C 
ATOM     13  O   UNL     1       5.854   5.934  15.012  0.00  0.00    +0.000 OA
ATOM     14  C   UNL     1       6.908   4.999  15.203  0.00  0.00    +0.000 C 
ATOM     15  C   UNL     1       7.755   4.753  14.195  0.00  0.00    +0.000 C 
ATOM     16 BR   UNL     1       7.649   5.492  12.494  0.00  0.00    +0.000 Br
ATOM     17  C   UNL     1       7.058   4.363  16.551  0.00  0.00    +0.000 C 
ATOM     18  C   UNL     1       6.586   5.305  17.644  0.00  0.00    +0.000 C 
ATOM     19  C   UNL     1       5.177   5.834  17.373  0.00  0.00    +0.000 C 
ENDBRANCH   1  19
TORSDOF 1
ENDMDL
MODEL 9
REMARK VINA RESULT:      -6.2      3.886      6.118
REMARK  Name = 
REMARK  1 active torsions:
REMARK  status: ('A' for Active; 'I' for Inactive)
REMARK    1  A    between atoms: C_9  and  C_10
REMARK                            x       y       z     vdW  Elec       q    Type
REMARK                         _______ _______ _______ _____ _____    ______ ____
ROOT
ATOM      1  C   UNL     1       3.960   4.567  17.031  0.00  0.00    +0.000 A 
ATOM      2  C   UNL     1       3.681   5.717  17.801  0.00  0.00    +0.000 A 
ATOM      3  C   UNL     1       4.381   6.904  17.610  0.00  0.00    +0.000 A 
ATOM      4  C   UNL     1       5.376   6.969  16.646  0.00  0.00    +0.000 A 
ATOM      5  C   UNL     1       5.686   5.856  15.856  0.00  0.00    +0.000 A 
ATOM      6  C   UNL     1       6.686   5.968  14.878  0.00  0.00    +0.000 A 
ATOM      7  C   UNL     1       7.016   4.892  14.058  0.00  0.00    +0.000 A 
ATOM      8  C   UNL     1       6.355   3.685  14.217  0.00  0.00    +0.000 A 
ATOM      9  C   UNL     1       5.363   3.555  15.197  0.00  0.00    +0.000 A 
ATOM     10  C   UNL     1       4.987   4.630  16.038  0.00  0.00    +0.000 A 
ENDROOT
BRANCH   1  19
ATOM     11  O   UNL     1       0.859   3.971  17.491  0.00  0.00    +0.000 OA
ATOM     12  C   UNL     1       1.865   3.532  18.045  0.00  0.00    +0.000 C 
ATOM     13  O   UNL     1       1.874   3.295  19.388  0.00  0.00    +0.000 OA
ATOM     14  C   UNL     1       2.923   2.666  20.114  0.00  0.00    +0.000 C 
ATOM     15  C   UNL     1       2.706   2.286  21.380  0.00  0.00    +0.000 C 
ATOM     16 BR   UNL     1       1.136   2.565  22.334  0.00  0.00    +0.000 Br
ATOM     17  C   UNL     1       4.218   2.408  19.408  0.00  0.00    +0.000 C 
ATOM     18  C   UNL     1       3.985   2.168  17.928  0.00  0.00    +0.000 C 
ATOM     19  C   UNL     1       3.158   3.287  17.292  0.00  0.00    +0.000 C 
ENDBRANCH   1  19
TORSDOF 1
ENDMDL
