MODEL 1
REMARK VINA RESULT:      -7.9      0.000      0.000
REMARK  Name = 
REMARK  10 active torsions:
REMARK  status: ('A' for Active; 'I' for Inactive)
REMARK    1  A    between atoms: C_1  and  O_2
REMARK    2  A    between atoms: O_2  and  C_3
REMARK    3  A    between atoms: C_6  and  N_7
REMARK    4  A    between atoms: N_7  and  C_8
REMARK    5  A    between atoms: N_7  and  S_20
REMARK    6  A    between atoms: C_8  and  C_9
REMARK    7  A    between atoms: N_11  and  C_12
REMARK    8  A    between atoms: C_12  and  C_13
REMARK    9  A    between atoms: C_13  and  C_14
REMARK   10  A    between atoms: S_20  and  C_23
REMARK                            x       y       z     vdW  Elec       q    Type
REMARK                         _______ _______ _______ _____ _____    ______ ____
ROOT
ATOM      1  N   UNL     1       3.407   6.006  17.942  0.00  0.00    +0.000 N 
ENDROOT
BRANCH   1   5
ATOM      2  C   UNL     1       1.133   9.222  19.513  0.00  0.00    +0.000 A 
ATOM      3  C   UNL     1       1.541   8.178  20.343  0.00  0.00    +0.000 A 
ATOM      4  C   UNL     1       2.324   7.135  19.853  0.00  0.00    +0.000 A 
ATOM      5  C   UNL     1       2.691   7.111  18.508  0.00  0.00    +0.000 A 
ATOM      6  C   UNL     1       2.278   8.149  17.667  0.00  0.00    +0.000 A 
ATOM      7  C   UNL     1       1.508   9.211  18.169  0.00  0.00    +0.000 A 
BRANCH   2   9
ATOM      8  C   UNL     1       0.969  11.212  20.800  0.00  0.00    +0.000 C 
ATOM      9  O   UNL     1       0.326  10.147  20.111  0.00  0.00    +0.000 OA
ENDBRANCH   2   9
ENDBRANCH   1   5
BRANCH   1  10
ATOM     10  S   UNL     1       2.515   4.555  17.712  0.00  0.00    +0.000 S 
ATOM     11  O   UNL     1       1.147   4.890  17.363  0.00  0.00    +0.000 OA
ATOM     12  O   UNL     1       3.301   3.700  16.843  0.00  0.00    +0.000 OA
BRANCH  10  13
ATOM     13  C   UNL     1       2.480   3.774  19.321  0.00  0.00    +0.000 A 
ATOM     14  C   UNL     1       1.308   3.809  20.085  0.00  0.00    +0.000 A 
ATOM     15  C   UNL     1       1.264   3.166  21.322  0.00  0.00    +0.000 A 
ATOM     16  C   UNL     1       2.378   2.463  21.786  0.00  0.00    +0.000 A 
ATOM     17  C   UNL     1       3.532   2.394  21.007  0.00  0.00    +0.000 A 
ATOM     18  C   UNL     1       3.585   3.035  19.768  0.00  0.00    +0.000 A 
ENDBRANCH  10  13
ENDBRANCH   1  10
BRANCH   1  19
ATOM     19  C   UNL     1       4.852   5.804  18.205  0.00  0.00    +0.000 C 
BRANCH  19  20
ATOM     20  C   UNL     1       5.833   5.774  17.053  0.00  0.00    +0.000 C 
ATOM     21  O   UNL     1       6.456   6.782  16.721  0.00  0.00    +0.000 OA
ATOM     22  N   UNL     1       6.013   4.546  16.443  0.00  0.00    +0.000 N 
ATOM     23  H   UNL     1       5.263   3.872  16.542  0.00  0.00    +0.000 HD
BRANCH  22  24
ATOM     24  C   UNL     1       6.877   4.445  15.276  0.00  0.00    +0.000 C 
BRANCH  24  25
ATOM     25  C   UNL     1       6.216   4.972  13.998  0.00  0.00    +0.000 C 
BRANCH  25  26
ATOM     26  C   UNL     1       6.083   3.913  12.921  0.00  0.00    +0.000 C 
ATOM     27  C   UNL     1       4.884   3.564  12.413  0.00  0.00    +0.000 C 
ATOM     28  C   UNL     1       4.693   2.493  11.375  0.00  0.00    +0.000 C 
ATOM     29  C   UNL     1       5.921   1.600  11.204  0.00  0.00    +0.000 C 
ATOM     30  C   UNL     1       7.195   2.434  11.158  0.00  0.00    +0.000 C 
ATOM     31  C   UNL     1       7.361   3.267  12.434  0.00  0.00    +0.000 C 
ENDBRANCH  25  26
ENDBRANCH  24  25
ENDBRANCH  22  24
ENDBRANCH  19  20
ENDBRANCH   1  19
TORSDOF 9
ENDMDL
MODEL 2
REMARK VINA RESULT:      -7.8      3.571      8.260
REMARK  Name = 
REMARK  10 active torsions:
REMARK  status: ('A' for Active; 'I' for Inactive)
REMARK    1  A    between atoms: C_1  and  O_2
REMARK    2  A    between atoms: O_2  and  C_3
REMARK    3  A    between atoms: C_6  and  N_7
REMARK    4  A    between atoms: N_7  and  C_8
REMARK    5  A    between atoms: N_7  and  S_20
REMARK    6  A    between atoms: C_8  and  C_9
REMARK    7  A    between atoms: N_11  and  C_12
REMARK    8  A    between atoms: C_12  and  C_13
REMARK    9  A    between atoms: C_13  and  C_14
REMARK   10  A    between atoms: S_20  and  C_23
REMARK                            x       y       z     vdW  Elec       q    Type
REMARK                         _______ _______ _______ _____ _____    ______ ____
ROOT
ATOM      1  N   UNL     1       3.505   6.490  17.265  0.00  0.00    +0.000 N 
ENDROOT
BRANCH   1   5
ATOM      2  C   UNL     1       1.915   3.371  19.658  0.00  0.00    +0.000 A 
ATOM      3  C   UNL     1       3.009   4.111  20.104  0.00  0.00    +0.000 A 
ATOM      4  C   UNL     1       3.518   5.166  19.350  0.00  0.00    +0.000 A 
ATOM      5  C   UNL     1       2.949   5.481  18.117  0.00  0.00    +0.000 A 
ATOM      6  C   UNL     1       1.857   4.737  17.658  0.00  0.00    +0.000 A 
ATOM      7  C   UNL     1       1.331   3.689  18.431  0.00  0.00    +0.000 A 
BRANCH   2   9
ATOM      8  C   UNL     1       1.472   2.607  21.863  0.00  0.00    +0.000 C 
ATOM      9  O   UNL     1       1.556   2.334  20.470  0.00  0.00    +0.000 OA
ENDBRANCH   2   9
ENDBRANCH   1   5
BRANCH   1  10
ATOM     10  S   UNL     1       4.913   6.051  16.382  0.00  0.00    +0.000 S 
ATOM     11  O   UNL     1       4.912   4.616  16.171  0.00  0.00    +0.000 OA
ATOM     12  O   UNL     1       5.011   6.955  15.252  0.00  0.00    +0.000 OA
BRANCH  10  13
ATOM     13  C   UNL     1       6.280   6.430  17.474  0.00  0.00    +0.000 A 
ATOM     14  C   UNL     1       6.697   5.484  18.416  0.00  0.00    +0.000 A 
ATOM     15  C   UNL     1       7.788   5.759  19.241  0.00  0.00    +0.000 A 
ATOM     16  C   UNL     1       8.481   6.963  19.108  0.00  0.00    +0.000 A 
ATOM     17  C   UNL     1       8.090   7.888  18.140  0.00  0.00    +0.000 A 
ATOM     18  C   UNL     1       6.999   7.622  17.311  0.00  0.00    +0.000 A 
ENDBRANCH  10  13
ENDBRANCH   1  10
BRANCH   1  19
ATOM     19  C   UNL     1       3.420   7.929  17.611  0.00  0.00    +0.000 C 
BRANCH  19  20
ATOM     20  C   UNL     1       2.201   8.462  18.333  0.00  0.00    +0.000 C 
ATOM     21  O   UNL     1       1.915   8.079  19.467  0.00  0.00    +0.000 OA
ATOM     22  N   UNL     1       1.474   9.426  17.661  0.00  0.00    +0.000 N 
ATOM     23  H   UNL     1       1.567   9.449  16.652  0.00  0.00    +0.000 HD
BRANCH  22  24
ATOM     24  C   UNL     1       0.243   9.934  18.248  0.00  0.00    +0.000 C 
BRANCH  24  25
ATOM     25  C   UNL     1      -0.996   9.616  17.402  0.00  0.00    +0.000 C 
BRANCH  25  26
ATOM     26  C   UNL     1      -2.194  10.473  17.764  0.00  0.00    +0.000 C 
ATOM     27  C   UNL     1      -2.165  11.329  18.805  0.00  0.00    +0.000 C 
ATOM     28  C   UNL     1      -3.337  12.170  19.230  0.00  0.00    +0.000 C 
ATOM     29  C   UNL     1      -4.656  11.716  18.608  0.00  0.00    +0.000 C 
ATOM     30  C   UNL     1      -4.480  11.417  17.125  0.00  0.00    +0.000 C 
ATOM     31  C   UNL     1      -3.425  10.329  16.898  0.00  0.00    +0.000 C 
ENDBRANCH  25  26
ENDBRANCH  24  25
ENDBRANCH  22  24
ENDBRANCH  19  20
ENDBRANCH   1  19
TORSDOF 9
ENDMDL
MODEL 3
REMARK VINA RESULT:      -7.7      3.511      5.587
REMARK  Name = 
REMARK  10 active torsions:
REMARK  status: ('A' for Active; 'I' for Inactive)
REMARK    1  A    between atoms: C_1  and  O_2
REMARK    2  A    between atoms: O_2  and  C_3
REMARK    3  A    between atoms: C_6  and  N_7
REMARK    4  A    between atoms: N_7  and  C_8
REMARK    5  A    between atoms: N_7  and  S_20
REMARK    6  A    between atoms: C_8  and  C_9
REMARK    7  A    between atoms: N_11  and  C_12
REMARK    8  A    between atoms: C_12  and  C_13
REMARK    9  A    between atoms: C_13  and  C_14
REMARK   10  A    between atoms: S_20  and  C_23
REMARK                            x       y       z     vdW  Elec       q    Type
REMARK                         _______ _______ _______ _____ _____    ______ ____
ROOT
ATOM      1  N   UNL     1       4.362   5.306  18.086  0.00  0.00    +0.000 N 
ENDROOT
BRANCH   1   5
ATOM      2  C   UNL     1       1.772   8.543  18.978  0.00  0.00    +0.000 A 
ATOM      3  C   UNL     1       1.969   7.524  19.909  0.00  0.00    +0.000 A 
ATOM      4  C   UNL     1       2.848   6.474  19.649  0.00  0.00    +0.000 A 
ATOM      5  C   UNL     1       3.529   6.419  18.434  0.00  0.00    +0.000 A 
ATOM      6  C   UNL     1       3.329   7.432  17.491  0.00  0.00    +0.000 A 
ATOM      7  C   UNL     1       2.460   8.501  17.765  0.00  0.00    +0.000 A 
BRANCH   2   9
ATOM      8  C   UNL     1       0.933   9.993  20.661  0.00  0.00    +0.000 C 
ATOM      9  O   UNL     1       0.843   9.477  19.340  0.00  0.00    +0.000 OA
ENDBRANCH   2   9
ENDBRANCH   1   5
BRANCH   1  10
ATOM     10  S   UNL     1       3.556   3.823  17.756  0.00  0.00    +0.000 S 
ATOM     11  O   UNL     1       2.524   4.056  16.763  0.00  0.00    +0.000 OA
ATOM     12  O   UNL     1       4.578   2.820  17.525  0.00  0.00    +0.000 OA
BRANCH  10  13
ATOM     13  C   UNL     1       2.736   3.391  19.287  0.00  0.00    +0.000 A 
ATOM     14  C   UNL     1       1.341   3.455  19.368  0.00  0.00    +0.000 A 
ATOM     15  C   UNL     1       0.695   3.079  20.547  0.00  0.00    +0.000 A 
ATOM     16  C   UNL     1       1.437   2.614  21.634  0.00  0.00    +0.000 A 
ATOM     17  C   UNL     1       2.824   2.512  21.538  0.00  0.00    +0.000 A 
ATOM     18  C   UNL     1       3.479   2.887  20.363  0.00  0.00    +0.000 A 
ENDBRANCH  10  13
ENDBRANCH   1  10
BRANCH   1  19
ATOM     19  C   UNL     1       5.724   5.152  18.651  0.00  0.00    +0.000 C 
BRANCH  19  20
ATOM     20  C   UNL     1       6.896   5.854  17.999  0.00  0.00    +0.000 C 
ATOM     21  O   UNL     1       7.611   5.274  17.183  0.00  0.00    +0.000 OA
ATOM     22  N   UNL     1       7.073   7.181  18.341  0.00  0.00    +0.000 N 
ATOM     23  H   UNL     1       6.675   7.483  19.223  0.00  0.00    +0.000 HD
BRANCH  22  24
ATOM     24  C   UNL     1       8.223   7.908  17.824  0.00  0.00    +0.000 C 
BRANCH  24  25
ATOM     25  C   UNL     1       7.935   9.397  17.601  0.00  0.00    +0.000 C 
BRANCH  25  26
ATOM     26  C   UNL     1       8.909  10.302  18.330  0.00  0.00    +0.000 C 
ATOM     27  C   UNL     1       9.512  11.339  17.713  0.00  0.00    +0.000 C 
ATOM     28  C   UNL     1      10.514  12.241  18.377  0.00  0.00    +0.000 C 
ATOM     29  C   UNL     1      11.051  11.675  19.691  0.00  0.00    +0.000 C 
ATOM     30  C   UNL     1       9.920  11.103  20.536  0.00  0.00    +0.000 C 
ATOM     31  C   UNL     1       9.171   9.995  19.788  0.00  0.00    +0.000 C 
ENDBRANCH  25  26
ENDBRANCH  24  25
ENDBRANCH  22  24
ENDBRANCH  19  20
ENDBRANCH   1  19
TORSDOF 9
ENDMDL
MODEL 4
REMARK VINA RESULT:      -7.6      3.474      8.002
REMARK  Name = 
REMARK  10 active torsions:
REMARK  status: ('A' for Active; 'I' for Inactive)
REMARK    1  A    between atoms: C_1  and  O_2
REMARK    2  A    between atoms: O_2  and  C_3
REMARK    3  A    between atoms: C_6  and  N_7
REMARK    4  A    between atoms: N_7  and  C_8
REMARK    5  A    between atoms: N_7  and  S_20
REMARK    6  A    between atoms: C_8  and  C_9
REMARK    7  A    between atoms: N_11  and  C_12
REMARK    8  A    between atoms: C_12  and  C_13
REMARK    9  A    between atoms: C_13  and  C_14
REMARK   10  A    between atoms: S_20  and  C_23
REMARK                            x       y       z     vdW  Elec       q    Type
REMARK                         _______ _______ _______ _____ _____    ______ ____
ROOT
ATOM      1  N   UNL     1       3.606   6.222  17.206  0.00  0.00    +0.000 N 
ENDROOT
BRANCH   1   5
ATOM      2  C   UNL     1       1.905   3.329  19.798  0.00  0.00    +0.000 A 
ATOM      3  C   UNL     1       1.271   3.659  18.601  0.00  0.00    +0.000 A 
ATOM      4  C   UNL     1       1.837   4.576  17.718  0.00  0.00    +0.000 A 
ATOM      5  C   UNL     1       3.043   5.199  18.037  0.00  0.00    +0.000 A 
ATOM      6  C   UNL     1       3.680   4.880  19.240  0.00  0.00    +0.000 A 
ATOM      7  C   UNL     1       3.119   3.938  20.117  0.00  0.00    +0.000 A 
BRANCH   2   9
ATOM      8  C   UNL     1       1.616   2.367  21.951  0.00  0.00    +0.000 C 
ATOM      9  O   UNL     1       1.213   2.458  20.590  0.00  0.00    +0.000 OA
ENDBRANCH   2   9
ENDBRANCH   1   5
BRANCH   1  10
ATOM     10  S   UNL     1       5.009   5.792  16.311  0.00  0.00    +0.000 S 
ATOM     11  O   UNL     1       5.057   4.349  16.170  0.00  0.00    +0.000 OA
ATOM     12  O   UNL     1       5.047   6.643  15.137  0.00  0.00    +0.000 OA
BRANCH  10  13
ATOM     13  C   UNL     1       6.386   6.274  17.349  0.00  0.00    +0.000 A 
ATOM     14  C   UNL     1       6.959   7.541  17.197  0.00  0.00    +0.000 A 
ATOM     15  C   UNL     1       8.005   7.935  18.032  0.00  0.00    +0.000 A 
ATOM     16  C   UNL     1       8.461   7.079  19.036  0.00  0.00    +0.000 A 
ATOM     17  C   UNL     1       7.862   5.832  19.213  0.00  0.00    +0.000 A 
ATOM     18  C   UNL     1       6.815   5.429  18.382  0.00  0.00    +0.000 A 
ENDBRANCH  10  13
ENDBRANCH   1  10
BRANCH   1  19
ATOM     19  C   UNL     1       3.534   7.653  17.586  0.00  0.00    +0.000 C 
BRANCH  19  20
ATOM     20  C   UNL     1       2.459   8.130  18.539  0.00  0.00    +0.000 C 
ATOM     21  O   UNL     1       2.317   7.614  19.647  0.00  0.00    +0.000 OA
ATOM     22  N   UNL     1       1.694   9.196  18.105  0.00  0.00    +0.000 N 
ATOM     23  H   UNL     1       1.645   9.345  17.104  0.00  0.00    +0.000 HD
BRANCH  22  24
ATOM     24  C   UNL     1       0.587   9.664  18.925  0.00  0.00    +0.000 C 
BRANCH  24  25
ATOM     25  C   UNL     1       0.001  10.993  18.432  0.00  0.00    +0.000 C 
BRANCH  25  26
ATOM     26  C   UNL     1      -1.447  10.875  17.998  0.00  0.00    +0.000 C 
ATOM     27  C   UNL     1      -1.856   9.914  17.145  0.00  0.00    +0.000 C 
ATOM     28  C   UNL     1      -3.269   9.779  16.651  0.00  0.00    +0.000 C 
ATOM     29  C   UNL     1      -4.118  11.020  16.918  0.00  0.00    +0.000 C 
ATOM     30  C   UNL     1      -3.892  11.535  18.334  0.00  0.00    +0.000 C 
ATOM     31  C   UNL     1      -2.419  11.882  18.572  0.00  0.00    +0.000 C 
ENDBRANCH  25  26
ENDBRANCH  24  25
ENDBRANCH  22  24
ENDBRANCH  19  20
ENDBRANCH   1  19
TORSDOF 9
ENDMDL
MODEL 5
REMARK VINA RESULT:      -7.6      4.637      7.879
REMARK  Name = 
REMARK  10 active torsions:
REMARK  status: ('A' for Active; 'I' for Inactive)
REMARK    1  A    between atoms: C_1  and  O_2
REMARK    2  A    between atoms: O_2  and  C_3
REMARK    3  A    between atoms: C_6  and  N_7
REMARK    4  A    between atoms: N_7  and  C_8
REMARK    5  A    between atoms: N_7  and  S_20
REMARK    6  A    between atoms: C_8  and  C_9
REMARK    7  A    between atoms: N_11  and  C_12
REMARK    8  A    between atoms: C_12  and  C_13
REMARK    9  A    between atoms: C_13  and  C_14
REMARK   10  A    between atoms: S_20  and  C_23
REMARK                            x       y       z     vdW  Elec       q    Type
REMARK                         _______ _______ _______ _____ _____    ______ ____
ROOT
ATOM      1  N   UNL     1       6.022   5.311  17.605  0.00  0.00    +0.000 N 
ENDROOT
BRANCH   1   5
ATOM      2  C   UNL     1       6.341   4.033  13.574  0.00  0.00    +0.000 A 
ATOM      3  C   UNL     1       5.169   3.803  14.293  0.00  0.00    +0.000 A 
ATOM      4  C   UNL     1       5.031   4.253  15.605  0.00  0.00    +0.000 A 
ATOM      5  C   UNL     1       6.084   4.923  16.227  0.00  0.00    +0.000 A 
ATOM      6  C   UNL     1       7.266   5.149  15.515  0.00  0.00    +0.000 A 
ATOM      7  C   UNL     1       7.393   4.716  14.185  0.00  0.00    +0.000 A 
BRANCH   2   9
ATOM      8  C   UNL     1       5.110   3.073  11.783  0.00  0.00    +0.000 C 
ATOM      9  O   UNL     1       6.358   3.491  12.321  0.00  0.00    +0.000 OA
ENDBRANCH   2   9
ENDBRANCH   1   5
BRANCH   1  10
ATOM     10  S   UNL     1       4.467   5.717  18.215  0.00  0.00    +0.000 S 
ATOM     11  O   UNL     1       4.609   6.257  19.554  0.00  0.00    +0.000 OA
ATOM     12  O   UNL     1       3.789   6.484  17.187  0.00  0.00    +0.000 OA
BRANCH  10  13
ATOM     13  C   UNL     1       3.604   4.156  18.357  0.00  0.00    +0.000 A 
ATOM     14  C   UNL     1       2.272   4.059  17.941  0.00  0.00    +0.000 A 
ATOM     15  C   UNL     1       1.608   2.834  18.012  0.00  0.00    +0.000 A 
ATOM     16  C   UNL     1       2.279   1.700  18.471  0.00  0.00    +0.000 A 
ATOM     17  C   UNL     1       3.619   1.788  18.848  0.00  0.00    +0.000 A 
ATOM     18  C   UNL     1       4.290   3.010  18.781  0.00  0.00    +0.000 A 
ENDBRANCH  10  13
ENDBRANCH   1  10
BRANCH   1  19
ATOM     19  C   UNL     1       7.144   6.025  18.259  0.00  0.00    +0.000 C 
BRANCH  19  20
ATOM     20  C   UNL     1       7.439   7.464  17.896  0.00  0.00    +0.000 C 
ATOM     21  O   UNL     1       6.803   8.040  17.013  0.00  0.00    +0.000 OA
ATOM     22  N   UNL     1       8.419   8.089  18.643  0.00  0.00    +0.000 N 
ATOM     23  H   UNL     1       9.096   7.490  19.102  0.00  0.00    +0.000 HD
BRANCH  22  24
ATOM     24  C   UNL     1       8.821   9.447  18.307  0.00  0.00    +0.000 C 
BRANCH  24  25
ATOM     25  C   UNL     1       9.390  10.214  19.506  0.00  0.00    +0.000 C 
BRANCH  25  26
ATOM     26  C   UNL     1      10.326  11.336  19.099  0.00  0.00    +0.000 C 
ATOM     27  C   UNL     1      11.292  11.788  19.923  0.00  0.00    +0.000 C 
ATOM     28  C   UNL     1      12.218  12.923  19.586  0.00  0.00    +0.000 C 
ATOM     29  C   UNL     1      11.747  13.743  18.386  0.00  0.00    +0.000 C 
ATOM     30  C   UNL     1      11.276  12.833  17.259  0.00  0.00    +0.000 C 
ATOM     31  C   UNL     1      10.131  11.924  17.719  0.00  0.00    +0.000 C 
ENDBRANCH  25  26
ENDBRANCH  24  25
ENDBRANCH  22  24
ENDBRANCH  19  20
ENDBRANCH   1  19
TORSDOF 9
ENDMDL
MODEL 6
REMARK VINA RESULT:      -7.6      3.520      8.713
REMARK  Name = 
REMARK  10 active torsions:
REMARK  status: ('A' for Active; 'I' for Inactive)
REMARK    1  A    between atoms: C_1  and  O_2
REMARK    2  A    between atoms: O_2  and  C_3
REMARK    3  A    between atoms: C_6  and  N_7
REMARK    4  A    between atoms: N_7  and  C_8
REMARK    5  A    between atoms: N_7  and  S_20
REMARK    6  A    between atoms: C_8  and  C_9
REMARK    7  A    between atoms: N_11  and  C_12
REMARK    8  A    between atoms: C_12  and  C_13
REMARK    9  A    between atoms: C_13  and  C_14
REMARK   10  A    between atoms: S_20  and  C_23
REMARK                            x       y       z     vdW  Elec       q    Type
REMARK                         _______ _______ _______ _____ _____    ______ ____
ROOT
ATOM      1  N   UNL     1       3.445   6.470  17.380  0.00  0.00    +0.000 N 
ENDROOT
BRANCH   1   5
ATOM      2  C   UNL     1       1.654   3.506  19.827  0.00  0.00    +0.000 A 
ATOM      3  C   UNL     1       2.650   4.335  20.343  0.00  0.00    +0.000 A 
ATOM      4  C   UNL     1       3.219   5.342  19.565  0.00  0.00    +0.000 A 
ATOM      5  C   UNL     1       2.814   5.516  18.243  0.00  0.00    +0.000 A 
ATOM      6  C   UNL     1       1.823   4.682  17.716  0.00  0.00    +0.000 A 
ATOM      7  C   UNL     1       1.234   3.684  18.508  0.00  0.00    +0.000 A 
BRANCH   2   9
ATOM      8  C   UNL     1       1.727   2.571  22.009  0.00  0.00    +0.000 C 
ATOM      9  O   UNL     1       1.225   2.530  20.680  0.00  0.00    +0.000 OA
ENDBRANCH   2   9
ENDBRANCH   1   5
BRANCH   1  10
ATOM     10  S   UNL     1       4.822   5.918  16.510  0.00  0.00    +0.000 S 
ATOM     11  O   UNL     1       4.758   4.473  16.389  0.00  0.00    +0.000 OA
ATOM     12  O   UNL     1       4.943   6.745  15.325  0.00  0.00    +0.000 OA
BRANCH  10  13
ATOM     13  C   UNL     1       6.218   6.304  17.561  0.00  0.00    +0.000 A 
ATOM     14  C   UNL     1       6.641   5.379  18.521  0.00  0.00    +0.000 A 
ATOM     15  C   UNL     1       7.755   5.659  19.314  0.00  0.00    +0.000 A 
ATOM     16  C   UNL     1       8.463   6.848  19.132  0.00  0.00    +0.000 A 
ATOM     17  C   UNL     1       8.065   7.752  18.148  0.00  0.00    +0.000 A 
ATOM     18  C   UNL     1       6.952   7.480  17.350  0.00  0.00    +0.000 A 
ENDBRANCH  10  13
ENDBRANCH   1  10
BRANCH   1  19
ATOM     19  C   UNL     1       3.464   7.916  17.705  0.00  0.00    +0.000 C 
BRANCH  19  20
ATOM     20  C   UNL     1       2.184   8.616  18.107  0.00  0.00    +0.000 C 
ATOM     21  O   UNL     1       1.455   9.141  17.266  0.00  0.00    +0.000 OA
ATOM     22  N   UNL     1       1.873   8.584  19.454  0.00  0.00    +0.000 N 
ATOM     23  H   UNL     1       2.642   8.435  20.097  0.00  0.00    +0.000 HD
BRANCH  22  24
ATOM     24  C   UNL     1       0.703   9.302  19.937  0.00  0.00    +0.000 C 
BRANCH  24  25
ATOM     25  C   UNL     1       1.012  10.752  20.325  0.00  0.00    +0.000 C 
BRANCH  25  26
ATOM     26  C   UNL     1       0.058  11.301  21.368  0.00  0.00    +0.000 C 
ATOM     27  C   UNL     1      -0.515  10.506  22.294  0.00  0.00    +0.000 C 
ATOM     28  C   UNL     1      -1.497  10.991  23.323  0.00  0.00    +0.000 C 
ATOM     29  C   UNL     1      -2.054  12.379  23.011  0.00  0.00    +0.000 C 
ATOM     30  C   UNL     1      -0.941  13.322  22.570  0.00  0.00    +0.000 C 
ATOM     31  C   UNL     1      -0.217  12.788  21.330  0.00  0.00    +0.000 C 
ENDBRANCH  25  26
ENDBRANCH  24  25
ENDBRANCH  22  24
ENDBRANCH  19  20
ENDBRANCH   1  19
TORSDOF 9
ENDMDL
MODEL 7
REMARK VINA RESULT:      -7.5      3.557      8.729
REMARK  Name = 
REMARK  10 active torsions:
REMARK  status: ('A' for Active; 'I' for Inactive)
REMARK    1  A    between atoms: C_1  and  O_2
REMARK    2  A    between atoms: O_2  and  C_3
REMARK    3  A    between atoms: C_6  and  N_7
REMARK    4  A    between atoms: N_7  and  C_8
REMARK    5  A    between atoms: N_7  and  S_20
REMARK    6  A    between atoms: C_8  and  C_9
REMARK    7  A    between atoms: N_11  and  C_12
REMARK    8  A    between atoms: C_12  and  C_13
REMARK    9  A    between atoms: C_13  and  C_14
REMARK   10  A    between atoms: S_20  and  C_23
REMARK                            x       y       z     vdW  Elec       q    Type
REMARK                         _______ _______ _______ _____ _____    ______ ____
ROOT
ATOM      1  N   UNL     1       3.487   6.508  17.359  0.00  0.00    +0.000 N 
ENDROOT
BRANCH   1   5
ATOM      2  C   UNL     1       1.645   3.785  20.037  0.00  0.00    +0.000 A 
ATOM      3  C   UNL     1       1.289   3.794  18.688  0.00  0.00    +0.000 A 
ATOM      4  C   UNL     1       1.914   4.653  17.787  0.00  0.00    +0.000 A 
ATOM      5  C   UNL     1       2.894   5.538  18.232  0.00  0.00    +0.000 A 
ATOM      6  C   UNL     1       3.250   5.542  19.584  0.00  0.00    +0.000 A 
ATOM      7  C   UNL     1       2.635   4.659  20.486  0.00  0.00    +0.000 A 
BRANCH   2   9
ATOM      8  C   UNL     1       1.556   2.406  21.969  0.00  0.00    +0.000 C 
ATOM      9  O   UNL     1       0.914   2.933  20.815  0.00  0.00    +0.000 OA
ENDBRANCH   2   9
ENDBRANCH   1   5
BRANCH   1  10
ATOM     10  S   UNL     1       4.878   5.999  16.486  0.00  0.00    +0.000 S 
ATOM     11  O   UNL     1       4.848   4.555  16.346  0.00  0.00    +0.000 OA
ATOM     12  O   UNL     1       4.982   6.844  15.311  0.00  0.00    +0.000 OA
BRANCH  10  13
ATOM     13  C   UNL     1       6.263   6.403  17.545  0.00  0.00    +0.000 A 
ATOM     14  C   UNL     1       6.673   5.496  18.528  0.00  0.00    +0.000 A 
ATOM     15  C   UNL     1       7.777   5.790  19.328  0.00  0.00    +0.000 A 
ATOM     16  C   UNL     1       8.491   6.974  19.130  0.00  0.00    +0.000 A 
ATOM     17  C   UNL     1       8.106   7.858  18.123  0.00  0.00    +0.000 A 
ATOM     18  C   UNL     1       7.002   7.573  17.319  0.00  0.00    +0.000 A 
ENDBRANCH  10  13
ENDBRANCH   1  10
BRANCH   1  19
ATOM     19  C   UNL     1       3.457   7.956  17.675  0.00  0.00    +0.000 C 
BRANCH  19  20
ATOM     20  C   UNL     1       2.148   8.622  18.039  0.00  0.00    +0.000 C 
ATOM     21  O   UNL     1       1.355   8.986  17.171  0.00  0.00    +0.000 OA
ATOM     22  N   UNL     1       1.888   8.747  19.391  0.00  0.00    +0.000 N 
ATOM     23  H   UNL     1       2.687   8.732  20.013  0.00  0.00    +0.000 HD
BRANCH  22  24
ATOM     24  C   UNL     1       0.690   9.448  19.829  0.00  0.00    +0.000 C 
BRANCH  24  25
ATOM     25  C   UNL     1       0.915  10.953  20.014  0.00  0.00    +0.000 C 
BRANCH  25  26
ATOM     26  C   UNL     1      -0.031  11.572  21.025  0.00  0.00    +0.000 C 
ATOM     27  C   UNL     1      -0.567  12.795  20.840  0.00  0.00    +0.000 C 
ATOM     28  C   UNL     1      -1.476  13.470  21.829  0.00  0.00    +0.000 C 
ATOM     29  C   UNL     1      -1.460  12.808  23.205  0.00  0.00    +0.000 C 
ATOM     30  C   UNL     1      -1.527  11.291  23.077  0.00  0.00    +0.000 C 
ATOM     31  C   UNL     1      -0.355  10.750  22.253  0.00  0.00    +0.000 C 
ENDBRANCH  25  26
ENDBRANCH  24  25
ENDBRANCH  22  24
ENDBRANCH  19  20
ENDBRANCH   1  19
TORSDOF 9
ENDMDL
MODEL 8
REMARK VINA RESULT:      -7.5      3.524      8.789
REMARK  Name = 
REMARK  10 active torsions:
REMARK  status: ('A' for Active; 'I' for Inactive)
REMARK    1  A    between atoms: C_1  and  O_2
REMARK    2  A    between atoms: O_2  and  C_3
REMARK    3  A    between atoms: C_6  and  N_7
REMARK    4  A    between atoms: N_7  and  C_8
REMARK    5  A    between atoms: N_7  and  S_20
REMARK    6  A    between atoms: C_8  and  C_9
REMARK    7  A    between atoms: N_11  and  C_12
REMARK    8  A    between atoms: C_12  and  C_13
REMARK    9  A    between atoms: C_13  and  C_14
REMARK   10  A    between atoms: S_20  and  C_23
REMARK                            x       y       z     vdW  Elec       q    Type
REMARK                         _______ _______ _______ _____ _____    ______ ____
ROOT
ATOM      1  N   UNL     1       3.610   6.386  17.363  0.00  0.00    +0.000 N 
ENDROOT
BRANCH   1   5
ATOM      2  C   UNL     1       1.918   3.307  19.738  0.00  0.00    +0.000 A 
ATOM      3  C   UNL     1       1.286   3.717  18.565  0.00  0.00    +0.000 A 
ATOM      4  C   UNL     1       1.849   4.697  17.751  0.00  0.00    +0.000 A 
ATOM      5  C   UNL     1       3.050   5.303  18.117  0.00  0.00    +0.000 A 
ATOM      6  C   UNL     1       3.685   4.904  19.297  0.00  0.00    +0.000 A 
ATOM      7  C   UNL     1       3.128   3.899  20.104  0.00  0.00    +0.000 A 
BRANCH   2   9
ATOM      8  C   UNL     1       1.344   2.455  21.880  0.00  0.00    +0.000 C 
ATOM      9  O   UNL     1       1.229   2.379  20.465  0.00  0.00    +0.000 OA
ENDBRANCH   2   9
ENDBRANCH   1   5
BRANCH   1  10
ATOM     10  S   UNL     1       4.974   6.011  16.387  0.00  0.00    +0.000 S 
ATOM     11  O   UNL     1       5.007   4.580  16.147  0.00  0.00    +0.000 OA
ATOM     12  O   UNL     1       4.973   6.938  15.271  0.00  0.00    +0.000 OA
BRANCH  10  13
ATOM     13  C   UNL     1       6.393   6.415  17.400  0.00  0.00    +0.000 A 
ATOM     14  C   UNL     1       6.994   7.673  17.282  0.00  0.00    +0.000 A 
ATOM     15  C   UNL     1       8.075   8.006  18.100  0.00  0.00    +0.000 A 
ATOM     16  C   UNL     1       8.537   7.099  19.054  0.00  0.00    +0.000 A 
ATOM     17  C   UNL     1       7.912   5.861  19.199  0.00  0.00    +0.000 A 
ATOM     18  C   UNL     1       6.831   5.518  18.385  0.00  0.00    +0.000 A 
ENDBRANCH  10  13
ENDBRANCH   1  10
BRANCH   1  19
ATOM     19  C   UNL     1       3.581   7.778  17.870  0.00  0.00    +0.000 C 
BRANCH  19  20
ATOM     20  C   UNL     1       2.256   8.471  18.103  0.00  0.00    +0.000 C 
ATOM     21  O   UNL     1       1.569   8.865  17.161  0.00  0.00    +0.000 OA
ATOM     22  N   UNL     1       1.856   8.585  19.422  0.00  0.00    +0.000 N 
ATOM     23  H   UNL     1       2.585   8.543  20.125  0.00  0.00    +0.000 HD
BRANCH  22  24
ATOM     24  C   UNL     1       0.635   9.308  19.741  0.00  0.00    +0.000 C 
BRANCH  24  25
ATOM     25  C   UNL     1       0.324   9.321  21.241  0.00  0.00    +0.000 C 
BRANCH  25  26
ATOM     26  C   UNL     1      -0.453  10.549  21.674  0.00  0.00    +0.000 C 
ATOM     27  C   UNL     1      -0.651  11.593  20.843  0.00  0.00    +0.000 C 
ATOM     28  C   UNL     1      -1.377  12.849  21.234  0.00  0.00    +0.000 C 
ATOM     29  C   UNL     1      -1.564  12.987  22.744  0.00  0.00    +0.000 C 
ATOM     30  C   UNL     1      -2.018  11.668  23.356  0.00  0.00    +0.000 C 
ATOM     31  C   UNL     1      -1.006  10.550  23.081  0.00  0.00    +0.000 C 
ENDBRANCH  25  26
ENDBRANCH  24  25
ENDBRANCH  22  24
ENDBRANCH  19  20
ENDBRANCH   1  19
TORSDOF 9
ENDMDL
MODEL 9
REMARK VINA RESULT:      -7.5      1.150      1.727
REMARK  Name = 
REMARK  10 active torsions:
REMARK  status: ('A' for Active; 'I' for Inactive)
REMARK    1  A    between atoms: C_1  and  O_2
REMARK    2  A    between atoms: O_2  and  C_3
REMARK    3  A    between atoms: C_6  and  N_7
REMARK    4  A    between atoms: N_7  and  C_8
REMARK    5  A    between atoms: N_7  and  S_20
REMARK    6  A    between atoms: C_8  and  C_9
REMARK    7  A    between atoms: N_11  and  C_12
REMARK    8  A    between atoms: C_12  and  C_13
REMARK    9  A    between atoms: C_13  and  C_14
REMARK   10  A    between atoms: S_20  and  C_23
REMARK                            x       y       z     vdW  Elec       q    Type
REMARK                         _______ _______ _______ _____ _____    ______ ____
ROOT
ATOM      1  N   UNL     1       3.299   6.420  18.532  0.00  0.00    +0.000 N 
ENDROOT
BRANCH   1   5
ATOM      2  C   UNL     1       0.647   9.628  19.344  0.00  0.00    +0.000 A 
ATOM      3  C   UNL     1       1.003   8.737  20.356  0.00  0.00    +0.000 A 
ATOM      4  C   UNL     1       1.906   7.703  20.117  0.00  0.00    +0.000 A 
ATOM      5  C   UNL     1       2.449   7.530  18.845  0.00  0.00    +0.000 A 
ATOM      6  C   UNL     1       2.090   8.414  17.823  0.00  0.00    +0.000 A 
ATOM      7  C   UNL     1       1.198   9.470  18.072  0.00  0.00    +0.000 A 
BRANCH   2   9
ATOM      8  C   UNL     1      -0.558  11.591  18.765  0.00  0.00    +0.000 C 
ATOM      9  O   UNL     1      -0.286  10.558  19.703  0.00  0.00    +0.000 OA
ENDBRANCH   2   9
ENDBRANCH   1   5
BRANCH   1  10
ATOM     10  S   UNL     1       2.518   4.996  17.968  0.00  0.00    +0.000 S 
ATOM     11  O   UNL     1       1.163   5.326  17.569  0.00  0.00    +0.000 OA
ATOM     12  O   UNL     1       3.419   4.354  17.030  0.00  0.00    +0.000 OA
BRANCH  10  13
ATOM     13  C   UNL     1       2.409   3.930  19.401  0.00  0.00    +0.000 A 
ATOM     14  C   UNL     1       3.493   3.114  19.742  0.00  0.00    +0.000 A 
ATOM     15  C   UNL     1       3.427   2.311  20.882  0.00  0.00    +0.000 A 
ATOM     16  C   UNL     1       2.294   2.343  21.697  0.00  0.00    +0.000 A 
ATOM     17  C   UNL     1       1.231   3.187  21.378  0.00  0.00    +0.000 A 
ATOM     18  C   UNL     1       1.287   3.992  20.239  0.00  0.00    +0.000 A 
ENDBRANCH  10  13
ENDBRANCH   1  10
BRANCH   1  19
ATOM     19  C   UNL     1       4.559   6.176  19.274  0.00  0.00    +0.000 C 
BRANCH  19  20
ATOM     20  C   UNL     1       5.766   5.616  18.551  0.00  0.00    +0.000 C 
ATOM     21  O   UNL     1       6.529   4.826  19.105  0.00  0.00    +0.000 OA
ATOM     22  N   UNL     1       5.919   6.010  17.235  0.00  0.00    +0.000 N 
ATOM     23  H   UNL     1       5.469   6.876  16.961  0.00  0.00    +0.000 HD
BRANCH  22  24
ATOM     24  C   UNL     1       7.095   5.583  16.491  0.00  0.00    +0.000 C 
BRANCH  24  25
ATOM     25  C   UNL     1       6.929   4.197  15.859  0.00  0.00    +0.000 C 
BRANCH  25  26
ATOM     26  C   UNL     1       6.871   4.242  14.344  0.00  0.00    +0.000 C 
ATOM     27  C   UNL     1       5.991   3.497  13.645  0.00  0.00    +0.000 C 
ATOM     28  C   UNL     1       5.918   3.474  12.144  0.00  0.00    +0.000 C 
ATOM     29  C   UNL     1       7.146   4.090  11.476  0.00  0.00    +0.000 C 
ATOM     30  C   UNL     1       7.539   5.392  12.163  0.00  0.00    +0.000 C 
ATOM     31  C   UNL     1       7.842   5.170  13.648  0.00  0.00    +0.000 C 
ENDBRANCH  25  26
ENDBRANCH  24  25
ENDBRANCH  22  24
ENDBRANCH  19  20
ENDBRANCH   1  19
TORSDOF 9
ENDMDL
