MODEL 1
REMARK VINA RESULT:      -8.5      0.000      0.000
REMARK  Name = 
REMARK  5 active torsions:
REMARK  status: ('A' for Active; 'I' for Inactive)
REMARK    1  A    between atoms: C_2  and  C_3
REMARK    2  A    between atoms: C_3  and  O_4
REMARK    3  A    between atoms: O_4  and  C_5
REMARK    4  A    between atoms: N_20  and  C_21
REMARK    5  A    between atoms: C_21  and  C_22
REMARK                            x       y       z     vdW  Elec       q    Type
REMARK                         _______ _______ _______ _____ _____    ______ ____
ROOT
ATOM      1  C   UNL     1       1.270   8.828  19.605  0.00  0.00    +0.000 A 
ATOM      2  C   UNL     1       1.760   9.307  18.381  0.00  0.00    +0.000 A 
ATOM      3  C   UNL     1       2.701   8.558  17.591  0.00  0.00    +0.000 A 
ATOM      4  C   UNL     1       3.188   7.312  18.019  0.00  0.00    +0.000 A 
ATOM      5  C   UNL     1       4.105   6.338  17.308  0.00  0.00    +0.000 A 
ATOM      6  C   UNL     1       4.275   5.152  17.908  0.00  0.00    +0.000 A 
ATOM      7  C   UNL     1       3.684   4.781  19.219  0.00  0.00    +0.000 A 
ATOM      8  O   UNL     1       3.771   3.648  19.681  0.00  0.00    +0.000 OA
ATOM      9  O   UNL     1       3.102   5.767  19.936  0.00  0.00    +0.000 OA
ATOM     10  C   UNL     1       2.716   6.934  19.283  0.00  0.00    +0.000 A 
ATOM     11  C   UNL     1       1.794   7.642  20.055  0.00  0.00    +0.000 A 
ATOM     12  C   UNL     1       5.077   4.001  17.401  0.00  0.00    +0.000 C 
ATOM     13  C   UNL     1       5.787   4.133  16.082  0.00  0.00    +0.000 C 
ATOM     14  C   UNL     1       5.690   5.478  15.381  0.00  0.00    +0.000 C 
ATOM     15  C   UNL     1       4.796   6.605  15.987  0.00  0.00    +0.000 C 
ENDROOT
BRANCH   1  16
ATOM     16  O   UNL     1       0.347   9.557  20.318  0.00  0.00    +0.000 OA
BRANCH  16  17
ATOM     17  C   UNL     1       0.004   9.025  21.613  0.00  0.00    +0.000 C 
BRANCH  17  19
ATOM     18  O   UNL     1       0.008   9.952  23.847  0.00  0.00    +0.000 OA
ATOM     19  C   UNL     1      -0.339  10.076  22.670  0.00  0.00    +0.000 C 
ATOM     20  N   UNL     1      -0.992  11.178  22.187  0.00  0.00    +0.000 N 
ATOM     21  H   UNL     1      -1.283  11.162  21.214  0.00  0.00    +0.000 HD
BRANCH  20  22
ATOM     22  C   UNL     1      -1.394  12.280  23.025  0.00  0.00    +0.000 C 
BRANCH  22  23
ATOM     23  C   UNL     1      -2.888  12.445  23.018  0.00  0.00    +0.000 A 
ATOM     24  C   UNL     1      -3.615  12.406  24.212  0.00  0.00    +0.000 A 
ATOM     25  C   UNL     1      -4.990  12.566  24.159  0.00  0.00    +0.000 A 
ATOM     26  N   UNL     1      -5.680  12.767  23.017  0.00  0.00    +0.000 NA
ATOM     27  C   UNL     1      -4.960  12.812  21.875  0.00  0.00    +0.000 A 
ATOM     28  C   UNL     1      -3.583  12.654  21.824  0.00  0.00    +0.000 A 
ENDBRANCH  22  23
ENDBRANCH  20  22
ENDBRANCH  17  19
ENDBRANCH  16  17
ENDBRANCH   1  16
TORSDOF 5
ENDMDL
MODEL 2
REMARK VINA RESULT:      -8.4      3.822      9.651
REMARK  Name = 
REMARK  5 active torsions:
REMARK  status: ('A' for Active; 'I' for Inactive)
REMARK    1  A    between atoms: C_2  and  C_3
REMARK    2  A    between atoms: C_3  and  O_4
REMARK    3  A    between atoms: O_4  and  C_5
REMARK    4  A    between atoms: N_20  and  C_21
REMARK    5  A    between atoms: C_21  and  C_22
REMARK                            x       y       z     vdW  Elec       q    Type
REMARK                         _______ _______ _______ _____ _____    ______ ____
ROOT
ATOM      1  C   UNL     1       2.092   6.947  20.058  0.00  0.00    +0.000 A 
ATOM      2  C   UNL     1       2.230   7.677  18.868  0.00  0.00    +0.000 A 
ATOM      3  C   UNL     1       1.691   9.002  18.719  0.00  0.00    +0.000 A 
ATOM      4  C   UNL     1       0.983   9.626  19.759  0.00  0.00    +0.000 A 
ATOM      5  C   UNL     1       0.415  11.029  19.835  0.00  0.00    +0.000 A 
ATOM      6  C   UNL     1      -0.082  11.394  21.025  0.00  0.00    +0.000 A 
ATOM      7  C   UNL     1      -0.162  10.503  22.212  0.00  0.00    +0.000 A 
ATOM      8  O   UNL     1      -0.521  10.908  23.312  0.00  0.00    +0.000 OA
ATOM      9  O   UNL     1       0.104   9.193  22.020  0.00  0.00    +0.000 OA
ATOM     10  C   UNL     1       0.817   8.811  20.887  0.00  0.00    +0.000 A 
ATOM     11  C   UNL     1       1.344   7.529  21.052  0.00  0.00    +0.000 A 
ATOM     12  C   UNL     1      -0.650  12.725  21.386  0.00  0.00    +0.000 C 
ATOM     13  C   UNL     1      -0.688  13.807  20.343  0.00  0.00    +0.000 C 
ATOM     14  C   UNL     1      -0.201  13.438  18.951  0.00  0.00    +0.000 C 
ATOM     15  C   UNL     1       0.403  12.022  18.692  0.00  0.00    +0.000 C 
ENDROOT
BRANCH   1  16
ATOM     16  O   UNL     1       2.647   5.695  20.176  0.00  0.00    +0.000 OA
BRANCH  16  17
ATOM     17  C   UNL     1       1.831   4.608  19.695  0.00  0.00    +0.000 C 
BRANCH  17  19
ATOM     18  O   UNL     1       1.265   4.027  17.417  0.00  0.00    +0.000 OA
ATOM     19  C   UNL     1       2.147   4.148  18.271  0.00  0.00    +0.000 C 
ATOM     20  N   UNL     1       3.478   3.956  18.016  0.00  0.00    +0.000 N 
ATOM     21  H   UNL     1       4.121   4.027  18.798  0.00  0.00    +0.000 HD
BRANCH  20  22
ATOM     22  C   UNL     1       3.975   3.530  16.731  0.00  0.00    +0.000 C 
BRANCH  22  23
ATOM     23  C   UNL     1       5.193   4.320  16.336  0.00  0.00    +0.000 A 
ATOM     24  C   UNL     1       5.662   5.358  17.147  0.00  0.00    +0.000 A 
ATOM     25  C   UNL     1       6.789   6.057  16.747  0.00  0.00    +0.000 A 
ATOM     26  N   UNL     1       7.476   5.791  15.616  0.00  0.00    +0.000 NA
ATOM     27  C   UNL     1       7.014   4.778  14.852  0.00  0.00    +0.000 A 
ATOM     28  C   UNL     1       5.891   4.026  15.162  0.00  0.00    +0.000 A 
ENDBRANCH  22  23
ENDBRANCH  20  22
ENDBRANCH  17  19
ENDBRANCH  16  17
ENDBRANCH   1  16
TORSDOF 5
ENDMDL
MODEL 3
REMARK VINA RESULT:      -8.3      6.432      9.694
REMARK  Name = 
REMARK  5 active torsions:
REMARK  status: ('A' for Active; 'I' for Inactive)
REMARK    1  A    between atoms: C_2  and  C_3
REMARK    2  A    between atoms: C_3  and  O_4
REMARK    3  A    between atoms: O_4  and  C_5
REMARK    4  A    between atoms: N_20  and  C_21
REMARK    5  A    between atoms: C_21  and  C_22
REMARK                            x       y       z     vdW  Elec       q    Type
REMARK                         _______ _______ _______ _____ _____    ______ ____
ROOT
ATOM      1  C   UNL     1       6.394   6.165  17.001  0.00  0.00    +0.000 A 
ATOM      2  C   UNL     1       6.190   4.929  16.368  0.00  0.00    +0.000 A 
ATOM      3  C   UNL     1       5.128   4.040  16.758  0.00  0.00    +0.000 A 
ATOM      4  C   UNL     1       4.252   4.361  17.805  0.00  0.00    +0.000 A 
ATOM      5  C   UNL     1       3.034   3.613  18.310  0.00  0.00    +0.000 A 
ATOM      6  C   UNL     1       2.300   4.246  19.235  0.00  0.00    +0.000 A 
ATOM      7  C   UNL     1       2.644   5.569  19.819  0.00  0.00    +0.000 A 
ATOM      8  O   UNL     1       1.889   6.165  20.580  0.00  0.00    +0.000 OA
ATOM      9  O   UNL     1       3.867   6.069  19.540  0.00  0.00    +0.000 OA
ATOM     10  C   UNL     1       4.562   5.571  18.441  0.00  0.00    +0.000 A 
ATOM     11  C   UNL     1       5.579   6.450  18.068  0.00  0.00    +0.000 A 
ATOM     12  C   UNL     1       1.035   3.762  19.857  0.00  0.00    +0.000 C 
ATOM     13  C   UNL     1       0.478   2.431  19.434  0.00  0.00    +0.000 C 
ATOM     14  C   UNL     1       1.297   1.630  18.435  0.00  0.00    +0.000 C 
ATOM     15  C   UNL     1       2.594   2.247  17.825  0.00  0.00    +0.000 C 
ENDROOT
BRANCH   1  16
ATOM     16  O   UNL     1       7.400   7.004  16.582  0.00  0.00    +0.000 OA
BRANCH  16  17
ATOM     17  C   UNL     1       7.366   8.335  17.134  0.00  0.00    +0.000 C 
BRANCH  17  19
ATOM     18  O   UNL     1       8.712   7.624  19.013  0.00  0.00    +0.000 OA
ATOM     19  C   UNL     1       8.299   8.561  18.325  0.00  0.00    +0.000 C 
ATOM     20  N   UNL     1       8.681   9.861  18.512  0.00  0.00    +0.000 N 
ATOM     21  H   UNL     1       8.244  10.568  17.928  0.00  0.00    +0.000 HD
BRANCH  20  22
ATOM     22  C   UNL     1       9.563  10.274  19.576  0.00  0.00    +0.000 C 
BRANCH  22  23
ATOM     23  C   UNL     1      10.532  11.320  19.098  0.00  0.00    +0.000 A 
ATOM     24  C   UNL     1      10.607  11.654  17.742  0.00  0.00    +0.000 A 
ATOM     25  C   UNL     1      11.511  12.625  17.346  0.00  0.00    +0.000 A 
ATOM     26  N   UNL     1      12.328  13.283  18.196  0.00  0.00    +0.000 NA
ATOM     27  C   UNL     1      12.233  12.955  19.502  0.00  0.00    +0.000 A 
ATOM     28  C   UNL     1      11.367  11.991  19.995  0.00  0.00    +0.000 A 
ENDBRANCH  22  23
ENDBRANCH  20  22
ENDBRANCH  17  19
ENDBRANCH  16  17
ENDBRANCH   1  16
TORSDOF 5
ENDMDL
MODEL 4
REMARK VINA RESULT:      -8.3      3.549      8.892
REMARK  Name = 
REMARK  5 active torsions:
REMARK  status: ('A' for Active; 'I' for Inactive)
REMARK    1  A    between atoms: C_2  and  C_3
REMARK    2  A    between atoms: C_3  and  O_4
REMARK    3  A    between atoms: O_4  and  C_5
REMARK    4  A    between atoms: N_20  and  C_21
REMARK    5  A    between atoms: C_21  and  C_22
REMARK                            x       y       z     vdW  Elec       q    Type
REMARK                         _______ _______ _______ _____ _____    ______ ____
ROOT
ATOM      1  C   UNL     1       2.619   7.897  18.014  0.00  0.00    +0.000 A 
ATOM      2  C   UNL     1       2.434   7.307  19.274  0.00  0.00    +0.000 A 
ATOM      3  C   UNL     1       1.669   7.947  20.310  0.00  0.00    +0.000 A 
ATOM      4  C   UNL     1       1.081   9.206  20.115  0.00  0.00    +0.000 A 
ATOM      5  C   UNL     1       0.179  10.005  21.035  0.00  0.00    +0.000 A 
ATOM      6  C   UNL     1      -0.353  11.117  20.510  0.00  0.00    +0.000 A 
ATOM      7  C   UNL     1      -0.063  11.624  19.144  0.00  0.00    +0.000 A 
ATOM      8  O   UNL     1      -0.655  12.584  18.662  0.00  0.00    +0.000 OA
ATOM      9  O   UNL     1       0.945  11.033  18.467  0.00  0.00    +0.000 OA
ATOM     10  C   UNL     1       1.372   9.770  18.865  0.00  0.00    +0.000 A 
ATOM     11  C   UNL     1       2.102   9.157  17.845  0.00  0.00    +0.000 A 
ATOM     12  C   UNL     1      -1.308  12.050  21.175  0.00  0.00    +0.000 C 
ATOM     13  C   UNL     1      -1.755  11.755  22.580  0.00  0.00    +0.000 C 
ATOM     14  C   UNL     1      -1.136  10.544  23.258  0.00  0.00    +0.000 C 
ATOM     15  C   UNL     1      -0.169   9.617  22.457  0.00  0.00    +0.000 C 
ENDROOT
BRANCH   1  16
ATOM     16  O   UNL     1       3.330   7.242  17.036  0.00  0.00    +0.000 OA
BRANCH  16  17
ATOM     17  C   UNL     1       4.682   6.884  17.388  0.00  0.00    +0.000 C 
BRANCH  17  19
ATOM     18  O   UNL     1       5.577   5.364  19.043  0.00  0.00    +0.000 OA
ATOM     19  C   UNL     1       4.828   5.525  18.077  0.00  0.00    +0.000 C 
ATOM     20  N   UNL     1       4.015   4.543  17.578  0.00  0.00    +0.000 N 
ATOM     21  H   UNL     1       3.474   4.758  16.746  0.00  0.00    +0.000 HD
BRANCH  20  22
ATOM     22  C   UNL     1       4.002   3.198  18.098  0.00  0.00    +0.000 C 
BRANCH  22  23
ATOM     23  C   UNL     1       3.024   3.070  19.233  0.00  0.00    +0.000 A 
ATOM     24  C   UNL     1       3.447   2.639  20.494  0.00  0.00    +0.000 A 
ATOM     25  C   UNL     1       2.513   2.538  21.511  0.00  0.00    +0.000 A 
ATOM     26  N   UNL     1       1.206   2.842  21.364  0.00  0.00    +0.000 NA
ATOM     27  C   UNL     1       0.818   3.267  20.143  0.00  0.00    +0.000 A 
ATOM     28  C   UNL     1       1.675   3.392  19.060  0.00  0.00    +0.000 A 
ENDBRANCH  22  23
ENDBRANCH  20  22
ENDBRANCH  17  19
ENDBRANCH  16  17
ENDBRANCH   1  16
TORSDOF 5
ENDMDL
MODEL 5
REMARK VINA RESULT:      -8.3      7.454      9.238
REMARK  Name = 
REMARK  5 active torsions:
REMARK  status: ('A' for Active; 'I' for Inactive)
REMARK    1  A    between atoms: C_2  and  C_3
REMARK    2  A    between atoms: C_3  and  O_4
REMARK    3  A    between atoms: O_4  and  C_5
REMARK    4  A    between atoms: N_20  and  C_21
REMARK    5  A    between atoms: C_21  and  C_22
REMARK                            x       y       z     vdW  Elec       q    Type
REMARK                         _______ _______ _______ _____ _____    ______ ____
ROOT
ATOM      1  C   UNL     1       6.976   6.893  17.901  0.00  0.00    +0.000 A 
ATOM      2  C   UNL     1       5.805   7.337  17.268  0.00  0.00    +0.000 A 
ATOM      3  C   UNL     1       4.581   6.584  17.314  0.00  0.00    +0.000 A 
ATOM      4  C   UNL     1       4.503   5.354  17.986  0.00  0.00    +0.000 A 
ATOM      5  C   UNL     1       3.305   4.456  18.222  0.00  0.00    +0.000 A 
ATOM      6  C   UNL     1       3.509   3.410  19.034  0.00  0.00    +0.000 A 
ATOM      7  C   UNL     1       4.820   3.061  19.641  0.00  0.00    +0.000 A 
ATOM      8  O   UNL     1       4.941   2.162  20.467  0.00  0.00    +0.000 OA
ATOM      9  O   UNL     1       5.906   3.725  19.191  0.00  0.00    +0.000 OA
ATOM     10  C   UNL     1       5.726   4.936  18.528  0.00  0.00    +0.000 A 
ATOM     11  C   UNL     1       6.919   5.660  18.502  0.00  0.00    +0.000 A 
ATOM     12  C   UNL     1       2.496   2.408  19.472  0.00  0.00    +0.000 C 
ATOM     13  C   UNL     1       1.081   2.541  18.983  0.00  0.00    +0.000 C 
ATOM     14  C   UNL     1       0.795   3.668  18.004  0.00  0.00    +0.000 C 
ATOM     15  C   UNL     1       1.926   4.680  17.637  0.00  0.00    +0.000 C 
ENDROOT
BRANCH   1  16
ATOM     16  O   UNL     1       8.120   7.655  17.863  0.00  0.00    +0.000 OA
BRANCH  16  17
ATOM     17  C   UNL     1       7.913   9.078  17.758  0.00  0.00    +0.000 C 
BRANCH  17  19
ATOM     18  O   UNL     1       9.155   9.765  19.717  0.00  0.00    +0.000 OA
ATOM     19  C   UNL     1       8.931   9.933  18.516  0.00  0.00    +0.000 C 
ATOM     20  N   UNL     1       9.608  10.834  17.740  0.00  0.00    +0.000 N 
ATOM     21  H   UNL     1       9.314  10.936  16.773  0.00  0.00    +0.000 HD
BRANCH  20  22
ATOM     22  C   UNL     1      10.612  11.724  18.269  0.00  0.00    +0.000 C 
BRANCH  22  23
ATOM     23  C   UNL     1      10.224  13.161  18.055  0.00  0.00    +0.000 A 
ATOM     24  C   UNL     1      11.071  14.032  17.362  0.00  0.00    +0.000 A 
ATOM     25  C   UNL     1      10.672  15.347  17.185  0.00  0.00    +0.000 A 
ATOM     26  N   UNL     1       9.501  15.844  17.636  0.00  0.00    +0.000 NA
ATOM     27  C   UNL     1       8.692  14.985  18.292  0.00  0.00    +0.000 A 
ATOM     28  C   UNL     1       9.006  13.655  18.528  0.00  0.00    +0.000 A 
ENDBRANCH  22  23
ENDBRANCH  20  22
ENDBRANCH  17  19
ENDBRANCH  16  17
ENDBRANCH   1  16
TORSDOF 5
ENDMDL
MODEL 6
REMARK VINA RESULT:      -8.2      2.463      3.318
REMARK  Name = 
REMARK  5 active torsions:
REMARK  status: ('A' for Active; 'I' for Inactive)
REMARK    1  A    between atoms: C_2  and  C_3
REMARK    2  A    between atoms: C_3  and  O_4
REMARK    3  A    between atoms: O_4  and  C_5
REMARK    4  A    between atoms: N_20  and  C_21
REMARK    5  A    between atoms: C_21  and  C_22
REMARK                            x       y       z     vdW  Elec       q    Type
REMARK                         _______ _______ _______ _____ _____    ______ ____
ROOT
ATOM      1  C   UNL     1       0.636   9.891  19.380  0.00  0.00    +0.000 A 
ATOM      2  C   UNL     1       1.397   9.953  18.204  0.00  0.00    +0.000 A 
ATOM      3  C   UNL     1       2.282   8.888  17.811  0.00  0.00    +0.000 A 
ATOM      4  C   UNL     1       2.437   7.738  18.599  0.00  0.00    +0.000 A 
ATOM      5  C   UNL     1       3.241   6.482  18.328  0.00  0.00    +0.000 A 
ATOM      6  C   UNL     1       3.076   5.481  19.203  0.00  0.00    +0.000 A 
ATOM      7  C   UNL     1       2.225   5.560  20.419  0.00  0.00    +0.000 A 
ATOM      8  O   UNL     1       2.011   4.587  21.134  0.00  0.00    +0.000 OA
ATOM      9  O   UNL     1       1.746   6.776  20.761  0.00  0.00    +0.000 OA
ATOM     10  C   UNL     1       1.707   7.778  19.795  0.00  0.00    +0.000 A 
ATOM     11  C   UNL     1       0.836   8.797  20.185  0.00  0.00    +0.000 A 
ATOM     12  C   UNL     1       3.702   4.129  19.144  0.00  0.00    +0.000 C 
ATOM     13  C   UNL     1       4.621   3.802  18.000  0.00  0.00    +0.000 C 
ATOM     14  C   UNL     1       4.905   4.917  17.006  0.00  0.00    +0.000 C 
ATOM     15  C   UNL     1       4.170   6.287  17.148  0.00  0.00    +0.000 C 
ENDROOT
BRANCH   1  16
ATOM     16  O   UNL     1      -0.223  10.914  19.708  0.00  0.00    +0.000 OA
BRANCH  16  17
ATOM     17  C   UNL     1      -0.826  11.598  18.591  0.00  0.00    +0.000 C 
BRANCH  17  19
ATOM     18  O   UNL     1      -2.367   9.829  18.002  0.00  0.00    +0.000 OA
ATOM     19  C   UNL     1      -2.181  11.039  18.151  0.00  0.00    +0.000 C 
ATOM     20  N   UNL     1      -3.166  11.979  18.009  0.00  0.00    +0.000 N 
ATOM     21  H   UNL     1      -2.901  12.955  18.100  0.00  0.00    +0.000 HD
BRANCH  20  22
ATOM     22  C   UNL     1      -4.511  11.648  17.609  0.00  0.00    +0.000 C 
BRANCH  22  23
ATOM     23  C   UNL     1      -5.410  11.509  18.806  0.00  0.00    +0.000 A 
ATOM     24  C   UNL     1      -6.362  10.487  18.866  0.00  0.00    +0.000 A 
ATOM     25  C   UNL     1      -7.168  10.393  19.990  0.00  0.00    +0.000 A 
ATOM     26  N   UNL     1      -7.084  11.230  21.045  0.00  0.00    +0.000 NA
ATOM     27  C   UNL     1      -6.152  12.204  20.973  0.00  0.00    +0.000 A 
ATOM     28  C   UNL     1      -5.306  12.385  19.889  0.00  0.00    +0.000 A 
ENDBRANCH  22  23
ENDBRANCH  20  22
ENDBRANCH  17  19
ENDBRANCH  16  17
ENDBRANCH   1  16
TORSDOF 5
ENDMDL
MODEL 7
REMARK VINA RESULT:      -8.1      2.551      3.129
REMARK  Name = 
REMARK  5 active torsions:
REMARK  status: ('A' for Active; 'I' for Inactive)
REMARK    1  A    between atoms: C_2  and  C_3
REMARK    2  A    between atoms: C_3  and  O_4
REMARK    3  A    between atoms: O_4  and  C_5
REMARK    4  A    between atoms: N_20  and  C_21
REMARK    5  A    between atoms: C_21  and  C_22
REMARK                            x       y       z     vdW  Elec       q    Type
REMARK                         _______ _______ _______ _____ _____    ______ ____
ROOT
ATOM      1  C   UNL     1       1.669   7.471  20.226  0.00  0.00    +0.000 A 
ATOM      2  C   UNL     1       2.092   8.280  19.160  0.00  0.00    +0.000 A 
ATOM      3  C   UNL     1       2.977   7.790  18.137  0.00  0.00    +0.000 A 
ATOM      4  C   UNL     1       3.474   6.478  18.165  0.00  0.00    +0.000 A 
ATOM      5  C   UNL     1       4.338   5.750  17.155  0.00  0.00    +0.000 A 
ATOM      6  C   UNL     1       4.530   4.443  17.384  0.00  0.00    +0.000 A 
ATOM      7  C   UNL     1       4.013   3.713  18.570  0.00  0.00    +0.000 A 
ATOM      8  O   UNL     1       4.115   2.496  18.686  0.00  0.00    +0.000 OA
ATOM      9  O   UNL     1       3.484   4.452  19.569  0.00  0.00    +0.000 OA
ATOM     10  C   UNL     1       3.073   5.754  19.297  0.00  0.00    +0.000 A 
ATOM     11  C   UNL     1       2.206   6.210  20.291  0.00  0.00    +0.000 A 
ATOM     12  C   UNL     1       5.289   3.488  16.526  0.00  0.00    +0.000 C 
ATOM     13  C   UNL     1       5.921   3.992  15.259  0.00  0.00    +0.000 C 
ATOM     14  C   UNL     1       5.798   5.479  14.973  0.00  0.00    +0.000 C 
ATOM     15  C   UNL     1       4.953   6.383  15.925  0.00  0.00    +0.000 C 
ENDROOT
BRANCH   1  16
ATOM     16  O   UNL     1       0.797   7.963  21.169  0.00  0.00    +0.000 OA
BRANCH  16  17
ATOM     17  C   UNL     1       1.073   9.302  21.629  0.00  0.00    +0.000 C 
BRANCH  17  19
ATOM     18  O   UNL     1      -0.860  10.569  22.341  0.00  0.00    +0.000 OA
ATOM     19  C   UNL     1      -0.071  10.298  21.432  0.00  0.00    +0.000 C 
ATOM     20  N   UNL     1      -0.096  10.901  20.204  0.00  0.00    +0.000 N 
ATOM     21  H   UNL     1       0.561  10.571  19.504  0.00  0.00    +0.000 HD
BRANCH  20  22
ATOM     22  C   UNL     1      -1.093  11.874  19.830  0.00  0.00    +0.000 C 
BRANCH  22  23
ATOM     23  C   UNL     1      -1.978  11.345  18.736  0.00  0.00    +0.000 A 
ATOM     24  C   UNL     1      -1.492  10.413  17.814  0.00  0.00    +0.000 A 
ATOM     25  C   UNL     1      -2.343   9.949  16.824  0.00  0.00    +0.000 A 
ATOM     26  N   UNL     1      -3.630  10.337  16.698  0.00  0.00    +0.000 NA
ATOM     27  C   UNL     1      -4.085  11.228  17.604  0.00  0.00    +0.000 A 
ATOM     28  C   UNL     1      -3.309  11.757  18.624  0.00  0.00    +0.000 A 
ENDBRANCH  22  23
ENDBRANCH  20  22
ENDBRANCH  17  19
ENDBRANCH  16  17
ENDBRANCH   1  16
TORSDOF 5
ENDMDL
MODEL 8
REMARK VINA RESULT:      -8.0      4.352     10.415
REMARK  Name = 
REMARK  5 active torsions:
REMARK  status: ('A' for Active; 'I' for Inactive)
REMARK    1  A    between atoms: C_2  and  C_3
REMARK    2  A    between atoms: C_3  and  O_4
REMARK    3  A    between atoms: O_4  and  C_5
REMARK    4  A    between atoms: N_20  and  C_21
REMARK    5  A    between atoms: C_21  and  C_22
REMARK                            x       y       z     vdW  Elec       q    Type
REMARK                         _______ _______ _______ _____ _____    ______ ____
ROOT
ATOM      1  C   UNL     1       2.917   5.267  18.932  0.00  0.00    +0.000 A 
ATOM      2  C   UNL     1       2.376   5.074  20.213  0.00  0.00    +0.000 A 
ATOM      3  C   UNL     1       1.719   6.134  20.930  0.00  0.00    +0.000 A 
ATOM      4  C   UNL     1       1.602   7.423  20.386  0.00  0.00    +0.000 A 
ATOM      5  C   UNL     1       0.884   8.640  20.933  0.00  0.00    +0.000 A 
ATOM      6  C   UNL     1       0.817   9.697  20.112  0.00  0.00    +0.000 A 
ATOM      7  C   UNL     1       1.445   9.757  18.767  0.00  0.00    +0.000 A 
ATOM      8  O   UNL     1       1.266  10.699  18.002  0.00  0.00    +0.000 OA
ATOM      9  O   UNL     1       2.294   8.761  18.436  0.00  0.00    +0.000 OA
ATOM     10  C   UNL     1       2.231   7.562  19.142  0.00  0.00    +0.000 A 
ATOM     11  C   UNL     1       2.861   6.542  18.428  0.00  0.00    +0.000 A 
ATOM     12  C   UNL     1       0.129  10.993  20.378  0.00  0.00    +0.000 C 
ATOM     13  C   UNL     1      -0.582  11.184  21.689  0.00  0.00    +0.000 C 
ATOM     14  C   UNL     1      -0.489  10.048  22.694  0.00  0.00    +0.000 C 
ATOM     15  C   UNL     1       0.232   8.721  22.298  0.00  0.00    +0.000 C 
ENDROOT
BRANCH   1  16
ATOM     16  O   UNL     1       3.510   4.222  18.263  0.00  0.00    +0.000 OA
BRANCH  16  17
ATOM     17  C   UNL     1       4.797   3.813  18.770  0.00  0.00    +0.000 C 
BRANCH  17  19
ATOM     18  O   UNL     1       7.115   4.474  18.577  0.00  0.00    +0.000 OA
ATOM     19  C   UNL     1       5.997   4.439  18.057  0.00  0.00    +0.000 C 
ATOM     20  N   UNL     1       5.739   4.883  16.789  0.00  0.00    +0.000 N 
ATOM     21  H   UNL     1       4.775   4.861  16.470  0.00  0.00    +0.000 HD
BRANCH  20  22
ATOM     22  C   UNL     1       6.743   5.495  15.954  0.00  0.00    +0.000 C 
BRANCH  22  23
ATOM     23  C   UNL     1       6.727   4.905  14.571  0.00  0.00    +0.000 A 
ATOM     24  C   UNL     1       7.673   5.296  13.619  0.00  0.00    +0.000 A 
ATOM     25  C   UNL     1       7.623   4.724  12.358  0.00  0.00    +0.000 A 
ATOM     26  N   UNL     1       6.715   3.795  11.990  0.00  0.00    +0.000 NA
ATOM     27  C   UNL     1       5.818   3.422  12.926  0.00  0.00    +0.000 A 
ATOM     28  C   UNL     1       5.780   3.943  14.211  0.00  0.00    +0.000 A 
ENDBRANCH  22  23
ENDBRANCH  20  22
ENDBRANCH  17  19
ENDBRANCH  16  17
ENDBRANCH   1  16
TORSDOF 5
ENDMDL
MODEL 9
REMARK VINA RESULT:      -8.0      4.507      6.484
REMARK  Name = 
REMARK  5 active torsions:
REMARK  status: ('A' for Active; 'I' for Inactive)
REMARK    1  A    between atoms: C_2  and  C_3
REMARK    2  A    between atoms: C_3  and  O_4
REMARK    3  A    between atoms: O_4  and  C_5
REMARK    4  A    between atoms: N_20  and  C_21
REMARK    5  A    between atoms: C_21  and  C_22
REMARK                            x       y       z     vdW  Elec       q    Type
REMARK                         _______ _______ _______ _____ _____    ______ ____
ROOT
ATOM      1  C   UNL     1       3.116   2.553  18.376  0.00  0.00    +0.000 A 
ATOM      2  C   UNL     1       4.041   2.580  19.430  0.00  0.00    +0.000 A 
ATOM      3  C   UNL     1       5.130   3.519  19.465  0.00  0.00    +0.000 A 
ATOM      4  C   UNL     1       5.329   4.448  18.432  0.00  0.00    +0.000 A 
ATOM      5  C   UNL     1       6.349   5.563  18.318  0.00  0.00    +0.000 A 
ATOM      6  C   UNL     1       6.198   6.390  17.274  0.00  0.00    +0.000 A 
ATOM      7  C   UNL     1       5.157   6.236  16.224  0.00  0.00    +0.000 A 
ATOM      8  O   UNL     1       4.981   7.076  15.348  0.00  0.00    +0.000 OA
ATOM      9  O   UNL     1       4.449   5.086  16.220  0.00  0.00    +0.000 OA
ATOM     10  C   UNL     1       4.416   4.313  17.377  0.00  0.00    +0.000 A 
ATOM     11  C   UNL     1       3.347   3.416  17.334  0.00  0.00    +0.000 A 
ATOM     12  C   UNL     1       7.024   7.589  16.957  0.00  0.00    +0.000 C 
ATOM     13  C   UNL     1       8.157   7.956  17.875  0.00  0.00    +0.000 C 
ATOM     14  C   UNL     1       8.426   7.021  19.043  0.00  0.00    +0.000 C 
ATOM     15  C   UNL     1       7.477   5.808  19.298  0.00  0.00    +0.000 C 
ENDROOT
BRANCH   1  16
ATOM     16  O   UNL     1       2.069   1.662  18.391  0.00  0.00    +0.000 OA
BRANCH  16  17
ATOM     17  C   UNL     1       0.871   2.125  19.048  0.00  0.00    +0.000 C 
BRANCH  17  19
ATOM     18  O   UNL     1       1.115   2.691  21.386  0.00  0.00    +0.000 OA
ATOM     19  C   UNL     1       1.109   3.083  20.217  0.00  0.00    +0.000 C 
ATOM     20  N   UNL     1       1.380   4.374  19.851  0.00  0.00    +0.000 N 
ATOM     21  H   UNL     1       1.298   4.610  18.867  0.00  0.00    +0.000 HD
BRANCH  20  22
ATOM     22  C   UNL     1       1.639   5.421  20.807  0.00  0.00    +0.000 C 
BRANCH  22  23
ATOM     23  C   UNL     1       1.707   6.762  20.131  0.00  0.00    +0.000 A 
ATOM     24  C   UNL     1       1.150   7.894  20.735  0.00  0.00    +0.000 A 
ATOM     25  C   UNL     1       1.239   9.110  20.078  0.00  0.00    +0.000 A 
ATOM     26  N   UNL     1       1.844   9.276  18.883  0.00  0.00    +0.000 NA
ATOM     27  C   UNL     1       2.386   8.175  18.321  0.00  0.00    +0.000 A 
ATOM     28  C   UNL     1       2.340   6.913  18.895  0.00  0.00    +0.000 A 
ENDBRANCH  22  23
ENDBRANCH  20  22
ENDBRANCH  17  19
ENDBRANCH  16  17
ENDBRANCH   1  16
TORSDOF 5
ENDMDL
