MODEL 1
REMARK VINA RESULT:      -7.5      0.000      0.000
REMARK  Name = 
REMARK  6 active torsions:
REMARK  status: ('A' for Active; 'I' for Inactive)
REMARK    1  A    between atoms: C_2  and  C_18
REMARK    2  A    between atoms: N_3  and  CA_4
REMARK    3  A    between atoms: CA_4  and  CB_5
REMARK    4  A    between atoms: CA_4  and  C_15
REMARK    5  A    between atoms: CB_5  and  CG_6
REMARK    6  A    between atoms: C_15  and  OXT_17
REMARK                            x       y       z     vdW  Elec       q    Type
REMARK                         _______ _______ _______ _____ _____    ______ ____
ROOT
ATOM      1  CA  TRP A   1       2.332   3.474  18.117  0.00  0.00    +0.000 C 
ENDROOT
BRANCH   1   4
ATOM      2  O   UNK A   0       2.926   5.008  20.425  0.00  0.00    +0.000 OA
ATOM      3  C   UNK A   0       2.346   5.560  19.492  0.00  0.00    +0.000 C 
ATOM      4  N   TRP A   1       1.981   4.876  18.360  0.00  0.00    +0.000 N 
ATOM      5  H   TRP A   1       1.517   5.360  17.595  0.00  0.00    +0.000 HD
BRANCH   3   6
ATOM      6  C   UNK A   0       1.971   7.001  19.593  0.00  0.00    +0.000 A 
ATOM      7  C   UNK A   0       1.257   7.377  20.748  0.00  0.00    +0.000 A 
ATOM      8  C   UNK A   0       0.865   8.703  20.941  0.00  0.00    +0.000 A 
ATOM      9 BR   UNK A   0      -0.087   9.189  22.501  0.00  0.00    +0.000 Br
ATOM     10  C   UNK A   0       1.175   9.676  19.997  0.00  0.00    +0.000 A 
ATOM     11  C   UNK A   0       1.890   9.317  18.855  0.00  0.00    +0.000 A 
ATOM     12  C   UNK A   0       2.297   7.989  18.651  0.00  0.00    +0.000 A 
ATOM     13 CL   UNK A   0       3.241   7.700  17.235  0.00  0.00    +0.000 Cl
ENDBRANCH   3   6
ENDBRANCH   1   4
BRANCH   1  14
ATOM     14  C   TRP A   1       1.480   2.571  19.014  0.00  0.00    +0.000 C 
ATOM     15  O   TRP A   1       0.348   2.192  18.731  0.00  0.00    +0.000 OA
BRANCH  14  16
ATOM     16  OXT TRP A   1       2.086   2.170  20.160  0.00  0.00    +0.000 OA
ATOM     17  HXT TRP A   1       1.480   1.984  20.903  0.00  0.00    +0.000 HD
ENDBRANCH  14  16
ENDBRANCH   1  14
BRANCH   1  18
ATOM     18  CB  TRP A   1       3.830   3.201  18.290  0.00  0.00    +0.000 C 
BRANCH  18  19
ATOM     19  CG  TRP A   1       4.734   4.067  17.464  0.00  0.00    +0.000 A 
ATOM     20  CD1 TRP A   1       4.634   4.318  16.109  0.00  0.00    +0.000 A 
ATOM     21  NE1 TRP A   1       5.588   5.244  15.774  0.00  0.00    +0.000 N 
ATOM     22  CE2 TRP A   1       6.292   5.624  16.891  0.00  0.00    +0.000 A 
ATOM     23  CZ2 TRP A   1       7.288   6.595  17.046  0.00  0.00    +0.000 A 
ATOM     24  CH2 TRP A   1       7.846   6.753  18.319  0.00  0.00    +0.000 A 
ATOM     25  CZ3 TRP A   1       7.445   5.949  19.383  0.00  0.00    +0.000 A 
ATOM     26  CE3 TRP A   1       6.439   4.994  19.213  0.00  0.00    +0.000 A 
ATOM     27  CD2 TRP A   1       5.830   4.846  17.951  0.00  0.00    +0.000 A 
ATOM     28  HE1 TRP A   1       5.736   5.619  14.847  0.00  0.00    +0.000 HD
ENDBRANCH  18  19
ENDBRANCH   1  18
TORSDOF 6
ENDMDL
MODEL 2
REMARK VINA RESULT:      -7.5      2.088      2.536
REMARK  Name = 
REMARK  6 active torsions:
REMARK  status: ('A' for Active; 'I' for Inactive)
REMARK    1  A    between atoms: C_2  and  C_18
REMARK    2  A    between atoms: N_3  and  CA_4
REMARK    3  A    between atoms: CA_4  and  CB_5
REMARK    4  A    between atoms: CA_4  and  C_15
REMARK    5  A    between atoms: CB_5  and  CG_6
REMARK    6  A    between atoms: C_15  and  OXT_17
REMARK                            x       y       z     vdW  Elec       q    Type
REMARK                         _______ _______ _______ _____ _____    ______ ____
ROOT
ATOM      1  CA  TRP A   1       4.034   3.004  17.592  0.00  0.00    +0.000 C 
ENDROOT
BRANCH   1   4
ATOM      2  O   UNK A   0       1.559   4.369  17.392  0.00  0.00    +0.000 OA
ATOM      3  C   UNK A   0       2.412   4.819  18.155  0.00  0.00    +0.000 C 
ATOM      4  N   TRP A   1       3.651   4.243  18.273  0.00  0.00    +0.000 N 
ATOM      5  H   TRP A   1       4.335   4.624  18.924  0.00  0.00    +0.000 HD
BRANCH   3   6
ATOM      6  C   UNK A   0       2.133   6.054  18.944  0.00  0.00    +0.000 A 
ATOM      7  C   UNK A   0       2.117   7.263  18.221  0.00  0.00    +0.000 A 
ATOM      8  C   UNK A   0       1.859   8.474  18.867  0.00  0.00    +0.000 A 
ATOM      9 BR   UNK A   0       1.835  10.085  17.877  0.00  0.00    +0.000 Br
ATOM     10  C   UNK A   0       1.611   8.506  20.234  0.00  0.00    +0.000 A 
ATOM     11  C   UNK A   0       1.613   7.315  20.958  0.00  0.00    +0.000 A 
ATOM     12  C   UNK A   0       1.864   6.089  20.321  0.00  0.00    +0.000 A 
ATOM     13 CL   UNK A   0       1.761   4.687  21.322  0.00  0.00    +0.000 Cl
ENDBRANCH   3   6
ENDBRANCH   1   4
BRANCH   1  14
ATOM     14  C   TRP A   1       4.286   1.907  18.630  0.00  0.00    +0.000 C 
ATOM     15  O   TRP A   1       4.773   2.108  19.739  0.00  0.00    +0.000 OA
BRANCH  14  16
ATOM     16  OXT TRP A   1       3.893   0.664  18.254  0.00  0.00    +0.000 OA
ATOM     17  HXT TRP A   1       3.022   0.622  17.816  0.00  0.00    +0.000 HD
ENDBRANCH  14  16
ENDBRANCH   1  14
BRANCH   1  18
ATOM     18  CB  TRP A   1       5.233   3.189  16.655  0.00  0.00    +0.000 C 
BRANCH  18  19
ATOM     19  CG  TRP A   1       5.665   4.611  16.449  0.00  0.00    +0.000 A 
ATOM     20  CD1 TRP A   1       5.194   5.492  15.494  0.00  0.00    +0.000 A 
ATOM     21  NE1 TRP A   1       5.770   6.715  15.720  0.00  0.00    +0.000 N 
ATOM     22  CE2 TRP A   1       6.586   6.658  16.824  0.00  0.00    +0.000 A 
ATOM     23  CZ2 TRP A   1       7.301   7.670  17.474  0.00  0.00    +0.000 A 
ATOM     24  CH2 TRP A   1       8.074   7.307  18.582  0.00  0.00    +0.000 A 
ATOM     25  CZ3 TRP A   1       8.153   5.981  19.000  0.00  0.00    +0.000 A 
ATOM     26  CE3 TRP A   1       7.420   4.986  18.347  0.00  0.00    +0.000 A 
ATOM     27  CD2 TRP A   1       6.599   5.332  17.255  0.00  0.00    +0.000 A 
ATOM     28  HE1 TRP A   1       5.597   7.550  15.176  0.00  0.00    +0.000 HD
ENDBRANCH  18  19
ENDBRANCH   1  18
TORSDOF 6
ENDMDL
MODEL 3
REMARK VINA RESULT:      -7.4      1.011      1.867
REMARK  Name = 
REMARK  6 active torsions:
REMARK  status: ('A' for Active; 'I' for Inactive)
REMARK    1  A    between atoms: C_2  and  C_18
REMARK    2  A    between atoms: N_3  and  CA_4
REMARK    3  A    between atoms: CA_4  and  CB_5
REMARK    4  A    between atoms: CA_4  and  C_15
REMARK    5  A    between atoms: CB_5  and  CG_6
REMARK    6  A    between atoms: C_15  and  OXT_17
REMARK                            x       y       z     vdW  Elec       q    Type
REMARK                         _______ _______ _______ _____ _____    ______ ____
ROOT
ATOM      1  CA  TRP A   1       2.597   3.638  18.613  0.00  0.00    +0.000 C 
ENDROOT
BRANCH   1   4
ATOM      2  O   UNK A   0       2.519   5.149  21.009  0.00  0.00    +0.000 OA
ATOM      3  C   UNK A   0       2.206   5.707  19.959  0.00  0.00    +0.000 C 
ATOM      4  N   TRP A   1       2.173   5.033  18.765  0.00  0.00    +0.000 N 
ATOM      5  H   TRP A   1       1.927   5.521  17.905  0.00  0.00    +0.000 HD
BRANCH   3   6
ATOM      6  C   UNK A   0       1.796   7.142  19.967  0.00  0.00    +0.000 A 
ATOM      7  C   UNK A   0       1.083   7.577  21.101  0.00  0.00    +0.000 A 
ATOM      8  C   UNK A   0       0.660   8.903  21.208  0.00  0.00    +0.000 A 
ATOM      9 BR   UNK A   0      -0.290   9.470  22.741  0.00  0.00    +0.000 Br
ATOM     10  C   UNK A   0       0.938   9.818  20.198  0.00  0.00    +0.000 A 
ATOM     11  C   UNK A   0       1.653   9.401  19.076  0.00  0.00    +0.000 A 
ATOM     12  C   UNK A   0       2.090   8.071  18.958  0.00  0.00    +0.000 A 
ATOM     13 CL   UNK A   0       3.029   7.711  17.555  0.00  0.00    +0.000 Cl
ENDBRANCH   3   6
ENDBRANCH   1   4
BRANCH   1  14
ATOM     14  C   TRP A   1       1.579   2.718  19.291  0.00  0.00    +0.000 C 
ATOM     15  O   TRP A   1       0.534   2.343  18.766  0.00  0.00    +0.000 OA
BRANCH  14  16
ATOM     16  OXT TRP A   1       1.928   2.295  20.532  0.00  0.00    +0.000 OA
ATOM     17  HXT TRP A   1       1.218   2.348  21.200  0.00  0.00    +0.000 HD
ENDBRANCH  14  16
ENDBRANCH   1  14
BRANCH   1  18
ATOM     18  CB  TRP A   1       4.020   3.394  19.129  0.00  0.00    +0.000 C 
BRANCH  18  19
ATOM     19  CG  TRP A   1       5.063   4.323  18.585  0.00  0.00    +0.000 A 
ATOM     20  CD1 TRP A   1       5.861   5.191  19.306  0.00  0.00    +0.000 A 
ATOM     21  NE1 TRP A   1       6.751   5.773  18.441  0.00  0.00    +0.000 N 
ATOM     22  CE2 TRP A   1       6.568   5.282  17.171  0.00  0.00    +0.000 A 
ATOM     23  CZ2 TRP A   1       7.291   5.517  15.997  0.00  0.00    +0.000 A 
ATOM     24  CH2 TRP A   1       6.856   4.880  14.829  0.00  0.00    +0.000 A 
ATOM     25  CZ3 TRP A   1       5.725   4.069  14.833  0.00  0.00    +0.000 A 
ATOM     26  CE3 TRP A   1       5.023   3.834  16.019  0.00  0.00    +0.000 A 
ATOM     27  CD2 TRP A   1       5.467   4.428  17.217  0.00  0.00    +0.000 A 
ATOM     28  HE1 TRP A   1       7.461   6.445  18.700  0.00  0.00    +0.000 HD
ENDBRANCH  18  19
ENDBRANCH   1  18
TORSDOF 6
ENDMDL
MODEL 4
REMARK VINA RESULT:      -7.4      1.388      1.719
REMARK  Name = 
REMARK  6 active torsions:
REMARK  status: ('A' for Active; 'I' for Inactive)
REMARK    1  A    between atoms: C_2  and  C_18
REMARK    2  A    between atoms: N_3  and  CA_4
REMARK    3  A    between atoms: CA_4  and  CB_5
REMARK    4  A    between atoms: CA_4  and  C_15
REMARK    5  A    between atoms: CB_5  and  CG_6
REMARK    6  A    between atoms: C_15  and  OXT_17
REMARK                            x       y       z     vdW  Elec       q    Type
REMARK                         _______ _______ _______ _____ _____    ______ ____
ROOT
ATOM      1  CA  TRP A   1       2.570   4.087  20.240  0.00  0.00    +0.000 C 
ENDROOT
BRANCH   1   4
ATOM      2  O   UNK A   0       2.275   6.113  18.280  0.00  0.00    +0.000 OA
ATOM      3  C   UNK A   0       2.044   6.399  19.453  0.00  0.00    +0.000 C 
ATOM      4  N   TRP A   1       2.208   5.489  20.466  0.00  0.00    +0.000 N 
ATOM      5  H   TRP A   1       1.993   5.745  21.427  0.00  0.00    +0.000 HD
BRANCH   3   6
ATOM      6  C   UNK A   0       1.622   7.784  19.815  0.00  0.00    +0.000 A 
ATOM      7  C   UNK A   0       1.108   7.957  21.115  0.00  0.00    +0.000 A 
ATOM      8  C   UNK A   0       0.692   9.216  21.553  0.00  0.00    +0.000 A 
ATOM      9 BR   UNK A   0       0.011   9.429  23.304  0.00  0.00    +0.000 Br
ATOM     10  C   UNK A   0       0.780  10.321  20.714  0.00  0.00    +0.000 A 
ATOM     11  C   UNK A   0       1.297  10.164  19.428  0.00  0.00    +0.000 A 
ATOM     12  C   UNK A   0       1.726   8.905  18.977  0.00  0.00    +0.000 A 
ATOM     13 CL   UNK A   0       2.415   8.869  17.394  0.00  0.00    +0.000 Cl
ENDBRANCH   3   6
ENDBRANCH   1   4
BRANCH   1  14
ATOM     14  C   TRP A   1       1.891   3.208  21.293  0.00  0.00    +0.000 C 
ATOM     15  O   TRP A   1       2.432   2.832  22.329  0.00  0.00    +0.000 OA
BRANCH  14  16
ATOM     16  OXT TRP A   1       0.600   2.888  21.024  0.00  0.00    +0.000 OA
ATOM     17  HXT TRP A   1       0.457   2.435  20.171  0.00  0.00    +0.000 HD
ENDBRANCH  14  16
ENDBRANCH   1  14
BRANCH   1  18
ATOM     18  CB  TRP A   1       4.086   3.866  20.204  0.00  0.00    +0.000 C 
BRANCH  18  19
ATOM     19  CG  TRP A   1       4.703   3.904  18.837  0.00  0.00    +0.000 A 
ATOM     20  CD1 TRP A   1       4.303   3.187  17.725  0.00  0.00    +0.000 A 
ATOM     21  NE1 TRP A   1       5.060   3.595  16.658  0.00  0.00    +0.000 N 
ATOM     22  CE2 TRP A   1       5.929   4.587  17.045  0.00  0.00    +0.000 A 
ATOM     23  CZ2 TRP A   1       6.820   5.355  16.288  0.00  0.00    +0.000 A 
ATOM     24  CH2 TRP A   1       7.602   6.296  16.967  0.00  0.00    +0.000 A 
ATOM     25  CZ3 TRP A   1       7.517   6.437  18.350  0.00  0.00    +0.000 A 
ATOM     26  CE3 TRP A   1       6.610   5.671  19.087  0.00  0.00    +0.000 A 
ATOM     27  CD2 TRP A   1       5.779   4.747  18.422  0.00  0.00    +0.000 A 
ATOM     28  HE1 TRP A   1       4.974   3.243  15.714  0.00  0.00    +0.000 HD
ENDBRANCH  18  19
ENDBRANCH   1  18
TORSDOF 6
ENDMDL
MODEL 5
REMARK VINA RESULT:      -7.4      2.994      6.051
REMARK  Name = 
REMARK  6 active torsions:
REMARK  status: ('A' for Active; 'I' for Inactive)
REMARK    1  A    between atoms: C_2  and  C_18
REMARK    2  A    between atoms: N_3  and  CA_4
REMARK    3  A    between atoms: CA_4  and  CB_5
REMARK    4  A    between atoms: CA_4  and  C_15
REMARK    5  A    between atoms: CB_5  and  CG_6
REMARK    6  A    between atoms: C_15  and  OXT_17
REMARK                            x       y       z     vdW  Elec       q    Type
REMARK                         _______ _______ _______ _____ _____    ______ ____
ROOT
ATOM      1  CA  TRP A   1       2.462   4.238  19.827  0.00  0.00    +0.000 C 
ENDROOT
BRANCH   1   4
ATOM      2  O   UNK A   0       5.051   3.116  19.570  0.00  0.00    +0.000 OA
ATOM      3  C   UNK A   0       4.686   3.936  18.730  0.00  0.00    +0.000 C 
ATOM      4  N   TRP A   1       3.467   4.559  18.811  0.00  0.00    +0.000 N 
ATOM      5  H   TRP A   1       3.180   5.222  18.093  0.00  0.00    +0.000 HD
BRANCH   3   6
ATOM      6  C   UNK A   0       5.598   4.320  17.613  0.00  0.00    +0.000 A 
ATOM      7  C   UNK A   0       5.203   3.918  16.322  0.00  0.00    +0.000 A 
ATOM      8  C   UNK A   0       5.984   4.234  15.210  0.00  0.00    +0.000 A 
ATOM      9 BR   UNK A   0       5.432   3.692  13.484  0.00  0.00    +0.000 Br
ATOM     10  C   UNK A   0       7.166   4.951  15.356  0.00  0.00    +0.000 A 
ATOM     11  C   UNK A   0       7.562   5.364  16.628  0.00  0.00    +0.000 A 
ATOM     12  C   UNK A   0       6.783   5.059  17.756  0.00  0.00    +0.000 A 
ATOM     13 CL   UNK A   0       7.351   5.696  19.256  0.00  0.00    +0.000 Cl
ENDBRANCH   3   6
ENDBRANCH   1   4
BRANCH   1  14
ATOM     14  C   TRP A   1       1.250   3.583  19.160  0.00  0.00    +0.000 C 
ATOM     15  O   TRP A   1       1.111   3.469  17.945  0.00  0.00    +0.000 OA
BRANCH  14  16
ATOM     16  OXT TRP A   1       0.324   3.086  20.018  0.00  0.00    +0.000 OA
ATOM     17  HXT TRP A   1       0.522   2.196  20.368  0.00  0.00    +0.000 HD
ENDBRANCH  14  16
ENDBRANCH   1  14
BRANCH   1  18
ATOM     18  CB  TRP A   1       2.061   5.456  20.668  0.00  0.00    +0.000 C 
BRANCH  18  19
ATOM     19  CG  TRP A   1       2.044   6.761  19.929  0.00  0.00    +0.000 A 
ATOM     20  CD1 TRP A   1       2.477   6.990  18.637  0.00  0.00    +0.000 A 
ATOM     21  NE1 TRP A   1       2.185   8.289  18.312  0.00  0.00    +0.000 N 
ATOM     22  CE2 TRP A   1       1.542   8.906  19.358  0.00  0.00    +0.000 A 
ATOM     23  CZ2 TRP A   1       0.984  10.186  19.449  0.00  0.00    +0.000 A 
ATOM     24  CH2 TRP A   1       0.399  10.553  20.665  0.00  0.00    +0.000 A 
ATOM     25  CZ3 TRP A   1       0.403   9.685  21.754  0.00  0.00    +0.000 A 
ATOM     26  CE3 TRP A   1       0.952   8.405  21.641  0.00  0.00    +0.000 A 
ATOM     27  CD2 TRP A   1       1.508   7.995  20.412  0.00  0.00    +0.000 A 
ATOM     28  HE1 TRP A   1       2.384   8.726  17.422  0.00  0.00    +0.000 HD
ENDBRANCH  18  19
ENDBRANCH   1  18
TORSDOF 6
ENDMDL
MODEL 6
REMARK VINA RESULT:      -7.2      4.928      6.761
REMARK  Name = 
REMARK  6 active torsions:
REMARK  status: ('A' for Active; 'I' for Inactive)
REMARK    1  A    between atoms: C_2  and  C_18
REMARK    2  A    between atoms: N_3  and  CA_4
REMARK    3  A    between atoms: CA_4  and  CB_5
REMARK    4  A    between atoms: CA_4  and  C_15
REMARK    5  A    between atoms: CB_5  and  CG_6
REMARK    6  A    between atoms: C_15  and  OXT_17
REMARK                            x       y       z     vdW  Elec       q    Type
REMARK                         _______ _______ _______ _____ _____    ______ ____
ROOT
ATOM      1  CA  TRP A   1       1.364  10.328  18.490  0.00  0.00    +0.000 C 
ENDROOT
BRANCH   1   4
ATOM      2  O   UNK A   0      -0.913  11.282  19.881  0.00  0.00    +0.000 OA
ATOM      3  C   UNK A   0      -1.035  10.999  18.690  0.00  0.00    +0.000 C 
ATOM      4  N   TRP A   1       0.007  10.487  17.960  0.00  0.00    +0.000 N 
ATOM      5  H   TRP A   1      -0.113  10.276  16.971  0.00  0.00    +0.000 HD
BRANCH   3   6
ATOM      6  C   UNK A   0      -2.356  11.158  18.015  0.00  0.00    +0.000 A 
ATOM      7  C   UNK A   0      -2.453  10.633  16.711  0.00  0.00    +0.000 A 
ATOM      8  C   UNK A   0      -3.649  10.725  15.996  0.00  0.00    +0.000 A 
ATOM      9 BR   UNK A   0      -3.762  10.009  14.250  0.00  0.00    +0.000 Br
ATOM     10  C   UNK A   0      -4.764  11.335  16.560  0.00  0.00    +0.000 A 
ATOM     11  C   UNK A   0      -4.683  11.848  17.854  0.00  0.00    +0.000 A 
ATOM     12  C   UNK A   0      -3.489  11.756  18.587  0.00  0.00    +0.000 A 
ATOM     13 CL   UNK A   0      -3.550  12.363  20.202  0.00  0.00    +0.000 Cl
ENDBRANCH   3   6
ENDBRANCH   1   4
BRANCH   1  14
ATOM     14  C   TRP A   1       2.131  11.644  18.335  0.00  0.00    +0.000 C 
ATOM     15  O   TRP A   1       2.249  12.480  19.225  0.00  0.00    +0.000 OA
BRANCH  14  16
ATOM     16  OXT TRP A   1       2.724  11.820  17.127  0.00  0.00    +0.000 OA
ATOM     17  HXT TRP A   1       3.375  12.547  17.090  0.00  0.00    +0.000 HD
ENDBRANCH  14  16
ENDBRANCH   1  14
BRANCH   1  18
ATOM     18  CB  TRP A   1       2.114   9.152  17.853  0.00  0.00    +0.000 C 
BRANCH  18  19
ATOM     19  CG  TRP A   1       2.348   7.981  18.761  0.00  0.00    +0.000 A 
ATOM     20  CD1 TRP A   1       1.830   7.795  20.028  0.00  0.00    +0.000 A 
ATOM     21  NE1 TRP A   1       2.201   6.549  20.463  0.00  0.00    +0.000 N 
ATOM     22  CE2 TRP A   1       2.929   5.905  19.492  0.00  0.00    +0.000 A 
ATOM     23  CZ2 TRP A   1       3.435   4.601  19.456  0.00  0.00    +0.000 A 
ATOM     24  CH2 TRP A   1       4.164   4.221  18.324  0.00  0.00    +0.000 A 
ATOM     25  CZ3 TRP A   1       4.402   5.120  17.288  0.00  0.00    +0.000 A 
ATOM     26  CE3 TRP A   1       3.876   6.414  17.335  0.00  0.00    +0.000 A 
ATOM     27  CD2 TRP A   1       3.101   6.808  18.444  0.00  0.00    +0.000 A 
ATOM     28  HE1 TRP A   1       1.951   6.146  21.356  0.00  0.00    +0.000 HD
ENDBRANCH  18  19
ENDBRANCH   1  18
TORSDOF 6
ENDMDL
MODEL 7
REMARK VINA RESULT:      -7.1      3.849      7.602
REMARK  Name = 
REMARK  6 active torsions:
REMARK  status: ('A' for Active; 'I' for Inactive)
REMARK    1  A    between atoms: C_2  and  C_18
REMARK    2  A    between atoms: N_3  and  CA_4
REMARK    3  A    between atoms: CA_4  and  CB_5
REMARK    4  A    between atoms: CA_4  and  C_15
REMARK    5  A    between atoms: CB_5  and  CG_6
REMARK    6  A    between atoms: C_15  and  OXT_17
REMARK                            x       y       z     vdW  Elec       q    Type
REMARK                         _______ _______ _______ _____ _____    ______ ____
ROOT
ATOM      1  CA  TRP A   1       0.980   9.271  21.105  0.00  0.00    +0.000 C 
ENDROOT
BRANCH   1   4
ATOM      2  O   UNK A   0       2.154   8.351  18.696  0.00  0.00    +0.000 OA
ATOM      3  C   UNK A   0       2.102   7.578  19.649  0.00  0.00    +0.000 C 
ATOM      4  N   TRP A   1       1.507   7.931  20.834  0.00  0.00    +0.000 N 
ATOM      5  H   TRP A   1       1.491   7.278  21.616  0.00  0.00    +0.000 HD
BRANCH   3   6
ATOM      6  C   UNK A   0       2.645   6.194  19.521  0.00  0.00    +0.000 A 
ATOM      7  C   UNK A   0       2.104   5.231  20.395  0.00  0.00    +0.000 A 
ATOM      8  C   UNK A   0       2.541   3.905  20.349  0.00  0.00    +0.000 A 
ATOM      9 BR   UNK A   0       1.797   2.626  21.526  0.00  0.00    +0.000 Br
ATOM     10  C   UNK A   0       3.515   3.513  19.439  0.00  0.00    +0.000 A 
ATOM     11  C   UNK A   0       4.050   4.455  18.561  0.00  0.00    +0.000 A 
ATOM     12  C   UNK A   0       3.616   5.791  18.591  0.00  0.00    +0.000 A 
ATOM     13 CL   UNK A   0       4.306   6.832  17.400  0.00  0.00    +0.000 Cl
ENDBRANCH   3   6
ENDBRANCH   1   4
BRANCH   1  14
ATOM     14  C   TRP A   1       1.154   9.598  22.591  0.00  0.00    +0.000 C 
ATOM     15  O   TRP A   1       0.249   9.996  23.318  0.00  0.00    +0.000 OA
BRANCH  14  16
ATOM     16  OXT TRP A   1       2.401   9.380  23.081  0.00  0.00    +0.000 OA
ATOM     17  HXT TRP A   1       2.829  10.161  23.482  0.00  0.00    +0.000 HD
ENDBRANCH  14  16
ENDBRANCH   1  14
BRANCH   1  18
ATOM     18  CB  TRP A   1      -0.474   9.437  20.651  0.00  0.00    +0.000 C 
BRANCH  18  19
ATOM     19  CG  TRP A   1      -0.694  10.471  19.587  0.00  0.00    +0.000 A 
ATOM     20  CD1 TRP A   1       0.063  11.604  19.359  0.00  0.00    +0.000 A 
ATOM     21  NE1 TRP A   1      -0.411  12.215  18.228  0.00  0.00    +0.000 N 
ATOM     22  CE2 TRP A   1      -1.446  11.487  17.694  0.00  0.00    +0.000 A 
ATOM     23  CZ2 TRP A   1      -2.169  11.675  16.511  0.00  0.00    +0.000 A 
ATOM     24  CH2 TRP A   1      -3.197  10.769  16.229  0.00  0.00    +0.000 A 
ATOM     25  CZ3 TRP A   1      -3.507   9.738  17.112  0.00  0.00    +0.000 A 
ATOM     26  CE3 TRP A   1      -2.764   9.557  18.282  0.00  0.00    +0.000 A 
ATOM     27  CD2 TRP A   1      -1.695  10.429  18.567  0.00  0.00    +0.000 A 
ATOM     28  HE1 TRP A   1      -0.035  13.063  17.823  0.00  0.00    +0.000 HD
ENDBRANCH  18  19
ENDBRANCH   1  18
TORSDOF 6
ENDMDL
MODEL 8
REMARK VINA RESULT:      -7.0      4.964      8.706
REMARK  Name = 
REMARK  6 active torsions:
REMARK  status: ('A' for Active; 'I' for Inactive)
REMARK    1  A    between atoms: C_2  and  C_18
REMARK    2  A    between atoms: N_3  and  CA_4
REMARK    3  A    between atoms: CA_4  and  CB_5
REMARK    4  A    between atoms: CA_4  and  C_15
REMARK    5  A    between atoms: CB_5  and  CG_6
REMARK    6  A    between atoms: C_15  and  OXT_17
REMARK                            x       y       z     vdW  Elec       q    Type
REMARK                         _______ _______ _______ _____ _____    ______ ____
ROOT
ATOM      1  CA  TRP A   1       0.437  11.057  19.394  0.00  0.00    +0.000 C 
ENDROOT
BRANCH   1   4
ATOM      2  O   UNK A   0       1.984   9.896  17.323  0.00  0.00    +0.000 OA
ATOM      3  C   UNK A   0       1.851   9.268  18.371  0.00  0.00    +0.000 C 
ATOM      4  N   TRP A   1       1.080   9.740  19.403  0.00  0.00    +0.000 N 
ATOM      5  H   TRP A   1       0.999   9.210  20.269  0.00  0.00    +0.000 HD
BRANCH   3   6
ATOM      6  C   UNK A   0       2.493   7.930  18.529  0.00  0.00    +0.000 A 
ATOM      7  C   UNK A   0       3.386   7.547  17.510  0.00  0.00    +0.000 A 
ATOM      8  C   UNK A   0       4.044   6.316  17.568  0.00  0.00    +0.000 A 
ATOM      9 BR   UNK A   0       5.245   5.822  16.193  0.00  0.00    +0.000 Br
ATOM     10  C   UNK A   0       3.829   5.449  18.633  0.00  0.00    +0.000 A 
ATOM     11  C   UNK A   0       2.955   5.823  19.653  0.00  0.00    +0.000 A 
ATOM     12  C   UNK A   0       2.292   7.061  19.612  0.00  0.00    +0.000 A 
ATOM     13 CL   UNK A   0       1.300   7.428  20.976  0.00  0.00    +0.000 Cl
ENDBRANCH   3   6
ENDBRANCH   1   4
BRANCH   1  14
ATOM     14  C   TRP A   1       1.445  12.120  19.840  0.00  0.00    +0.000 C 
ATOM     15  O   TRP A   1       1.634  12.441  21.010  0.00  0.00    +0.000 OA
BRANCH  14  16
ATOM     16  OXT TRP A   1       2.167  12.679  18.837  0.00  0.00    +0.000 OA
ATOM     17  HXT TRP A   1       3.023  12.246  18.655  0.00  0.00    +0.000 HD
ENDBRANCH  14  16
ENDBRANCH   1  14
BRANCH   1  18
ATOM     18  CB  TRP A   1      -0.843  11.096  20.235  0.00  0.00    +0.000 C 
BRANCH  18  19
ATOM     19  CG  TRP A   1      -2.089  11.454  19.480  0.00  0.00    +0.000 A 
ATOM     20  CD1 TRP A   1      -3.037  12.393  19.839  0.00  0.00    +0.000 A 
ATOM     21  NE1 TRP A   1      -3.954  12.486  18.824  0.00  0.00    +0.000 N 
ATOM     22  CE2 TRP A   1      -3.606  11.645  17.794  0.00  0.00    +0.000 A 
ATOM     23  CZ2 TRP A   1      -4.187  11.470  16.533  0.00  0.00    +0.000 A 
ATOM     24  CH2 TRP A   1      -3.619  10.514  15.685  0.00  0.00    +0.000 A 
ATOM     25  CZ3 TRP A   1      -2.534   9.744  16.096  0.00  0.00    +0.000 A 
ATOM     26  CE3 TRP A   1      -1.958   9.942  17.354  0.00  0.00    +0.000 A 
ATOM     27  CD2 TRP A   1      -2.484  10.930  18.210  0.00  0.00    +0.000 A 
ATOM     28  HE1 TRP A   1      -4.753  13.105  18.815  0.00  0.00    +0.000 HD
ENDBRANCH  18  19
ENDBRANCH   1  18
TORSDOF 6
ENDMDL
MODEL 9
REMARK VINA RESULT:      -7.0      3.444      5.993
REMARK  Name = 
REMARK  6 active torsions:
REMARK  status: ('A' for Active; 'I' for Inactive)
REMARK    1  A    between atoms: C_2  and  C_18
REMARK    2  A    between atoms: N_3  and  CA_4
REMARK    3  A    between atoms: CA_4  and  CB_5
REMARK    4  A    between atoms: CA_4  and  C_15
REMARK    5  A    between atoms: CB_5  and  CG_6
REMARK    6  A    between atoms: C_15  and  OXT_17
REMARK                            x       y       z     vdW  Elec       q    Type
REMARK                         _______ _______ _______ _____ _____    ______ ____
ROOT
ATOM      1  CA  TRP A   1       3.739   2.733  18.500  0.00  0.00    +0.000 C 
ENDROOT
BRANCH   1   4
ATOM      2  O   UNK A   0       6.274   3.985  18.301  0.00  0.00    +0.000 OA
ATOM      3  C   UNK A   0       5.624   3.818  17.270  0.00  0.00    +0.000 C 
ATOM      4  N   TRP A   1       4.370   3.263  17.288  0.00  0.00    +0.000 N 
ATOM      5  H   TRP A   1       3.859   3.120  16.419  0.00  0.00    +0.000 HD
BRANCH   3   6
ATOM      6  C   UNK A   0       6.173   4.272  15.959  0.00  0.00    +0.000 A 
ATOM      7  C   UNK A   0       5.794   3.517  14.832  0.00  0.00    +0.000 A 
ATOM      8  C   UNK A   0       6.249   3.864  13.558  0.00  0.00    +0.000 A 
ATOM      9 BR   UNK A   0       5.724   2.841  12.057  0.00  0.00    +0.000 Br
ATOM     10  C   UNK A   0       7.081   4.963  13.381  0.00  0.00    +0.000 A 
ATOM     11  C   UNK A   0       7.453   5.725  14.487  0.00  0.00    +0.000 A 
ATOM     12  C   UNK A   0       6.998   5.392  15.773  0.00  0.00    +0.000 A 
ATOM     13 CL   UNK A   0       7.473   6.464  17.040  0.00  0.00    +0.000 Cl
ENDBRANCH   3   6
ENDBRANCH   1   4
BRANCH   1  14
ATOM     14  C   TRP A   1       2.236   2.564  18.262  0.00  0.00    +0.000 C 
ATOM     15  O   TRP A   1       1.589   3.222  17.452  0.00  0.00    +0.000 OA
BRANCH  14  16
ATOM     16  OXT TRP A   1       1.648   1.586  18.996  0.00  0.00    +0.000 OA
ATOM     17  HXT TRP A   1       1.974   0.683  18.816  0.00  0.00    +0.000 HD
ENDBRANCH  14  16
ENDBRANCH   1  14
BRANCH   1  18
ATOM     18  CB  TRP A   1       4.028   3.588  19.739  0.00  0.00    +0.000 C 
BRANCH  18  19
ATOM     19  CG  TRP A   1       3.085   4.734  19.954  0.00  0.00    +0.000 A 
ATOM     20  CD1 TRP A   1       2.182   4.885  20.990  0.00  0.00    +0.000 A 
ATOM     21  NE1 TRP A   1       1.597   6.119  20.872  0.00  0.00    +0.000 N 
ATOM     22  CE2 TRP A   1       2.122   6.790  19.794  0.00  0.00    +0.000 A 
ATOM     23  CZ2 TRP A   1       1.896   8.096  19.344  0.00  0.00    +0.000 A 
ATOM     24  CH2 TRP A   1       2.569   8.509  18.190  0.00  0.00    +0.000 A 
ATOM     25  CZ3 TRP A   1       3.408   7.639  17.498  0.00  0.00    +0.000 A 
ATOM     26  CE3 TRP A   1       3.633   6.343  17.971  0.00  0.00    +0.000 A 
ATOM     27  CD2 TRP A   1       3.001   5.917  19.156  0.00  0.00    +0.000 A 
ATOM     28  HE1 TRP A   1       0.903   6.497  21.502  0.00  0.00    +0.000 HD
ENDBRANCH  18  19
ENDBRANCH   1  18
TORSDOF 6
ENDMDL
