MODEL 1
REMARK VINA RESULT:      -8.1      0.000      0.000
REMARK  Name = 
REMARK  9 active torsions:
REMARK  status: ('A' for Active; 'I' for Inactive)
REMARK    1  A    between atoms: C_1  and  C_2
REMARK    2  A    between atoms: C_2  and  O_3
REMARK    3  A    between atoms: O_3  and  C_4
REMARK    4  A    between atoms: C_8  and  C_9
REMARK    5  A    between atoms: C_12  and  N_13
REMARK    6  A    between atoms: C_14  and  C_16
REMARK    7  A    between atoms: C_16  and  C_17
REMARK    8  A    between atoms: N_22  and  S_23
REMARK    9  A    between atoms: S_23  and  C_26
REMARK                            x       y       z     vdW  Elec       q    Type
REMARK                         _______ _______ _______ _____ _____    ______ ____
ROOT
ATOM      1  N   UNL     1       2.284   6.019  20.276  0.00  0.00    +0.000 N 
ATOM      2  C   UNL     1       1.408   4.971  20.481  0.00  0.00    +0.000 C 
ATOM      3  O   UNL     1       0.186   4.999  20.444  0.00  0.00    +0.000 OA
ATOM      4  H   UNL     1       3.269   5.785  20.180  0.00  0.00    +0.000 HD
ENDROOT
BRANCH   1   8
ATOM      5  C   UNL     1       1.126  10.013  19.434  0.00  0.00    +0.000 A 
ATOM      6  C   UNL     1       0.947   9.471  20.713  0.00  0.00    +0.000 A 
ATOM      7  C   UNL     1       1.341   8.164  21.003  0.00  0.00    +0.000 A 
ATOM      8  C   UNL     1       1.909   7.349  20.025  0.00  0.00    +0.000 A 
ATOM      9  C   UNL     1       2.098   7.869  18.749  0.00  0.00    +0.000 A 
ATOM     10  C   UNL     1       1.701   9.180  18.454  0.00  0.00    +0.000 A 
BRANCH   5  15
ATOM     11  C   UNL     1       1.327  13.612  18.992  0.00  0.00    +0.000 A 
ATOM     12  C   UNL     1       0.058  13.942  18.543  0.00  0.00    +0.000 A 
ATOM     13  N   UNL     1      -0.920  13.020  18.389  0.00  0.00    +0.000 NA
ATOM     14  C   UNL     1      -0.556  11.750  18.693  0.00  0.00    +0.000 A 
ATOM     15  C   UNL     1       0.725  11.395  19.123  0.00  0.00    +0.000 A 
ATOM     16  N   UNL     1       1.682  12.343  19.285  0.00  0.00    +0.000 NA
BRANCH  11  17
ATOM     17  O   UNL     1       2.260  14.619  19.104  0.00  0.00    +0.000 OA
BRANCH  17  19
ATOM     18  C   UNL     1       4.501  15.155  18.478  0.00  0.00    +0.000 C 
ATOM     19  C   UNL     1       3.157  14.647  17.991  0.00  0.00    +0.000 C 
ENDBRANCH  17  19
ENDBRANCH  11  17
ENDBRANCH   5  15
ENDBRANCH   1   8
BRANCH   2  20
ATOM     20  C   UNL     1       2.072   3.644  20.659  0.00  0.00    +0.000 C 
ATOM     21  C   UNL     1       2.562   3.249  22.044  0.00  0.00    +0.000 C 
ATOM     22  C   UNL     1       1.321   2.613  21.498  0.00  0.00    +0.000 C 
BRANCH  20  23
ATOM     23  C   UNL     1       2.806   3.182  19.415  0.00  0.00    +0.000 A 
ATOM     24  C   UNL     1       2.148   2.430  18.450  0.00  0.00    +0.000 A 
ATOM     25  C   UNL     1       2.804   2.221  17.258  0.00  0.00    +0.000 A 
ATOM     26  N   UNL     1       4.036   2.692  17.004  0.00  0.00    +0.000 NA
ATOM     27  C   UNL     1       4.595   3.371  18.008  0.00  0.00    +0.000 A 
ATOM     28  N   UNL     1       5.815   3.962  17.691  0.00  0.00    +0.000 N 
ATOM     29  N   UNL     1       4.051   3.649  19.191  0.00  0.00    +0.000 NA
ATOM     30  H   UNL     1       6.253   3.459  16.927  0.00  0.00    +0.000 HD
BRANCH  28  31
ATOM     31  S   UNL     1       5.692   5.596  17.325  0.00  0.00    +0.000 S 
ATOM     32  O   UNL     1       5.133   5.775  16.001  0.00  0.00    +0.000 OA
ATOM     33  O   UNL     1       5.064   6.203  18.481  0.00  0.00    +0.000 OA
BRANCH  31  34
ATOM     34  C   UNL     1       7.392   6.270  17.235  0.00  0.00    +0.000 C 
ATOM     35  C   UNL     1       7.467   7.752  17.505  0.00  0.00    +0.000 C 
ATOM     36  C   UNL     1       7.965   6.776  18.533  0.00  0.00    +0.000 C 
ENDBRANCH  31  34
ENDBRANCH  28  31
ENDBRANCH  20  23
ENDBRANCH   2  20
TORSDOF 8
ENDMDL
MODEL 2
REMARK VINA RESULT:      -8.0      1.044      1.205
REMARK  Name = 
REMARK  9 active torsions:
REMARK  status: ('A' for Active; 'I' for Inactive)
REMARK    1  A    between atoms: C_1  and  C_2
REMARK    2  A    between atoms: C_2  and  O_3
REMARK    3  A    between atoms: O_3  and  C_4
REMARK    4  A    between atoms: C_8  and  C_9
REMARK    5  A    between atoms: C_12  and  N_13
REMARK    6  A    between atoms: C_14  and  C_16
REMARK    7  A    between atoms: C_16  and  C_17
REMARK    8  A    between atoms: N_22  and  S_23
REMARK    9  A    between atoms: S_23  and  C_26
REMARK                            x       y       z     vdW  Elec       q    Type
REMARK                         _______ _______ _______ _____ _____    ______ ____
ROOT
ATOM      1  N   UNL     1       2.162   6.195  20.348  0.00  0.00    +0.000 N 
ATOM      2  C   UNL     1       1.327   5.102  20.471  0.00  0.00    +0.000 C 
ATOM      3  O   UNL     1       0.103   5.094  20.488  0.00  0.00    +0.000 OA
ATOM      4  H   UNL     1       3.149   6.005  20.186  0.00  0.00    +0.000 HD
ENDROOT
BRANCH   1   8
ATOM      5  C   UNL     1       0.853  10.215  19.999  0.00  0.00    +0.000 A 
ATOM      6  C   UNL     1       0.791   9.547  21.228  0.00  0.00    +0.000 A 
ATOM      7  C   UNL     1       1.236   8.230  21.356  0.00  0.00    +0.000 A 
ATOM      8  C   UNL     1       1.739   7.531  20.260  0.00  0.00    +0.000 A 
ATOM      9  C   UNL     1       1.812   8.177  19.031  0.00  0.00    +0.000 A 
ATOM     10  C   UNL     1       1.364   9.499  18.899  0.00  0.00    +0.000 A 
BRANCH   5  15
ATOM     11  C   UNL     1       0.941  13.793  19.385  0.00  0.00    +0.000 A 
ATOM     12  C   UNL     1      -0.381  14.172  19.561  0.00  0.00    +0.000 A 
ATOM     13  N   UNL     1      -1.347  13.293  19.910  0.00  0.00    +0.000 NA
ATOM     14  C   UNL     1      -0.924  12.013  20.057  0.00  0.00    +0.000 A 
ATOM     15  C   UNL     1       0.398  11.608  19.860  0.00  0.00    +0.000 A 
ATOM     16  N   UNL     1       1.350  12.515  19.526  0.00  0.00    +0.000 NA
BRANCH  11  17
ATOM     17  O   UNL     1       1.851  14.760  19.018  0.00  0.00    +0.000 OA
BRANCH  17  19
ATOM     18  C   UNL     1       3.632  15.397  17.561  0.00  0.00    +0.000 C 
ATOM     19  C   UNL     1       2.886  14.233  18.183  0.00  0.00    +0.000 C 
ENDBRANCH  17  19
ENDBRANCH  11  17
ENDBRANCH   5  15
ENDBRANCH   1   8
BRANCH   2  20
ATOM     20  C   UNL     1       2.035   3.786  20.476  0.00  0.00    +0.000 C 
ATOM     21  C   UNL     1       2.337   3.120  21.809  0.00  0.00    +0.000 C 
ATOM     22  C   UNL     1       1.231   2.581  20.957  0.00  0.00    +0.000 C 
BRANCH  20  23
ATOM     23  C   UNL     1       2.970   3.619  19.294  0.00  0.00    +0.000 A 
ATOM     24  C   UNL     1       2.466   3.566  18.001  0.00  0.00    +0.000 A 
ATOM     25  C   UNL     1       3.374   3.623  16.968  0.00  0.00    +0.000 A 
ATOM     26  N   UNL     1       4.701   3.707  17.158  0.00  0.00    +0.000 NA
ATOM     27  C   UNL     1       5.085   3.715  18.436  0.00  0.00    +0.000 A 
ATOM     28  N   UNL     1       6.447   3.930  18.624  0.00  0.00    +0.000 N 
ATOM     29  N   UNL     1       4.300   3.684  19.512  0.00  0.00    +0.000 NA
ATOM     30  H   UNL     1       6.959   3.644  17.797  0.00  0.00    +0.000 HD
BRANCH  28  31
ATOM     31  S   UNL     1       6.825   5.516  19.028  0.00  0.00    +0.000 S 
ATOM     32  O   UNL     1       5.616   6.274  19.277  0.00  0.00    +0.000 OA
ATOM     33  O   UNL     1       7.859   5.421  20.038  0.00  0.00    +0.000 OA
BRANCH  31  34
ATOM     34  C   UNL     1       7.594   6.291  17.558  0.00  0.00    +0.000 C 
ATOM     35  C   UNL     1       6.630   7.103  16.731  0.00  0.00    +0.000 C 
ATOM     36  C   UNL     1       7.664   7.796  17.573  0.00  0.00    +0.000 C 
ENDBRANCH  31  34
ENDBRANCH  28  31
ENDBRANCH  20  23
ENDBRANCH   2  20
TORSDOF 8
ENDMDL
MODEL 3
REMARK VINA RESULT:      -8.0      1.604      2.453
REMARK  Name = 
REMARK  9 active torsions:
REMARK  status: ('A' for Active; 'I' for Inactive)
REMARK    1  A    between atoms: C_1  and  C_2
REMARK    2  A    between atoms: C_2  and  O_3
REMARK    3  A    between atoms: O_3  and  C_4
REMARK    4  A    between atoms: C_8  and  C_9
REMARK    5  A    between atoms: C_12  and  N_13
REMARK    6  A    between atoms: C_14  and  C_16
REMARK    7  A    between atoms: C_16  and  C_17
REMARK    8  A    between atoms: N_22  and  S_23
REMARK    9  A    between atoms: S_23  and  C_26
REMARK                            x       y       z     vdW  Elec       q    Type
REMARK                         _______ _______ _______ _____ _____    ______ ____
ROOT
ATOM      1  N   UNL     1       2.230   6.089  20.371  0.00  0.00    +0.000 N 
ATOM      2  C   UNL     1       1.361   5.027  20.531  0.00  0.00    +0.000 C 
ATOM      3  O   UNL     1       0.138   5.048  20.487  0.00  0.00    +0.000 OA
ATOM      4  H   UNL     1       3.217   5.865  20.273  0.00  0.00    +0.000 HD
ENDROOT
BRANCH   1   8
ATOM      5  C   UNL     1       1.047  10.102  19.667  0.00  0.00    +0.000 A 
ATOM      6  C   UNL     1       0.874   9.515  20.928  0.00  0.00    +0.000 A 
ATOM      7  C   UNL     1       1.276   8.202  21.173  0.00  0.00    +0.000 A 
ATOM      8  C   UNL     1       1.846   7.424  20.166  0.00  0.00    +0.000 A 
ATOM      9  C   UNL     1       2.028   7.988  18.908  0.00  0.00    +0.000 A 
ATOM     10  C   UNL     1       1.624   9.306  18.659  0.00  0.00    +0.000 A 
BRANCH   5  15
ATOM     11  C   UNL     1      -0.949  13.136  19.682  0.00  0.00    +0.000 A 
ATOM     12  C   UNL     1      -0.157  14.033  18.982  0.00  0.00    +0.000 A 
ATOM     13  N   UNL     1       1.040  13.687  18.456  0.00  0.00    +0.000 NA
ATOM     14  C   UNL     1       1.410  12.402  18.682  0.00  0.00    +0.000 A 
ATOM     15  C   UNL     1       0.636  11.491  19.405  0.00  0.00    +0.000 A 
ATOM     16  N   UNL     1      -0.568  11.860  19.907  0.00  0.00    +0.000 NA
BRANCH  11  17
ATOM     17  O   UNL     1      -2.148  13.585  20.190  0.00  0.00    +0.000 OA
BRANCH  17  19
ATOM     18  C   UNL     1      -2.580  13.326  22.524  0.00  0.00    +0.000 C 
ATOM     19  C   UNL     1      -2.694  12.682  21.155  0.00  0.00    +0.000 C 
ENDBRANCH  17  19
ENDBRANCH  11  17
ENDBRANCH   5  15
ENDBRANCH   1   8
BRANCH   2  20
ATOM     20  C   UNL     1       2.033   3.699  20.665  0.00  0.00    +0.000 C 
ATOM     21  C   UNL     1       2.438   3.220  22.051  0.00  0.00    +0.000 C 
ATOM     22  C   UNL     1       1.246   2.606  21.384  0.00  0.00    +0.000 C 
BRANCH  20  23
ATOM     23  C   UNL     1       2.854   3.330  19.445  0.00  0.00    +0.000 A 
ATOM     24  C   UNL     1       2.232   2.851  18.299  0.00  0.00    +0.000 A 
ATOM     25  C   UNL     1       3.004   2.733  17.166  0.00  0.00    +0.000 A 
ATOM     26  N   UNL     1       4.311   3.040  17.130  0.00  0.00    +0.000 NA
ATOM     27  C   UNL     1       4.821   3.458  18.291  0.00  0.00    +0.000 A 
ATOM     28  N   UNL     1       6.140   3.894  18.213  0.00  0.00    +0.000 N 
ATOM     29  N   UNL     1       4.170   3.628  19.440  0.00  0.00    +0.000 NA
ATOM     30  H   UNL     1       6.602   3.455  17.424  0.00  0.00    +0.000 HD
BRANCH  28  31
ATOM     31  S   UNL     1       6.289   5.564  18.127  0.00  0.00    +0.000 S 
ATOM     32  O   UNL     1       5.000   6.196  18.325  0.00  0.00    +0.000 OA
ATOM     33  O   UNL     1       7.413   5.896  18.979  0.00  0.00    +0.000 OA
BRANCH  31  34
ATOM     34  C   UNL     1       6.783   5.986  16.415  0.00  0.00    +0.000 C 
ATOM     35  C   UNL     1       7.033   4.780  15.546  0.00  0.00    +0.000 C 
ATOM     36  C   UNL     1       5.799   5.611  15.338  0.00  0.00    +0.000 C 
ENDBRANCH  31  34
ENDBRANCH  28  31
ENDBRANCH  20  23
ENDBRANCH   2  20
TORSDOF 8
ENDMDL
MODEL 4
REMARK VINA RESULT:      -7.9      1.996      2.486
REMARK  Name = 
REMARK  9 active torsions:
REMARK  status: ('A' for Active; 'I' for Inactive)
REMARK    1  A    between atoms: C_1  and  C_2
REMARK    2  A    between atoms: C_2  and  O_3
REMARK    3  A    between atoms: O_3  and  C_4
REMARK    4  A    between atoms: C_8  and  C_9
REMARK    5  A    between atoms: C_12  and  N_13
REMARK    6  A    between atoms: C_14  and  C_16
REMARK    7  A    between atoms: C_16  and  C_17
REMARK    8  A    between atoms: N_22  and  S_23
REMARK    9  A    between atoms: S_23  and  C_26
REMARK                            x       y       z     vdW  Elec       q    Type
REMARK                         _______ _______ _______ _____ _____    ______ ____
ROOT
ATOM      1  N   UNL     1       2.264   6.152  20.328  0.00  0.00    +0.000 N 
ATOM      2  C   UNL     1       1.469   5.025  20.407  0.00  0.00    +0.000 C 
ATOM      3  O   UNL     1       0.247   4.970  20.414  0.00  0.00    +0.000 OA
ATOM      4  H   UNL     1       3.258   6.005  20.169  0.00  0.00    +0.000 HD
ENDROOT
BRANCH   1   8
ATOM      5  C   UNL     1       0.805  10.130  20.107  0.00  0.00    +0.000 A 
ATOM      6  C   UNL     1       0.762   9.418  21.313  0.00  0.00    +0.000 A 
ATOM      7  C   UNL     1       1.256   8.115  21.399  0.00  0.00    +0.000 A 
ATOM      8  C   UNL     1       1.790   7.474  20.283  0.00  0.00    +0.000 A 
ATOM      9  C   UNL     1       1.844   8.163  19.077  0.00  0.00    +0.000 A 
ATOM     10  C   UNL     1       1.347   9.471  18.987  0.00  0.00    +0.000 A 
BRANCH   5  15
ATOM     11  C   UNL     1      -0.945  13.194  20.967  0.00  0.00    +0.000 A 
ATOM     12  C   UNL     1      -0.638  14.035  19.909  0.00  0.00    +0.000 A 
ATOM     13  N   UNL     1       0.124  13.639  18.863  0.00  0.00    +0.000 NA
ATOM     14  C   UNL     1       0.576  12.363  18.942  0.00  0.00    +0.000 A 
ATOM     15  C   UNL     1       0.297  11.509  20.012  0.00  0.00    +0.000 A 
ATOM     16  N   UNL     1      -0.484  11.927  21.039  0.00  0.00    +0.000 NA
BRANCH  11  17
ATOM     17  O   UNL     1      -1.719  13.693  21.991  0.00  0.00    +0.000 OA
BRANCH  17  19
ATOM     18  C   UNL     1      -1.859  14.698  24.152  0.00  0.00    +0.000 C 
ATOM     19  C   UNL     1      -0.925  14.163  23.083  0.00  0.00    +0.000 C 
ENDBRANCH  17  19
ENDBRANCH  11  17
ENDBRANCH   5  15
ENDBRANCH   1   8
BRANCH   2  20
ATOM     20  C   UNL     1       2.227   3.737  20.372  0.00  0.00    +0.000 C 
ATOM     21  C   UNL     1       2.601   3.071  21.687  0.00  0.00    +0.000 C 
ATOM     22  C   UNL     1       1.487   2.497  20.867  0.00  0.00    +0.000 C 
BRANCH  20  23
ATOM     23  C   UNL     1       3.127   3.618  19.157  0.00  0.00    +0.000 A 
ATOM     24  C   UNL     1       2.589   3.660  17.878  0.00  0.00    +0.000 A 
ATOM     25  C   UNL     1       3.470   3.756  16.826  0.00  0.00    +0.000 A 
ATOM     26  N   UNL     1       4.804   3.791  16.984  0.00  0.00    +0.000 NA
ATOM     27  C   UNL     1       5.221   3.709  18.250  0.00  0.00    +0.000 A 
ATOM     28  N   UNL     1       6.593   3.875  18.413  0.00  0.00    +0.000 N 
ATOM     29  N   UNL     1       4.463   3.633  19.342  0.00  0.00    +0.000 NA
ATOM     30  H   UNL     1       7.075   3.626  17.555  0.00  0.00    +0.000 HD
BRANCH  28  31
ATOM     31  S   UNL     1       7.027   5.422  18.903  0.00  0.00    +0.000 S 
ATOM     32  O   UNL     1       5.906   6.081  19.542  0.00  0.00    +0.000 OA
ATOM     33  O   UNL     1       8.287   5.266  19.599  0.00  0.00    +0.000 OA
BRANCH  31  34
ATOM     34  C   UNL     1       7.376   6.400  17.395  0.00  0.00    +0.000 C 
ATOM     35  C   UNL     1       6.332   7.447  17.101  0.00  0.00    +0.000 C 
ATOM     36  C   UNL     1       7.682   7.858  17.617  0.00  0.00    +0.000 C 
ENDBRANCH  31  34
ENDBRANCH  28  31
ENDBRANCH  20  23
ENDBRANCH   2  20
TORSDOF 8
ENDMDL
MODEL 5
REMARK VINA RESULT:      -7.9      0.973      1.514
REMARK  Name = 
REMARK  9 active torsions:
REMARK  status: ('A' for Active; 'I' for Inactive)
REMARK    1  A    between atoms: C_1  and  C_2
REMARK    2  A    between atoms: C_2  and  O_3
REMARK    3  A    between atoms: O_3  and  C_4
REMARK    4  A    between atoms: C_8  and  C_9
REMARK    5  A    between atoms: C_12  and  N_13
REMARK    6  A    between atoms: C_14  and  C_16
REMARK    7  A    between atoms: C_16  and  C_17
REMARK    8  A    between atoms: N_22  and  S_23
REMARK    9  A    between atoms: S_23  and  C_26
REMARK                            x       y       z     vdW  Elec       q    Type
REMARK                         _______ _______ _______ _____ _____    ______ ____
ROOT
ATOM      1  N   UNL     1       2.211   6.142  20.315  0.00  0.00    +0.000 N 
ATOM      2  C   UNL     1       1.343   5.085  20.503  0.00  0.00    +0.000 C 
ATOM      3  O   UNL     1       0.122   5.097  20.425  0.00  0.00    +0.000 OA
ATOM      4  H   UNL     1       3.202   5.920  20.255  0.00  0.00    +0.000 HD
ENDROOT
BRANCH   1   8
ATOM      5  C   UNL     1       1.073  10.158  19.553  0.00  0.00    +0.000 A 
ATOM      6  C   UNL     1       1.660   9.378  18.549  0.00  0.00    +0.000 A 
ATOM      7  C   UNL     1       2.021   8.051  18.785  0.00  0.00    +0.000 A 
ATOM      8  C   UNL     1       1.827   7.464  20.034  0.00  0.00    +0.000 A 
ATOM      9  C   UNL     1       1.243   8.220  21.045  0.00  0.00    +0.000 A 
ATOM     10  C   UNL     1       0.881   9.554  20.811  0.00  0.00    +0.000 A 
BRANCH   5  15
ATOM     11  C   UNL     1       1.319  13.680  18.702  0.00  0.00    +0.000 A 
ATOM     12  C   UNL     1       0.009  14.120  18.815  0.00  0.00    +0.000 A 
ATOM     13  N   UNL     1      -1.001  13.304  19.194  0.00  0.00    +0.000 NA
ATOM     14  C   UNL     1      -0.633  12.022  19.439  0.00  0.00    +0.000 A 
ATOM     15  C   UNL     1       0.677  11.555  19.307  0.00  0.00    +0.000 A 
ATOM     16  N   UNL     1       1.673  12.399  18.941  0.00  0.00    +0.000 NA
BRANCH  11  17
ATOM     17  O   UNL     1       2.276  14.583  18.297  0.00  0.00    +0.000 OA
BRANCH  17  19
ATOM     18  C   UNL     1       3.176  15.433  20.340  0.00  0.00    +0.000 C 
ATOM     19  C   UNL     1       3.435  14.549  19.134  0.00  0.00    +0.000 C 
ENDBRANCH  17  19
ENDBRANCH  11  17
ENDBRANCH   5  15
ENDBRANCH   1   8
BRANCH   2  20
ATOM     20  C   UNL     1       2.018   3.769  20.720  0.00  0.00    +0.000 C 
ATOM     21  C   UNL     1       2.446   3.389  22.129  0.00  0.00    +0.000 C 
ATOM     22  C   UNL     1       1.243   2.731  21.528  0.00  0.00    +0.000 C 
BRANCH  20  23
ATOM     23  C   UNL     1       2.817   3.313  19.515  0.00  0.00    +0.000 A 
ATOM     24  C   UNL     1       2.179   2.725  18.431  0.00  0.00    +0.000 A 
ATOM     25  C   UNL     1       2.926   2.525  17.293  0.00  0.00    +0.000 A 
ATOM     26  N   UNL     1       4.225   2.853  17.198  0.00  0.00    +0.000 NA
ATOM     27  C   UNL     1       4.753   3.379  18.306  0.00  0.00    +0.000 A 
ATOM     28  N   UNL     1       6.061   3.832  18.158  0.00  0.00    +0.000 N 
ATOM     29  N   UNL     1       4.126   3.634  19.452  0.00  0.00    +0.000 NA
ATOM     30  H   UNL     1       6.514   3.337  17.397  0.00  0.00    +0.000 HD
BRANCH  28  31
ATOM     31  S   UNL     1       6.171   5.492  17.926  0.00  0.00    +0.000 S 
ATOM     32  O   UNL     1       4.857   6.098  17.984  0.00  0.00    +0.000 OA
ATOM     33  O   UNL     1       7.229   5.935  18.811  0.00  0.00    +0.000 OA
BRANCH  31  34
ATOM     34  C   UNL     1       6.765   5.771  16.217  0.00  0.00    +0.000 C 
ATOM     35  C   UNL     1       6.824   4.513  15.386  0.00  0.00    +0.000 C 
ATOM     36  C   UNL     1       5.752   5.534  15.126  0.00  0.00    +0.000 C 
ENDBRANCH  31  34
ENDBRANCH  28  31
ENDBRANCH  20  23
ENDBRANCH   2  20
TORSDOF 8
ENDMDL
MODEL 6
REMARK VINA RESULT:      -7.8      1.108      1.559
REMARK  Name = 
REMARK  9 active torsions:
REMARK  status: ('A' for Active; 'I' for Inactive)
REMARK    1  A    between atoms: C_1  and  C_2
REMARK    2  A    between atoms: C_2  and  O_3
REMARK    3  A    between atoms: O_3  and  C_4
REMARK    4  A    between atoms: C_8  and  C_9
REMARK    5  A    between atoms: C_12  and  N_13
REMARK    6  A    between atoms: C_14  and  C_16
REMARK    7  A    between atoms: C_16  and  C_17
REMARK    8  A    between atoms: N_22  and  S_23
REMARK    9  A    between atoms: S_23  and  C_26
REMARK                            x       y       z     vdW  Elec       q    Type
REMARK                         _______ _______ _______ _____ _____    ______ ____
ROOT
ATOM      1  N   UNL     1       2.226   6.230  20.262  0.00  0.00    +0.000 N 
ATOM      2  C   UNL     1       1.362   5.174  20.477  0.00  0.00    +0.000 C 
ATOM      3  O   UNL     1       0.139   5.202  20.505  0.00  0.00    +0.000 OA
ATOM      4  H   UNL     1       3.205   6.001  20.107  0.00  0.00    +0.000 HD
ENDROOT
BRANCH   1   8
ATOM      5  C   UNL     1       1.080  10.288  19.787  0.00  0.00    +0.000 A 
ATOM      6  C   UNL     1       1.620   9.566  18.715  0.00  0.00    +0.000 A 
ATOM      7  C   UNL     1       1.983   8.226  18.857  0.00  0.00    +0.000 A 
ATOM      8  C   UNL     1       1.838   7.568  20.077  0.00  0.00    +0.000 A 
ATOM      9  C   UNL     1       1.302   8.265  21.154  0.00  0.00    +0.000 A 
ATOM     10  C   UNL     1       0.938   9.611  21.014  0.00  0.00    +0.000 A 
BRANCH   5  15
ATOM     11  C   UNL     1       1.325  13.907  19.626  0.00  0.00    +0.000 A 
ATOM     12  C   UNL     1       0.023  14.296  19.353  0.00  0.00    +0.000 A 
ATOM     13  N   UNL     1      -0.991  13.407  19.237  0.00  0.00    +0.000 NA
ATOM     14  C   UNL     1      -0.628  12.109  19.390  0.00  0.00    +0.000 A 
ATOM     15  C   UNL     1       0.683  11.698  19.641  0.00  0.00    +0.000 A 
ATOM     16  N   UNL     1       1.677  12.612  19.769  0.00  0.00    +0.000 NA
BRANCH  11  17
ATOM     17  O   UNL     1       2.290  14.886  19.714  0.00  0.00    +0.000 OA
BRANCH  17  19
ATOM     18  C   UNL     1       3.408  15.222  17.631  0.00  0.00    +0.000 C 
ATOM     19  C   UNL     1       3.472  14.541  18.985  0.00  0.00    +0.000 C 
ENDBRANCH  17  19
ENDBRANCH  11  17
ENDBRANCH   5  15
ENDBRANCH   1   8
BRANCH   2  20
ATOM     20  C   UNL     1       2.034   3.843  20.575  0.00  0.00    +0.000 C 
ATOM     21  C   UNL     1       2.476   3.344  21.942  0.00  0.00    +0.000 C 
ATOM     22  C   UNL     1       1.264   2.743  21.302  0.00  0.00    +0.000 C 
BRANCH  20  23
ATOM     23  C   UNL     1       2.818   3.487  19.327  0.00  0.00    +0.000 A 
ATOM     24  C   UNL     1       2.162   3.281  18.120  0.00  0.00    +0.000 A 
ATOM     25  C   UNL     1       2.940   3.168  16.991  0.00  0.00    +0.000 A 
ATOM     26  N   UNL     1       4.282   3.230  17.013  0.00  0.00    +0.000 NA
ATOM     27  C   UNL     1       4.816   3.394  18.225  0.00  0.00    +0.000 A 
ATOM     28  N   UNL     1       6.195   3.585  18.223  0.00  0.00    +0.000 N 
ATOM     29  N   UNL     1       4.165   3.534  19.378  0.00  0.00    +0.000 NA
ATOM     30  H   UNL     1       6.598   3.173  17.388  0.00  0.00    +0.000 HD
BRANCH  28  31
ATOM     31  S   UNL     1       6.648   5.196  18.360  0.00  0.00    +0.000 S 
ATOM     32  O   UNL     1       6.794   5.562  19.754  0.00  0.00    +0.000 OA
ATOM     33  O   UNL     1       7.747   5.367  17.432  0.00  0.00    +0.000 OA
BRANCH  31  34
ATOM     34  C   UNL     1       5.263   6.214  17.729  0.00  0.00    +0.000 C 
ATOM     35  C   UNL     1       5.700   7.543  17.166  0.00  0.00    +0.000 C 
ATOM     36  C   UNL     1       5.249   6.449  16.241  0.00  0.00    +0.000 C 
ENDBRANCH  31  34
ENDBRANCH  28  31
ENDBRANCH  20  23
ENDBRANCH   2  20
TORSDOF 8
ENDMDL
MODEL 7
REMARK VINA RESULT:      -7.8      2.908      4.185
REMARK  Name = 
REMARK  9 active torsions:
REMARK  status: ('A' for Active; 'I' for Inactive)
REMARK    1  A    between atoms: C_1  and  C_2
REMARK    2  A    between atoms: C_2  and  O_3
REMARK    3  A    between atoms: O_3  and  C_4
REMARK    4  A    between atoms: C_8  and  C_9
REMARK    5  A    between atoms: C_12  and  N_13
REMARK    6  A    between atoms: C_14  and  C_16
REMARK    7  A    between atoms: C_16  and  C_17
REMARK    8  A    between atoms: N_22  and  S_23
REMARK    9  A    between atoms: S_23  and  C_26
REMARK                            x       y       z     vdW  Elec       q    Type
REMARK                         _______ _______ _______ _____ _____    ______ ____
ROOT
ATOM      1  N   UNL     1       3.122   6.521  19.543  0.00  0.00    +0.000 N 
ATOM      2  C   UNL     1       2.832   5.222  19.172  0.00  0.00    +0.000 C 
ATOM      3  O   UNL     1       1.742   4.756  18.871  0.00  0.00    +0.000 OA
ATOM      4  H   UNL     1       4.105   6.776  19.599  0.00  0.00    +0.000 HD
ENDROOT
BRANCH   1   8
ATOM      5  C   UNL     1       0.292   9.640  20.054  0.00  0.00    +0.000 A 
ATOM      6  C   UNL     1       1.001   9.507  18.854  0.00  0.00    +0.000 A 
ATOM      7  C   UNL     1       1.921   8.474  18.670  0.00  0.00    +0.000 A 
ATOM      8  C   UNL     1       2.178   7.551  19.683  0.00  0.00    +0.000 A 
ATOM      9  C   UNL     1       1.483   7.663  20.882  0.00  0.00    +0.000 A 
ATOM     10  C   UNL     1       0.559   8.702  21.069  0.00  0.00    +0.000 A 
BRANCH   5  15
ATOM     11  C   UNL     1      -1.734  12.157  21.713  0.00  0.00    +0.000 A 
ATOM     12  C   UNL     1      -2.451  12.717  20.668  0.00  0.00    +0.000 A 
ATOM     13  N   UNL     1      -2.329  12.288  19.390  0.00  0.00    +0.000 NA
ATOM     14  C   UNL     1      -1.439  11.281  19.213  0.00  0.00    +0.000 A 
ATOM     15  C   UNL     1      -0.689  10.720  20.250  0.00  0.00    +0.000 A 
ATOM     16  N   UNL     1      -0.845  11.159  21.524  0.00  0.00    +0.000 NA
BRANCH  11  17
ATOM     17  O   UNL     1      -1.919  12.670  22.977  0.00  0.00    +0.000 OA
BRANCH  17  19
ATOM     18  C   UNL     1      -3.842  13.529  24.103  0.00  0.00    +0.000 C 
ATOM     19  C   UNL     1      -3.180  12.288  23.532  0.00  0.00    +0.000 C 
ENDBRANCH  17  19
ENDBRANCH  11  17
ENDBRANCH   5  15
ENDBRANCH   1   8
BRANCH   2  20
ATOM     20  C   UNL     1       4.033   4.343  19.032  0.00  0.00    +0.000 C 
ATOM     21  C   UNL     1       4.046   3.001  19.749  0.00  0.00    +0.000 C 
ATOM     22  C   UNL     1       3.835   3.037  18.267  0.00  0.00    +0.000 C 
BRANCH  20  23
ATOM     23  C   UNL     1       5.314   5.127  18.827  0.00  0.00    +0.000 A 
ATOM     24  C   UNL     1       6.279   5.170  19.826  0.00  0.00    +0.000 A 
ATOM     25  C   UNL     1       7.498   5.720  19.501  0.00  0.00    +0.000 A 
ATOM     26  N   UNL     1       7.779   6.221  18.287  0.00  0.00    +0.000 NA
ATOM     27  C   UNL     1       6.774   6.164  17.410  0.00  0.00    +0.000 A 
ATOM     28  N   UNL     1       7.114   6.568  16.122  0.00  0.00    +0.000 N 
ATOM     29  N   UNL     1       5.566   5.641  17.605  0.00  0.00    +0.000 NA
ATOM     30  H   UNL     1       7.908   7.199  16.157  0.00  0.00    +0.000 HD
BRANCH  28  31
ATOM     31  S   UNL     1       7.427   5.288  15.080  0.00  0.00    +0.000 S 
ATOM     32  O   UNL     1       8.282   5.720  13.994  0.00  0.00    +0.000 OA
ATOM     33  O   UNL     1       7.815   4.184  15.933  0.00  0.00    +0.000 OA
BRANCH  31  34
ATOM     34  C   UNL     1       5.841   4.815  14.297  0.00  0.00    +0.000 C 
ATOM     35  C   UNL     1       5.987   3.757  13.232  0.00  0.00    +0.000 C 
ATOM     36  C   UNL     1       5.376   3.406  14.559  0.00  0.00    +0.000 C 
ENDBRANCH  31  34
ENDBRANCH  28  31
ENDBRANCH  20  23
ENDBRANCH   2  20
TORSDOF 8
ENDMDL
MODEL 8
REMARK VINA RESULT:      -7.8      2.748      4.157
REMARK  Name = 
REMARK  9 active torsions:
REMARK  status: ('A' for Active; 'I' for Inactive)
REMARK    1  A    between atoms: C_1  and  C_2
REMARK    2  A    between atoms: C_2  and  O_3
REMARK    3  A    between atoms: O_3  and  C_4
REMARK    4  A    between atoms: C_8  and  C_9
REMARK    5  A    between atoms: C_12  and  N_13
REMARK    6  A    between atoms: C_14  and  C_16
REMARK    7  A    between atoms: C_16  and  C_17
REMARK    8  A    between atoms: N_22  and  S_23
REMARK    9  A    between atoms: S_23  and  C_26
REMARK                            x       y       z     vdW  Elec       q    Type
REMARK                         _______ _______ _______ _____ _____    ______ ____
ROOT
ATOM      1  N   UNL     1       2.844   6.985  18.801  0.00  0.00    +0.000 N 
ATOM      2  C   UNL     1       2.608   5.671  19.155  0.00  0.00    +0.000 C 
ATOM      3  O   UNL     1       1.638   5.219  19.747  0.00  0.00    +0.000 OA
ATOM      4  H   UNL     1       3.620   7.160  18.167  0.00  0.00    +0.000 HD
ENDROOT
BRANCH   1   8
ATOM      5  C   UNL     1       0.267  10.248  19.647  0.00  0.00    +0.000 A 
ATOM      6  C   UNL     1       0.682   9.381  20.666  0.00  0.00    +0.000 A 
ATOM      7  C   UNL     1       1.543   8.315  20.400  0.00  0.00    +0.000 A 
ATOM      8  C   UNL     1       2.004   8.068  19.108  0.00  0.00    +0.000 A 
ATOM      9  C   UNL     1       1.606   8.919  18.082  0.00  0.00    +0.000 A 
ATOM     10  C   UNL     1       0.740   9.988  18.346  0.00  0.00    +0.000 A 
BRANCH   5  15
ATOM     11  C   UNL     1      -2.732  12.294  19.708  0.00  0.00    +0.000 A 
ATOM     12  C   UNL     1      -2.331  13.413  20.422  0.00  0.00    +0.000 A 
ATOM     13  N   UNL     1      -1.071  13.563  20.889  0.00  0.00    +0.000 NA
ATOM     14  C   UNL     1      -0.238  12.527  20.619  0.00  0.00    +0.000 A 
ATOM     15  C   UNL     1      -0.631  11.382  19.923  0.00  0.00    +0.000 A 
ATOM     16  N   UNL     1      -1.897  11.265  19.451  0.00  0.00    +0.000 NA
BRANCH  11  17
ATOM     17  O   UNL     1      -4.041  12.228  19.284  0.00  0.00    +0.000 OA
BRANCH  17  19
ATOM     18  C   UNL     1      -5.610  11.203  17.804  0.00  0.00    +0.000 C 
ATOM     19  C   UNL     1      -4.159  11.598  18.005  0.00  0.00    +0.000 C 
ENDBRANCH  17  19
ENDBRANCH  11  17
ENDBRANCH   5  15
ENDBRANCH   1   8
BRANCH   2  20
ATOM     20  C   UNL     1       3.628   4.706  18.643  0.00  0.00    +0.000 C 
ATOM     21  C   UNL     1       3.419   3.220  18.889  0.00  0.00    +0.000 C 
ATOM     22  C   UNL     1       3.182   3.775  17.519  0.00  0.00    +0.000 C 
BRANCH  20  23
ATOM     23  C   UNL     1       5.024   5.297  18.595  0.00  0.00    +0.000 A 
ATOM     24  C   UNL     1       5.886   5.152  19.674  0.00  0.00    +0.000 A 
ATOM     25  C   UNL     1       7.196   5.526  19.489  0.00  0.00    +0.000 A 
ATOM     26  N   UNL     1       7.661   6.033  18.335  0.00  0.00    +0.000 NA
ATOM     27  C   UNL     1       6.746   6.165  17.372  0.00  0.00    +0.000 A 
ATOM     28  N   UNL     1       7.261   6.570  16.144  0.00  0.00    +0.000 N 
ATOM     29  N   UNL     1       5.461   5.821  17.432  0.00  0.00    +0.000 NA
ATOM     30  H   UNL     1       8.131   7.073  16.284  0.00  0.00    +0.000 HD
BRANCH  28  31
ATOM     31  S   UNL     1       7.481   5.306  15.061  0.00  0.00    +0.000 S 
ATOM     32  O   UNL     1       8.331   5.723  13.965  0.00  0.00    +0.000 OA
ATOM     33  O   UNL     1       7.833   4.160  15.874  0.00  0.00    +0.000 OA
BRANCH  31  34
ATOM     34  C   UNL     1       5.854   4.936  14.307  0.00  0.00    +0.000 C 
ATOM     35  C   UNL     1       5.901   3.825  13.288  0.00  0.00    +0.000 C 
ATOM     36  C   UNL     1       5.274   3.584  14.633  0.00  0.00    +0.000 C 
ENDBRANCH  31  34
ENDBRANCH  28  31
ENDBRANCH  20  23
ENDBRANCH   2  20
TORSDOF 8
ENDMDL
MODEL 9
REMARK VINA RESULT:      -7.8      1.380      2.052
REMARK  Name = 
REMARK  9 active torsions:
REMARK  status: ('A' for Active; 'I' for Inactive)
REMARK    1  A    between atoms: C_1  and  C_2
REMARK    2  A    between atoms: C_2  and  O_3
REMARK    3  A    between atoms: O_3  and  C_4
REMARK    4  A    between atoms: C_8  and  C_9
REMARK    5  A    between atoms: C_12  and  N_13
REMARK    6  A    between atoms: C_14  and  C_16
REMARK    7  A    between atoms: C_16  and  C_17
REMARK    8  A    between atoms: N_22  and  S_23
REMARK    9  A    between atoms: S_23  and  C_26
REMARK                            x       y       z     vdW  Elec       q    Type
REMARK                         _______ _______ _______ _____ _____    ______ ____
ROOT
ATOM      1  N   UNL     1       2.250   6.033  20.377  0.00  0.00    +0.000 N 
ATOM      2  C   UNL     1       1.377   4.970  20.501  0.00  0.00    +0.000 C 
ATOM      3  O   UNL     1       0.157   4.990  20.412  0.00  0.00    +0.000 OA
ATOM      4  H   UNL     1       3.241   5.810  20.315  0.00  0.00    +0.000 HD
ENDROOT
BRANCH   1   8
ATOM      5  C   UNL     1       1.085  10.046  19.647  0.00  0.00    +0.000 A 
ATOM      6  C   UNL     1       0.945   9.481  20.921  0.00  0.00    +0.000 A 
ATOM      7  C   UNL     1       1.342   8.167  21.175  0.00  0.00    +0.000 A 
ATOM      8  C   UNL     1       1.873   7.369  20.163  0.00  0.00    +0.000 A 
ATOM      9  C   UNL     1       2.023   7.911  18.892  0.00  0.00    +0.000 A 
ATOM     10  C   UNL     1       1.624   9.229  18.634  0.00  0.00    +0.000 A 
BRANCH   5  15
ATOM     11  C   UNL     1      -0.914  13.078  19.611  0.00  0.00    +0.000 A 
ATOM     12  C   UNL     1      -0.104  13.977  18.934  0.00  0.00    +0.000 A 
ATOM     13  N   UNL     1       1.108  13.633  18.440  0.00  0.00    +0.000 NA
ATOM     14  C   UNL     1       1.472  12.348  18.674  0.00  0.00    +0.000 A 
ATOM     15  C   UNL     1       0.681  11.436  19.375  0.00  0.00    +0.000 A 
ATOM     16  N   UNL     1      -0.538  11.802  19.845  0.00  0.00    +0.000 NA
BRANCH  11  17
ATOM     17  O   UNL     1      -2.126  13.525  20.087  0.00  0.00    +0.000 OA
BRANCH  17  19
ATOM     18  C   UNL     1      -2.189  14.782  22.117  0.00  0.00    +0.000 C 
ATOM     19  C   UNL     1      -2.227  13.393  21.507  0.00  0.00    +0.000 C 
ENDBRANCH  17  19
ENDBRANCH  11  17
ENDBRANCH   5  15
ENDBRANCH   1   8
BRANCH   2  20
ATOM     20  C   UNL     1       2.045   3.642  20.656  0.00  0.00    +0.000 C 
ATOM     21  C   UNL     1       2.540   3.226  22.033  0.00  0.00    +0.000 C 
ATOM     22  C   UNL     1       1.299   2.596  21.480  0.00  0.00    +0.000 C 
BRANCH  20  23
ATOM     23  C   UNL     1       2.777   3.203  19.402  0.00  0.00    +0.000 A 
ATOM     24  C   UNL     1       2.117   2.470  18.424  0.00  0.00    +0.000 A 
ATOM     25  C   UNL     1       2.770   2.284  17.228  0.00  0.00    +0.000 A 
ATOM     26  N   UNL     1       4.003   2.757  16.981  0.00  0.00    +0.000 NA
ATOM     27  C   UNL     1       4.564   3.417  17.997  0.00  0.00    +0.000 A 
ATOM     28  N   UNL     1       5.784   4.012  17.689  0.00  0.00    +0.000 N 
ATOM     29  N   UNL     1       4.022   3.673  19.186  0.00  0.00    +0.000 NA
ATOM     30  H   UNL     1       6.221   3.523  16.915  0.00  0.00    +0.000 HD
BRANCH  28  31
ATOM     31  S   UNL     1       5.663   5.653  17.354  0.00  0.00    +0.000 S 
ATOM     32  O   UNL     1       5.073   5.858  16.047  0.00  0.00    +0.000 OA
ATOM     33  O   UNL     1       5.066   6.244  18.535  0.00  0.00    +0.000 OA
BRANCH  31  34
ATOM     34  C   UNL     1       7.364   6.319  17.235  0.00  0.00    +0.000 C 
ATOM     35  C   UNL     1       7.453   7.798  17.515  0.00  0.00    +0.000 C 
ATOM     36  C   UNL     1       7.966   6.811  18.526  0.00  0.00    +0.000 C 
ENDBRANCH  31  34
ENDBRANCH  28  31
ENDBRANCH  20  23
ENDBRANCH   2  20
TORSDOF 8
ENDMDL
