MODEL 1
REMARK VINA RESULT:      -8.2      0.000      0.000
REMARK  Name = 
REMARK  7 active torsions:
REMARK  status: ('A' for Active; 'I' for Inactive)
REMARK    1  A    between atoms: C_1  and  C_2
REMARK    2  A    between atoms: N_4  and  C_5
REMARK    3  A    between atoms: C_11  and  O_12
REMARK    4  A    between atoms: C_13  and  C_14
REMARK    5  A    between atoms: N_15  and  N_16
REMARK    6  A    between atoms: C_17  and  C_19
REMARK    7  A    between atoms: C_23  and  N_24
REMARK                            x       y       z     vdW  Elec       q    Type
REMARK                         _______ _______ _______ _____ _____    ______ ____
ROOT
ATOM      1  C   UNL     1       3.839   6.502  18.232  0.00  0.00    +0.000 C 
ATOM      2  N   UNL     1       2.553   6.625  18.241  0.00  0.00    +0.000 NA
ENDROOT
BRANCH   1   8
ATOM      3  C   UNL     1       4.378   3.309  18.732  0.00  0.00    +0.000 C 
ATOM      4  C   UNL     1       4.680   4.136  17.533  0.00  0.00    +0.000 A 
ATOM      5  N   UNL     1       5.190   3.578  16.424  0.00  0.00    +0.000 NA
ATOM      6  N   UNL     1       5.457   4.623  15.600  0.00  0.00    +0.000 N 
ATOM      7  C   UNL     1       4.953   5.819  16.117  0.00  0.00    +0.000 A 
ATOM      8  C   UNL     1       4.465   5.528  17.374  0.00  0.00    +0.000 A 
BRANCH   6   9
ATOM      9  C   UNL     1       6.137   4.437  14.362  0.00  0.00    +0.000 A 
ATOM     10  C   UNL     1       5.616   3.565  13.397  0.00  0.00    +0.000 A 
ATOM     11  C   UNL     1       6.223   3.484  12.139  0.00  0.00    +0.000 A 
ATOM     12  C   UNL     1       7.363   4.236  11.854  0.00  0.00    +0.000 A 
ATOM     13  C   UNL     1       7.921   5.054  12.835  0.00  0.00    +0.000 A 
ATOM     14  C   UNL     1       7.316   5.149  14.088  0.00  0.00    +0.000 A 
ENDBRANCH   6   9
BRANCH   7  15
ATOM     15  O   UNL     1       4.904   6.984  15.464  0.00  0.00    +0.000 OA
ATOM     16  H   UNL     1       4.184   6.952  14.809  0.00  0.00    +0.000 HD
ENDBRANCH   7  15
ENDBRANCH   1   8
BRANCH   2  17
ATOM     17  N   UNL     1       2.049   7.600  19.059  0.00  0.00    +0.000 N 
ATOM     18  C   UNL     1       1.708   8.827  18.510  0.00  0.00    +0.000 C 
ATOM     19  O   UNL     1       1.777   9.109  17.316  0.00  0.00    +0.000 OA
ATOM     20  H   UNL     1       1.879   7.388  20.035  0.00  0.00    +0.000 HD
BRANCH  18  21
ATOM     21  C   UNL     1       1.198   9.859  19.455  0.00  0.00    +0.000 A 
ATOM     22  C   UNL     1       1.296  11.206  19.068  0.00  0.00    +0.000 A 
ATOM     23  C   UNL     1       0.882  12.228  19.923  0.00  0.00    +0.000 A 
ATOM     24  C   UNL     1       0.374  11.917  21.184  0.00  0.00    +0.000 A 
ATOM     25  C   UNL     1       0.282  10.575  21.577  0.00  0.00    +0.000 A 
ATOM     26  C   UNL     1       0.692   9.538  20.720  0.00  0.00    +0.000 A 
BRANCH  25  27
ATOM     27  N   UNL     1      -0.240  10.246  22.911  0.00  0.00    +0.000 N 
ATOM     28  O   UNL     1       0.515   9.651  23.697  0.00  0.00    +0.000 OA
ATOM     29  O   UNL     1      -1.398  10.592  23.172  0.00  0.00    +0.000 OA
ENDBRANCH  25  27
ENDBRANCH  18  21
ENDBRANCH   2  17
TORSDOF 6
ENDMDL
MODEL 2
REMARK VINA RESULT:      -8.2      6.305      7.906
REMARK  Name = 
REMARK  7 active torsions:
REMARK  status: ('A' for Active; 'I' for Inactive)
REMARK    1  A    between atoms: C_1  and  C_2
REMARK    2  A    between atoms: N_4  and  C_5
REMARK    3  A    between atoms: C_11  and  O_12
REMARK    4  A    between atoms: C_13  and  C_14
REMARK    5  A    between atoms: N_15  and  N_16
REMARK    6  A    between atoms: C_17  and  C_19
REMARK    7  A    between atoms: C_23  and  N_24
REMARK                            x       y       z     vdW  Elec       q    Type
REMARK                         _______ _______ _______ _____ _____    ______ ____
ROOT
ATOM      1  C   UNL     1       7.550   7.827  17.566  0.00  0.00    +0.000 C 
ATOM      2  N   UNL     1       8.080   8.620  18.439  0.00  0.00    +0.000 NA
ENDROOT
BRANCH   1   8
ATOM      3  C   UNL     1       8.449   5.479  19.667  0.00  0.00    +0.000 C 
ATOM      4  C   UNL     1       7.166   5.640  18.931  0.00  0.00    +0.000 A 
ATOM      5  N   UNL     1       6.146   4.790  19.134  0.00  0.00    +0.000 NA
ATOM      6  N   UNL     1       5.209   5.150  18.221  0.00  0.00    +0.000 N 
ATOM      7  C   UNL     1       5.562   6.333  17.568  0.00  0.00    +0.000 A 
ATOM      8  C   UNL     1       6.833   6.654  17.998  0.00  0.00    +0.000 A 
BRANCH   6   9
ATOM      9  C   UNL     1       4.020   4.386  18.038  0.00  0.00    +0.000 A 
ATOM     10  C   UNL     1       4.100   3.024  17.721  0.00  0.00    +0.000 A 
ATOM     11  C   UNL     1       2.932   2.257  17.666  0.00  0.00    +0.000 A 
ATOM     12  C   UNL     1       1.687   2.848  17.887  0.00  0.00    +0.000 A 
ATOM     13  C   UNL     1       1.600   4.216  18.137  0.00  0.00    +0.000 A 
ATOM     14  C   UNL     1       2.761   4.985  18.204  0.00  0.00    +0.000 A 
ENDBRANCH   6   9
BRANCH   7  15
ATOM     15  O   UNL     1       4.771   7.029  16.746  0.00  0.00    +0.000 OA
ATOM     16  H   UNL     1       5.259   7.225  15.925  0.00  0.00    +0.000 HD
ENDBRANCH   7  15
ENDBRANCH   1   8
BRANCH   2  17
ATOM     17  N   UNL     1       8.708   9.728  17.939  0.00  0.00    +0.000 N 
ATOM     18  C   UNL     1       9.282  10.630  18.821  0.00  0.00    +0.000 C 
ATOM     19  O   UNL     1       9.319  10.496  20.042  0.00  0.00    +0.000 OA
ATOM     20  H   UNL     1       8.793   9.837  16.935  0.00  0.00    +0.000 HD
BRANCH  18  21
ATOM     21  C   UNL     1       9.920  11.834  18.220  0.00  0.00    +0.000 A 
ATOM     22  C   UNL     1      11.234  11.706  17.738  0.00  0.00    +0.000 A 
ATOM     23  C   UNL     1      11.911  12.804  17.206  0.00  0.00    +0.000 A 
ATOM     24  C   UNL     1      11.286  14.049  17.158  0.00  0.00    +0.000 A 
ATOM     25  C   UNL     1       9.979  14.183  17.645  0.00  0.00    +0.000 A 
ATOM     26  C   UNL     1       9.287  13.081  18.178  0.00  0.00    +0.000 A 
BRANCH  25  27
ATOM     27  N   UNL     1       9.324  15.499  17.608  0.00  0.00    +0.000 N 
ATOM     28  O   UNL     1       8.123  15.556  17.915  0.00  0.00    +0.000 OA
ATOM     29  O   UNL     1      10.015  16.471  17.282  0.00  0.00    +0.000 OA
ENDBRANCH  25  27
ENDBRANCH  18  21
ENDBRANCH   2  17
TORSDOF 6
ENDMDL
MODEL 3
REMARK VINA RESULT:      -8.1      5.661      7.862
REMARK  Name = 
REMARK  7 active torsions:
REMARK  status: ('A' for Active; 'I' for Inactive)
REMARK    1  A    between atoms: C_1  and  C_2
REMARK    2  A    between atoms: N_4  and  C_5
REMARK    3  A    between atoms: C_11  and  O_12
REMARK    4  A    between atoms: C_13  and  C_14
REMARK    5  A    between atoms: N_15  and  N_16
REMARK    6  A    between atoms: C_17  and  C_19
REMARK    7  A    between atoms: C_23  and  N_24
REMARK                            x       y       z     vdW  Elec       q    Type
REMARK                         _______ _______ _______ _____ _____    ______ ____
ROOT
ATOM      1  C   UNL     1       7.266   7.044  17.648  0.00  0.00    +0.000 C 
ATOM      2  N   UNL     1       8.015   6.921  18.694  0.00  0.00    +0.000 NA
ENDROOT
BRANCH   1   8
ATOM      3  C   UNL     1       7.261   5.247  14.908  0.00  0.00    +0.000 C 
ATOM      4  C   UNL     1       6.381   5.141  16.103  0.00  0.00    +0.000 A 
ATOM      5  N   UNL     1       5.464   4.164  16.196  0.00  0.00    +0.000 NA
ATOM      6  N   UNL     1       4.771   4.446  17.329  0.00  0.00    +0.000 N 
ATOM      7  C   UNL     1       5.363   5.492  18.040  0.00  0.00    +0.000 A 
ATOM      8  C   UNL     1       6.392   5.967  17.254  0.00  0.00    +0.000 A 
BRANCH   6   9
ATOM      9  C   UNL     1       3.616   3.698  17.697  0.00  0.00    +0.000 A 
ATOM     10  C   UNL     1       3.742   2.362  18.100  0.00  0.00    +0.000 A 
ATOM     11  C   UNL     1       2.621   1.674  18.577  0.00  0.00    +0.000 A 
ATOM     12  C   UNL     1       1.374   2.299  18.618  0.00  0.00    +0.000 A 
ATOM     13  C   UNL     1       1.234   3.606  18.157  0.00  0.00    +0.000 A 
ATOM     14  C   UNL     1       2.349   4.301  17.690  0.00  0.00    +0.000 A 
ENDBRANCH   6   9
BRANCH   7  15
ATOM     15  O   UNL     1       5.019   5.884  19.270  0.00  0.00    +0.000 OA
ATOM     16  H   UNL     1       4.242   6.470  19.212  0.00  0.00    +0.000 HD
ENDBRANCH   7  15
ENDBRANCH   1   8
BRANCH   2  17
ATOM     17  N   UNL     1       8.783   8.008  19.014  0.00  0.00    +0.000 N 
ATOM     18  C   UNL     1       8.488   9.232  18.436  0.00  0.00    +0.000 C 
ATOM     19  O   UNL     1       7.545   9.445  17.678  0.00  0.00    +0.000 OA
ATOM     20  H   UNL     1       9.513   7.908  19.709  0.00  0.00    +0.000 HD
BRANCH  18  21
ATOM     21  C   UNL     1       9.381  10.369  18.795  0.00  0.00    +0.000 A 
ATOM     22  C   UNL     1       9.648  10.585  20.158  0.00  0.00    +0.000 A 
ATOM     23  C   UNL     1      10.437  11.660  20.571  0.00  0.00    +0.000 A 
ATOM     24  C   UNL     1      10.961  12.541  19.625  0.00  0.00    +0.000 A 
ATOM     25  C   UNL     1      10.690  12.333  18.266  0.00  0.00    +0.000 A 
ATOM     26  C   UNL     1       9.901  11.250  17.840  0.00  0.00    +0.000 A 
BRANCH  25  27
ATOM     27  N   UNL     1      11.230  13.270  17.269  0.00  0.00    +0.000 N 
ATOM     28  O   UNL     1      10.551  14.270  16.989  0.00  0.00    +0.000 OA
ATOM     29  O   UNL     1      12.333  13.007  16.778  0.00  0.00    +0.000 OA
ENDBRANCH  25  27
ENDBRANCH  18  21
ENDBRANCH   2  17
TORSDOF 6
ENDMDL
MODEL 4
REMARK VINA RESULT:      -8.1      2.706     10.316
REMARK  Name = 
REMARK  7 active torsions:
REMARK  status: ('A' for Active; 'I' for Inactive)
REMARK    1  A    between atoms: C_1  and  C_2
REMARK    2  A    between atoms: N_4  and  C_5
REMARK    3  A    between atoms: C_11  and  O_12
REMARK    4  A    between atoms: C_13  and  C_14
REMARK    5  A    between atoms: N_15  and  N_16
REMARK    6  A    between atoms: C_17  and  C_19
REMARK    7  A    between atoms: C_23  and  N_24
REMARK                            x       y       z     vdW  Elec       q    Type
REMARK                         _______ _______ _______ _____ _____    ______ ____
ROOT
ATOM      1  C   UNL     1       1.656   9.996  18.217  0.00  0.00    +0.000 C 
ATOM      2  N   UNL     1       1.778   8.843  18.789  0.00  0.00    +0.000 NA
ENDROOT
BRANCH   1   8
ATOM      3  C   UNL     1       2.156  13.233  18.162  0.00  0.00    +0.000 C 
ATOM      4  C   UNL     1       1.081  12.460  18.840  0.00  0.00    +0.000 A 
ATOM      5  N   UNL     1       0.093  13.089  19.496  0.00  0.00    +0.000 NA
ATOM      6  N   UNL     1      -0.617  12.095  20.089  0.00  0.00    +0.000 N 
ATOM      7  C   UNL     1      -0.184  10.838  19.662  0.00  0.00    +0.000 A 
ATOM      8  C   UNL     1       0.925  11.052  18.870  0.00  0.00    +0.000 A 
BRANCH   6   9
ATOM      9  C   UNL     1      -1.681  12.380  20.992  0.00  0.00    +0.000 A 
ATOM     10  C   UNL     1      -2.914  12.835  20.506  0.00  0.00    +0.000 A 
ATOM     11  C   UNL     1      -3.988  12.994  21.387  0.00  0.00    +0.000 A 
ATOM     12  C   UNL     1      -3.829  12.738  22.750  0.00  0.00    +0.000 A 
ATOM     13  C   UNL     1      -2.586  12.349  23.245  0.00  0.00    +0.000 A 
ATOM     14  C   UNL     1      -1.513  12.178  22.371  0.00  0.00    +0.000 A 
ENDBRANCH   6   9
BRANCH   7  15
ATOM     15  O   UNL     1      -0.793   9.678  19.929  0.00  0.00    +0.000 OA
ATOM     16  H   UNL     1      -0.373   9.271  20.709  0.00  0.00    +0.000 HD
ENDBRANCH   7  15
ENDBRANCH   1   8
BRANCH   2  17
ATOM     17  N   UNL     1       2.521   7.913  18.113  0.00  0.00    +0.000 N 
ATOM     18  C   UNL     1       2.822   6.712  18.736  0.00  0.00    +0.000 C 
ATOM     19  O   UNL     1       2.431   6.380  19.853  0.00  0.00    +0.000 OA
ATOM     20  H   UNL     1       2.785   8.096  17.152  0.00  0.00    +0.000 HD
BRANCH  18  21
ATOM     21  C   UNL     1       3.662   5.756  17.964  0.00  0.00    +0.000 A 
ATOM     22  C   UNL     1       3.071   4.549  17.553  0.00  0.00    +0.000 A 
ATOM     23  C   UNL     1       3.813   3.585  16.868  0.00  0.00    +0.000 A 
ATOM     24  C   UNL     1       5.161   3.811  16.593  0.00  0.00    +0.000 A 
ATOM     25  C   UNL     1       5.757   5.010  17.008  0.00  0.00    +0.000 A 
ATOM     26  C   UNL     1       5.016   5.989  17.694  0.00  0.00    +0.000 A 
BRANCH  25  27
ATOM     27  N   UNL     1       7.182   5.244  16.732  0.00  0.00    +0.000 N 
ATOM     28  O   UNL     1       7.994   4.397  17.135  0.00  0.00    +0.000 OA
ATOM     29  O   UNL     1       7.482   6.267  16.107  0.00  0.00    +0.000 OA
ENDBRANCH  25  27
ENDBRANCH  18  21
ENDBRANCH   2  17
TORSDOF 6
ENDMDL
MODEL 5
REMARK VINA RESULT:      -8.0      2.684     10.890
REMARK  Name = 
REMARK  7 active torsions:
REMARK  status: ('A' for Active; 'I' for Inactive)
REMARK    1  A    between atoms: C_1  and  C_2
REMARK    2  A    between atoms: N_4  and  C_5
REMARK    3  A    between atoms: C_11  and  O_12
REMARK    4  A    between atoms: C_13  and  C_14
REMARK    5  A    between atoms: N_15  and  N_16
REMARK    6  A    between atoms: C_17  and  C_19
REMARK    7  A    between atoms: C_23  and  N_24
REMARK                            x       y       z     vdW  Elec       q    Type
REMARK                         _______ _______ _______ _____ _____    ______ ____
ROOT
ATOM      1  C   UNL     1       0.764   9.237  20.595  0.00  0.00    +0.000 C 
ATOM      2  N   UNL     1       1.277   9.092  19.418  0.00  0.00    +0.000 NA
ENDROOT
BRANCH   1   8
ATOM      3  C   UNL     1      -0.975  11.060  18.500  0.00  0.00    +0.000 C 
ATOM      4  C   UNL     1      -0.951  11.104  19.987  0.00  0.00    +0.000 A 
ATOM      5  N   UNL     1      -1.765  11.930  20.663  0.00  0.00    +0.000 NA
ATOM      6  N   UNL     1      -1.387  11.803  21.961  0.00  0.00    +0.000 N 
ATOM      7  C   UNL     1      -0.461  10.771  22.122  0.00  0.00    +0.000 A 
ATOM      8  C   UNL     1      -0.151  10.320  20.856  0.00  0.00    +0.000 A 
BRANCH   6   9
ATOM      9  C   UNL     1      -1.941  12.632  22.979  0.00  0.00    +0.000 A 
ATOM     10  C   UNL     1      -1.255  13.776  23.407  0.00  0.00    +0.000 A 
ATOM     11  C   UNL     1      -1.863  14.648  24.316  0.00  0.00    +0.000 A 
ATOM     12  C   UNL     1      -3.131  14.365  24.826  0.00  0.00    +0.000 A 
ATOM     13  C   UNL     1      -3.787  13.194  24.452  0.00  0.00    +0.000 A 
ATOM     14  C   UNL     1      -3.192  12.326  23.538  0.00  0.00    +0.000 A 
ENDBRANCH   6   9
BRANCH   7  15
ATOM     15  O   UNL     1      -0.033  10.291  23.294  0.00  0.00    +0.000 OA
ATOM     16  H   UNL     1      -0.803  10.046  23.838  0.00  0.00    +0.000 HD
ENDBRANCH   7  15
ENDBRANCH   1   8
BRANCH   2  17
ATOM     17  N   UNL     1       2.105   8.015  19.252  0.00  0.00    +0.000 N 
ATOM     18  C   UNL     1       2.748   7.842  18.037  0.00  0.00    +0.000 C 
ATOM     19  O   UNL     1       2.676   8.616  17.085  0.00  0.00    +0.000 OA
ATOM     20  H   UNL     1       2.277   7.399  20.038  0.00  0.00    +0.000 HD
BRANCH  18  21
ATOM     21  C   UNL     1       3.607   6.633  17.905  0.00  0.00    +0.000 A 
ATOM     22  C   UNL     1       3.071   5.402  18.319  0.00  0.00    +0.000 A 
ATOM     23  C   UNL     1       3.837   4.236  18.270  0.00  0.00    +0.000 A 
ATOM     24  C   UNL     1       5.153   4.287  17.815  0.00  0.00    +0.000 A 
ATOM     25  C   UNL     1       5.694   5.515  17.408  0.00  0.00    +0.000 A 
ATOM     26  C   UNL     1       4.929   6.694  17.449  0.00  0.00    +0.000 A 
BRANCH  25  27
ATOM     27  N   UNL     1       7.087   5.573  16.942  0.00  0.00    +0.000 N 
ATOM     28  O   UNL     1       7.769   4.541  17.029  0.00  0.00    +0.000 OA
ATOM     29  O   UNL     1       7.491   6.647  16.482  0.00  0.00    +0.000 OA
ENDBRANCH  25  27
ENDBRANCH  18  21
ENDBRANCH   2  17
TORSDOF 6
ENDMDL
MODEL 6
REMARK VINA RESULT:      -8.0      5.732      7.647
REMARK  Name = 
REMARK  7 active torsions:
REMARK  status: ('A' for Active; 'I' for Inactive)
REMARK    1  A    between atoms: C_1  and  C_2
REMARK    2  A    between atoms: N_4  and  C_5
REMARK    3  A    between atoms: C_11  and  O_12
REMARK    4  A    between atoms: C_13  and  C_14
REMARK    5  A    between atoms: N_15  and  N_16
REMARK    6  A    between atoms: C_17  and  C_19
REMARK    7  A    between atoms: C_23  and  N_24
REMARK                            x       y       z     vdW  Elec       q    Type
REMARK                         _______ _______ _______ _____ _____    ______ ____
ROOT
ATOM      1  C   UNL     1       6.525   7.575  17.327  0.00  0.00    +0.000 C 
ATOM      2  N   UNL     1       7.517   8.007  18.034  0.00  0.00    +0.000 NA
ENDROOT
BRANCH   1   8
ATOM      3  C   UNL     1       7.740   4.532  17.356  0.00  0.00    +0.000 C 
ATOM      4  C   UNL     1       6.380   5.005  17.733  0.00  0.00    +0.000 A 
ATOM      5  N   UNL     1       5.468   4.151  18.225  0.00  0.00    +0.000 NA
ATOM      6  N   UNL     1       4.330   4.882  18.330  0.00  0.00    +0.000 N 
ATOM      7  C   UNL     1       4.568   6.234  18.074  0.00  0.00    +0.000 A 
ATOM      8  C   UNL     1       5.883   6.330  17.668  0.00  0.00    +0.000 A 
BRANCH   6   9
ATOM      9  C   UNL     1       3.092   4.279  18.698  0.00  0.00    +0.000 A 
ATOM     10  C   UNL     1       2.539   3.267  17.903  0.00  0.00    +0.000 A 
ATOM     11  C   UNL     1       1.390   2.597  18.337  0.00  0.00    +0.000 A 
ATOM     12  C   UNL     1       0.772   2.958  19.536  0.00  0.00    +0.000 A 
ATOM     13  C   UNL     1       1.283   4.009  20.294  0.00  0.00    +0.000 A 
ATOM     14  C   UNL     1       2.434   4.674  19.873  0.00  0.00    +0.000 A 
ENDBRANCH   6   9
BRANCH   7  15
ATOM     15  O   UNL     1       3.692   7.225  18.266  0.00  0.00    +0.000 OA
ATOM     16  H   UNL     1       3.047   6.952  18.944  0.00  0.00    +0.000 HD
ENDBRANCH   7  15
ENDBRANCH   1   8
BRANCH   2  17
ATOM     17  N   UNL     1       8.039   9.215  17.661  0.00  0.00    +0.000 N 
ATOM     18  C   UNL     1       8.830   9.912  18.560  0.00  0.00    +0.000 C 
ATOM     19  O   UNL     1       9.151   9.510  19.676  0.00  0.00    +0.000 OA
ATOM     20  H   UNL     1       7.887   9.548  16.716  0.00  0.00    +0.000 HD
BRANCH  18  21
ATOM     21  C   UNL     1       9.341  11.237  18.109  0.00  0.00    +0.000 A 
ATOM     22  C   UNL     1      10.682  11.315  17.699  0.00  0.00    +0.000 A 
ATOM     23  C   UNL     1      11.241  12.533  17.309  0.00  0.00    +0.000 A 
ATOM     24  C   UNL     1      10.468  13.693  17.335  0.00  0.00    +0.000 A 
ATOM     25  C   UNL     1       9.131  13.620  17.751  0.00  0.00    +0.000 A 
ATOM     26  C   UNL     1       8.558  12.397  18.140  0.00  0.00    +0.000 A 
BRANCH  25  27
ATOM     27  N   UNL     1       8.319  14.845  17.793  0.00  0.00    +0.000 N 
ATOM     28  O   UNL     1       7.102  14.724  18.003  0.00  0.00    +0.000 OA
ATOM     29  O   UNL     1       8.902  15.922  17.625  0.00  0.00    +0.000 OA
ENDBRANCH  25  27
ENDBRANCH  18  21
ENDBRANCH   2  17
TORSDOF 6
ENDMDL
MODEL 7
REMARK VINA RESULT:      -7.9      6.384      7.956
REMARK  Name = 
REMARK  7 active torsions:
REMARK  status: ('A' for Active; 'I' for Inactive)
REMARK    1  A    between atoms: C_1  and  C_2
REMARK    2  A    between atoms: N_4  and  C_5
REMARK    3  A    between atoms: C_11  and  O_12
REMARK    4  A    between atoms: C_13  and  C_14
REMARK    5  A    between atoms: N_15  and  N_16
REMARK    6  A    between atoms: C_17  and  C_19
REMARK    7  A    between atoms: C_23  and  N_24
REMARK                            x       y       z     vdW  Elec       q    Type
REMARK                         _______ _______ _______ _____ _____    ______ ____
ROOT
ATOM      1  C   UNL     1       7.643   7.866  17.598  0.00  0.00    +0.000 C 
ATOM      2  N   UNL     1       8.168   8.669  18.463  0.00  0.00    +0.000 NA
ENDROOT
BRANCH   1   8
ATOM      3  C   UNL     1       8.542   5.501  19.680  0.00  0.00    +0.000 C 
ATOM      4  C   UNL     1       7.250   5.682  18.966  0.00  0.00    +0.000 A 
ATOM      5  N   UNL     1       6.221   4.848  19.185  0.00  0.00    +0.000 NA
ATOM      6  N   UNL     1       5.273   5.223  18.288  0.00  0.00    +0.000 N 
ATOM      7  C   UNL     1       5.633   6.400  17.631  0.00  0.00    +0.000 A 
ATOM      8  C   UNL     1       6.916   6.702  18.040  0.00  0.00    +0.000 A 
BRANCH   6   9
ATOM      9  C   UNL     1       4.070   4.477  18.125  0.00  0.00    +0.000 A 
ATOM     10  C   UNL     1       2.833   5.133  18.103  0.00  0.00    +0.000 A 
ATOM     11  C   UNL     1       1.671   4.408  17.819  0.00  0.00    +0.000 A 
ATOM     12  C   UNL     1       1.733   3.031  17.595  0.00  0.00    +0.000 A 
ATOM     13  C   UNL     1       2.954   2.366  17.682  0.00  0.00    +0.000 A 
ATOM     14  C   UNL     1       4.118   3.084  17.954  0.00  0.00    +0.000 A 
ENDBRANCH   6   9
BRANCH   7  15
ATOM     15  O   UNL     1       4.839   7.110  16.823  0.00  0.00    +0.000 OA
ATOM     16  H   UNL     1       4.862   6.719  15.930  0.00  0.00    +0.000 HD
ENDBRANCH   7  15
ENDBRANCH   1   8
BRANCH   2  17
ATOM     17  N   UNL     1       8.807   9.767  17.953  0.00  0.00    +0.000 N 
ATOM     18  C   UNL     1       9.313  10.716  18.827  0.00  0.00    +0.000 C 
ATOM     19  O   UNL     1       9.279  10.635  20.052  0.00  0.00    +0.000 OA
ATOM     20  H   UNL     1       8.949   9.834  16.952  0.00  0.00    +0.000 HD
BRANCH  18  21
ATOM     21  C   UNL     1       9.966  11.904  18.211  0.00  0.00    +0.000 A 
ATOM     22  C   UNL     1      11.224  11.722  17.614  0.00  0.00    +0.000 A 
ATOM     23  C   UNL     1      11.916  12.801  17.060  0.00  0.00    +0.000 A 
ATOM     24  C   UNL     1      11.362  14.080  17.107  0.00  0.00    +0.000 A 
ATOM     25  C   UNL     1      10.110  14.267  17.709  0.00  0.00    +0.000 A 
ATOM     26  C   UNL     1       9.404  13.185  18.264  0.00  0.00    +0.000 A 
BRANCH  25  27
ATOM     27  N   UNL     1       9.532  15.617  17.772  0.00  0.00    +0.000 N 
ATOM     28  O   UNL     1       9.953  16.464  16.969  0.00  0.00    +0.000 OA
ATOM     29  O   UNL     1       8.654  15.823  18.617  0.00  0.00    +0.000 OA
ENDBRANCH  25  27
ENDBRANCH  18  21
ENDBRANCH   2  17
TORSDOF 6
ENDMDL
MODEL 8
REMARK VINA RESULT:      -7.8      2.575     10.362
REMARK  Name = 
REMARK  7 active torsions:
REMARK  status: ('A' for Active; 'I' for Inactive)
REMARK    1  A    between atoms: C_1  and  C_2
REMARK    2  A    between atoms: N_4  and  C_5
REMARK    3  A    between atoms: C_11  and  O_12
REMARK    4  A    between atoms: C_13  and  C_14
REMARK    5  A    between atoms: N_15  and  N_16
REMARK    6  A    between atoms: C_17  and  C_19
REMARK    7  A    between atoms: C_23  and  N_24
REMARK                            x       y       z     vdW  Elec       q    Type
REMARK                         _______ _______ _______ _____ _____    ______ ____
ROOT
ATOM      1  C   UNL     1       0.804   9.482  18.158  0.00  0.00    +0.000 C 
ATOM      2  N   UNL     1       1.656   8.795  18.845  0.00  0.00    +0.000 NA
ENDROOT
BRANCH   1   8
ATOM      3  C   UNL     1      -2.045  10.748  17.149  0.00  0.00    +0.000 C 
ATOM      4  C   UNL     1      -1.332  10.948  18.439  0.00  0.00    +0.000 A 
ATOM      5  N   UNL     1      -1.880  11.685  19.419  0.00  0.00    +0.000 NA
ATOM      6  N   UNL     1      -0.919  11.761  20.374  0.00  0.00    +0.000 N 
ATOM      7  C   UNL     1       0.162  10.929  20.076  0.00  0.00    +0.000 A 
ATOM      8  C   UNL     1      -0.077  10.410  18.820  0.00  0.00    +0.000 A 
BRANCH   6   9
ATOM      9  C   UNL     1      -1.083  12.582  21.527  0.00  0.00    +0.000 A 
ATOM     10  C   UNL     1      -0.248  13.688  21.729  0.00  0.00    +0.000 A 
ATOM     11  C   UNL     1      -0.496  14.557  22.797  0.00  0.00    +0.000 A 
ATOM     12  C   UNL     1      -1.545  14.306  23.683  0.00  0.00    +0.000 A 
ATOM     13  C   UNL     1      -2.335  13.169  23.523  0.00  0.00    +0.000 A 
ATOM     14  C   UNL     1      -2.100  12.305  22.454  0.00  0.00    +0.000 A 
ENDBRANCH   6   9
BRANCH   7  15
ATOM     15  O   UNL     1       1.178  10.654  20.899  0.00  0.00    +0.000 OA
ATOM     16  H   UNL     1       0.905  10.843  21.816  0.00  0.00    +0.000 HD
ENDBRANCH   7  15
ENDBRANCH   1   8
BRANCH   2  17
ATOM     17  N   UNL     1       2.477   7.967  18.129  0.00  0.00    +0.000 N 
ATOM     18  C   UNL     1       2.767   6.708  18.631  0.00  0.00    +0.000 C 
ATOM     19  O   UNL     1       2.301   6.238  19.667  0.00  0.00    +0.000 OA
ATOM     20  H   UNL     1       2.809   8.267  17.220  0.00  0.00    +0.000 HD
BRANCH  18  21
ATOM     21  C   UNL     1       3.693   5.867  17.824  0.00  0.00    +0.000 A 
ATOM     22  C   UNL     1       3.331   4.529  17.597  0.00  0.00    +0.000 A 
ATOM     23  C   UNL     1       4.175   3.670  16.890  0.00  0.00    +0.000 A 
ATOM     24  C   UNL     1       5.398   4.136  16.409  0.00  0.00    +0.000 A 
ATOM     25  C   UNL     1       5.766   5.469  16.641  0.00  0.00    +0.000 A 
ATOM     26  C   UNL     1       4.921   6.343  17.348  0.00  0.00    +0.000 A 
BRANCH  25  27
ATOM     27  N   UNL     1       7.062   5.957  16.149  0.00  0.00    +0.000 N 
ATOM     28  O   UNL     1       7.526   5.432  15.125  0.00  0.00    +0.000 OA
ATOM     29  O   UNL     1       7.606   6.870  16.781  0.00  0.00    +0.000 OA
ENDBRANCH  25  27
ENDBRANCH  18  21
ENDBRANCH   2  17
TORSDOF 6
ENDMDL
MODEL 9
REMARK VINA RESULT:      -7.8      2.644     10.330
REMARK  Name = 
REMARK  7 active torsions:
REMARK  status: ('A' for Active; 'I' for Inactive)
REMARK    1  A    between atoms: C_1  and  C_2
REMARK    2  A    between atoms: N_4  and  C_5
REMARK    3  A    between atoms: C_11  and  O_12
REMARK    4  A    between atoms: C_13  and  C_14
REMARK    5  A    between atoms: N_15  and  N_16
REMARK    6  A    between atoms: C_17  and  C_19
REMARK    7  A    between atoms: C_23  and  N_24
REMARK                            x       y       z     vdW  Elec       q    Type
REMARK                         _______ _______ _______ _____ _____    ______ ____
ROOT
ATOM      1  C   UNL     1       1.861  10.119  18.368  0.00  0.00    +0.000 C 
ATOM      2  N   UNL     1       1.363   8.973  18.039  0.00  0.00    +0.000 NA
ENDROOT
BRANCH   1   8
ATOM      3  C   UNL     1       2.065  13.386  18.225  0.00  0.00    +0.000 C 
ATOM      4  C   UNL     1       1.053  12.538  18.908  0.00  0.00    +0.000 A 
ATOM      5  N   UNL     1      -0.001  13.092  19.530  0.00  0.00    +0.000 NA
ATOM      6  N   UNL     1      -0.628  12.054  20.140  0.00  0.00    +0.000 N 
ATOM      7  C   UNL     1      -0.076  10.830  19.758  0.00  0.00    +0.000 A 
ATOM      8  C   UNL     1       1.024  11.122  18.978  0.00  0.00    +0.000 A 
BRANCH   6   9
ATOM      9  C   UNL     1      -1.731  12.266  21.017  0.00  0.00    +0.000 A 
ATOM     10  C   UNL     1      -1.584  12.062  22.395  0.00  0.00    +0.000 A 
ATOM     11  C   UNL     1      -2.633  12.391  23.259  0.00  0.00    +0.000 A 
ATOM     12  C   UNL     1      -3.837  12.885  22.754  0.00  0.00    +0.000 A 
ATOM     13  C   UNL     1      -4.008  13.027  21.378  0.00  0.00    +0.000 A 
ATOM     14  C   UNL     1      -2.963  12.710  20.511  0.00  0.00    +0.000 A 
ENDBRANCH   6   9
BRANCH   7  15
ATOM     15  O   UNL     1      -0.581   9.628  20.049  0.00  0.00    +0.000 OA
ATOM     16  H   UNL     1      -0.093   9.253  20.805  0.00  0.00    +0.000 HD
ENDBRANCH   7  15
ENDBRANCH   1   8
BRANCH   2  17
ATOM     17  N   UNL     1       2.239   8.070  17.501  0.00  0.00    +0.000 N 
ATOM     18  C   UNL     1       2.659   6.999  18.275  0.00  0.00    +0.000 C 
ATOM     19  O   UNL     1       2.268   6.756  19.414  0.00  0.00    +0.000 OA
ATOM     20  H   UNL     1       2.516   8.168  16.532  0.00  0.00    +0.000 HD
BRANCH  18  21
ATOM     21  C   UNL     1       3.639   6.070  17.648  0.00  0.00    +0.000 A 
ATOM     22  C   UNL     1       3.308   4.705  17.601  0.00  0.00    +0.000 A 
ATOM     23  C   UNL     1       4.200   3.771  17.071  0.00  0.00    +0.000 A 
ATOM     24  C   UNL     1       5.440   4.189  16.590  0.00  0.00    +0.000 A 
ATOM     25  C   UNL     1       5.777   5.548  16.642  0.00  0.00    +0.000 A 
ATOM     26  C   UNL     1       4.883   6.497  17.169  0.00  0.00    +0.000 A 
BRANCH  25  27
ATOM     27  N   UNL     1       7.090   5.988  16.149  0.00  0.00    +0.000 N 
ATOM     28  O   UNL     1       7.679   6.876  16.785  0.00  0.00    +0.000 OA
ATOM     29  O   UNL     1       7.532   5.438  15.133  0.00  0.00    +0.000 OA
ENDBRANCH  25  27
ENDBRANCH  18  21
ENDBRANCH   2  17
TORSDOF 6
ENDMDL
