MODEL 1
REMARK VINA RESULT:      -8.0      0.000      0.000
REMARK  Name = 
REMARK  9 active torsions:
REMARK  status: ('A' for Active; 'I' for Inactive)
REMARK    1  A    between atoms: N_1  and  C_2
REMARK    2  A    between atoms: C_7  and  N_8
REMARK    3  A    between atoms: C_9  and  C_11
REMARK    4  A    between atoms: C_11  and  C_12
REMARK    5  A    between atoms: C_12  and  C_13
REMARK    6  A    between atoms: C_13  and  C_14
REMARK    7  A    between atoms: C_14  and  C_15
REMARK    8  A    between atoms: C_15  and  C_16
REMARK    9  A    between atoms: N_18  and  C_19
REMARK                            x       y       z     vdW  Elec       q    Type
REMARK                         _______ _______ _______ _____ _____    ______ ____
ROOT
ATOM      1  C   UNL     1       7.677   6.379  18.572  0.00  0.00    +0.000 C 
ENDROOT
BRANCH   1   2
ATOM      2  C   UNL     1       7.895   4.953  18.083  0.00  0.00    +0.000 C 
BRANCH   2   4
ATOM      3  N   UNL     1       5.654   4.204  18.666  0.00  0.00    +0.000 N 
ATOM      4  C   UNL     1       6.568   4.384  17.642  0.00  0.00    +0.000 C 
ATOM      5  O   UNL     1       6.377   4.199  16.441  0.00  0.00    +0.000 OA
ATOM      6  H   UNL     1       5.891   4.572  19.575  0.00  0.00    +0.000 HD
BRANCH   3  12
ATOM      7  C   UNL     1       4.019   2.418  19.088  0.00  0.00    +0.000 A 
ATOM      8  C   UNL     1       2.692   1.954  18.978  0.00  0.00    +0.000 A 
ATOM      9  C   UNL     1       1.730   2.667  18.259  0.00  0.00    +0.000 A 
ATOM     10  C   UNL     1       2.069   3.872  17.668  0.00  0.00    +0.000 A 
ATOM     11  C   UNL     1       3.365   4.360  17.795  0.00  0.00    +0.000 A 
ATOM     12  C   UNL     1       4.346   3.671  18.522  0.00  0.00    +0.000 A 
BRANCH   7  13
ATOM     13  N   UNL     1       4.871   1.723  19.975  0.00  0.00    +0.000 N 
ATOM     14  H   UNL     1       4.640   1.884  20.951  0.00  0.00    +0.000 HD
ATOM     15  H   UNL     1       5.012   0.745  19.781  0.00  0.00    +0.000 HD
ENDBRANCH   7  13
ENDBRANCH   3  12
ENDBRANCH   2   4
ENDBRANCH   1   2
BRANCH   1  16
ATOM     16  C   UNL     1       7.371   7.373  17.456  0.00  0.00    +0.000 C 
BRANCH  16  17
ATOM     17  C   UNL     1       7.830   8.799  17.747  0.00  0.00    +0.000 C 
BRANCH  17  18
ATOM     18  C   UNL     1       8.818   8.904  18.918  0.00  0.00    +0.000 C 
BRANCH  18  19
ATOM     19  C   UNL     1       9.279  10.332  19.072  0.00  0.00    +0.000 C 
ATOM     20  O   UNL     1       9.195  10.907  20.145  0.00  0.00    +0.000 OA
ATOM     21  N   UNL     1       9.771  10.896  17.912  0.00  0.00    +0.000 N 
ATOM     22  H   UNL     1       9.614  10.400  17.042  0.00  0.00    +0.000 HD
BRANCH  21  23
ATOM     23  C   UNL     1      10.342  12.187  17.841  0.00  0.00    +0.000 A 
ATOM     24  C   UNL     1      11.716  12.415  17.732  0.00  0.00    +0.000 A 
ATOM     25  N   UNL     1      12.292  13.642  17.680  0.00  0.00    +0.000 NA
ATOM     26  C   UNL     1      11.451  14.698  17.750  0.00  0.00    +0.000 A 
ATOM     27  C   UNL     1      10.072  14.577  17.843  0.00  0.00    +0.000 A 
ATOM     28 BR   UNL     1       8.991  16.116  17.947  0.00  0.00    +0.000 Br
ATOM     29  C   UNL     1       9.507  13.302  17.874  0.00  0.00    +0.000 A 
ENDBRANCH  21  23
ENDBRANCH  18  19
ENDBRANCH  17  18
ENDBRANCH  16  17
ENDBRANCH   1  16
TORSDOF 9
ENDMDL
MODEL 2
REMARK VINA RESULT:      -7.8      2.112      2.769
REMARK  Name = 
REMARK  9 active torsions:
REMARK  status: ('A' for Active; 'I' for Inactive)
REMARK    1  A    between atoms: N_1  and  C_2
REMARK    2  A    between atoms: C_7  and  N_8
REMARK    3  A    between atoms: C_9  and  C_11
REMARK    4  A    between atoms: C_11  and  C_12
REMARK    5  A    between atoms: C_12  and  C_13
REMARK    6  A    between atoms: C_13  and  C_14
REMARK    7  A    between atoms: C_14  and  C_15
REMARK    8  A    between atoms: C_15  and  C_16
REMARK    9  A    between atoms: N_18  and  C_19
REMARK                            x       y       z     vdW  Elec       q    Type
REMARK                         _______ _______ _______ _____ _____    ______ ____
ROOT
ATOM      1  C   UNL     1       6.175   4.215  16.299  0.00  0.00    +0.000 C 
ENDROOT
BRANCH   1   2
ATOM      2  C   UNL     1       4.962   5.122  16.145  0.00  0.00    +0.000 C 
BRANCH   2   4
ATOM      3  N   UNL     1       3.769   3.850  17.843  0.00  0.00    +0.000 N 
ATOM      4  C   UNL     1       4.180   5.108  17.437  0.00  0.00    +0.000 C 
ATOM      5  O   UNL     1       4.035   6.166  18.048  0.00  0.00    +0.000 OA
ATOM      6  H   UNL     1       4.119   3.055  17.330  0.00  0.00    +0.000 HD
BRANCH   3  12
ATOM      7  C   UNL     1       3.528   2.718  20.011  0.00  0.00    +0.000 A 
ATOM      8  C   UNL     1       2.768   2.513  21.181  0.00  0.00    +0.000 A 
ATOM      9  C   UNL     1       1.493   3.064  21.326  0.00  0.00    +0.000 A 
ATOM     10  C   UNL     1       0.970   3.856  20.318  0.00  0.00    +0.000 A 
ATOM     11  C   UNL     1       1.720   4.096  19.171  0.00  0.00    +0.000 A 
ATOM     12  C   UNL     1       3.008   3.566  19.007  0.00  0.00    +0.000 A 
BRANCH   7  13
ATOM     13  N   UNL     1       4.867   2.270  20.028  0.00  0.00    +0.000 N 
ATOM     14  H   UNL     1       5.434   2.690  19.297  0.00  0.00    +0.000 HD
ATOM     15  H   UNL     1       5.333   2.296  20.921  0.00  0.00    +0.000 HD
ENDBRANCH   7  13
ENDBRANCH   3  12
ENDBRANCH   2   4
ENDBRANCH   1   2
BRANCH   1  16
ATOM     16  C   UNL     1       7.321   4.847  17.083  0.00  0.00    +0.000 C 
BRANCH  16  17
ATOM     17  C   UNL     1       7.284   6.373  17.122  0.00  0.00    +0.000 C 
BRANCH  17  18
ATOM     18  C   UNL     1       7.915   6.974  18.386  0.00  0.00    +0.000 C 
BRANCH  18  19
ATOM     19  C   UNL     1       8.157   8.450  18.185  0.00  0.00    +0.000 C 
ATOM     20  O   UNL     1       7.581   9.065  17.302  0.00  0.00    +0.000 OA
ATOM     21  N   UNL     1       9.070   8.998  19.062  0.00  0.00    +0.000 N 
ATOM     22  H   UNL     1       9.628   8.363  19.621  0.00  0.00    +0.000 HD
BRANCH  21  23
ATOM     23  C   UNL     1       9.383  10.375  19.119  0.00  0.00    +0.000 A 
ATOM     24  C   UNL     1       9.877  11.097  18.029  0.00  0.00    +0.000 A 
ATOM     25  N   UNL     1      10.202  12.414  18.061  0.00  0.00    +0.000 NA
ATOM     26  C   UNL     1      10.034  13.040  19.247  0.00  0.00    +0.000 A 
ATOM     27  C   UNL     1       9.536  12.417  20.381  0.00  0.00    +0.000 A 
ATOM     28 BR   UNL     1       9.353  13.381  21.989  0.00  0.00    +0.000 Br
ATOM     29  C   UNL     1       9.191  11.067  20.313  0.00  0.00    +0.000 A 
ENDBRANCH  21  23
ENDBRANCH  18  19
ENDBRANCH  17  18
ENDBRANCH  16  17
ENDBRANCH   1  16
TORSDOF 9
ENDMDL
MODEL 3
REMARK VINA RESULT:      -7.4      6.248      8.679
REMARK  Name = 
REMARK  9 active torsions:
REMARK  status: ('A' for Active; 'I' for Inactive)
REMARK    1  A    between atoms: N_1  and  C_2
REMARK    2  A    between atoms: C_7  and  N_8
REMARK    3  A    between atoms: C_9  and  C_11
REMARK    4  A    between atoms: C_11  and  C_12
REMARK    5  A    between atoms: C_12  and  C_13
REMARK    6  A    between atoms: C_13  and  C_14
REMARK    7  A    between atoms: C_14  and  C_15
REMARK    8  A    between atoms: C_15  and  C_16
REMARK    9  A    between atoms: N_18  and  C_19
REMARK                            x       y       z     vdW  Elec       q    Type
REMARK                         _______ _______ _______ _____ _____    ______ ____
ROOT
ATOM      1  C   UNL     1       1.889   3.244  21.650  0.00  0.00    +0.000 C 
ENDROOT
BRANCH   1   2
ATOM      2  C   UNL     1       2.815   4.343  21.147  0.00  0.00    +0.000 C 
BRANCH   2   4
ATOM      3  N   UNL     1       2.698   6.522  20.071  0.00  0.00    +0.000 N 
ATOM      4  C   UNL     1       1.976   5.498  20.658  0.00  0.00    +0.000 C 
ATOM      5  O   UNL     1       0.751   5.413  20.746  0.00  0.00    +0.000 OA
ATOM      6  H   UNL     1       3.681   6.367  19.907  0.00  0.00    +0.000 HD
BRANCH   3  12
ATOM      7  C   UNL     1       1.435   8.606  20.385  0.00  0.00    +0.000 A 
ATOM      8  C   UNL     1       0.965   9.820  19.841  0.00  0.00    +0.000 A 
ATOM      9  C   UNL     1       1.126  10.120  18.487  0.00  0.00    +0.000 A 
ATOM     10  C   UNL     1       1.790   9.229  17.661  0.00  0.00    +0.000 A 
ATOM     11  C   UNL     1       2.289   8.043  18.189  0.00  0.00    +0.000 A 
ATOM     12  C   UNL     1       2.152   7.723  19.547  0.00  0.00    +0.000 A 
BRANCH   7  13
ATOM     13  N   UNL     1       1.382   8.469  21.790  0.00  0.00    +0.000 N 
ATOM     14  H   UNL     1       1.261   9.357  22.269  0.00  0.00    +0.000 HD
ATOM     15  H   UNL     1       0.754   7.766  22.144  0.00  0.00    +0.000 HD
ENDBRANCH   7  13
ENDBRANCH   3  12
ENDBRANCH   2   4
ENDBRANCH   1   2
BRANCH   1  16
ATOM     16  C   UNL     1       1.656   2.125  20.640  0.00  0.00    +0.000 C 
BRANCH  16  17
ATOM     17  C   UNL     1       0.876   2.555  19.401  0.00  0.00    +0.000 C 
BRANCH  17  18
ATOM     18  C   UNL     1       1.434   1.985  18.089  0.00  0.00    +0.000 C 
BRANCH  18  19
ATOM     19  C   UNL     1       2.925   2.209  18.028  0.00  0.00    +0.000 C 
ATOM     20  O   UNL     1       3.706   1.297  18.243  0.00  0.00    +0.000 OA
ATOM     21  N   UNL     1       3.290   3.506  17.726  0.00  0.00    +0.000 N 
ATOM     22  H   UNL     1       2.570   4.219  17.759  0.00  0.00    +0.000 HD
BRANCH  21  23
ATOM     23  C   UNL     1       4.624   3.925  17.526  0.00  0.00    +0.000 A 
ATOM     24  C   UNL     1       5.511   4.195  18.572  0.00  0.00    +0.000 A 
ATOM     25  N   UNL     1       6.790   4.615  18.409  0.00  0.00    +0.000 NA
ATOM     26  C   UNL     1       7.204   4.783  17.133  0.00  0.00    +0.000 A 
ATOM     27  C   UNL     1       6.407   4.527  16.027  0.00  0.00    +0.000 A 
ATOM     28 BR   UNL     1       7.078   4.806  14.289  0.00  0.00    +0.000 Br
ATOM     29  C   UNL     1       5.102   4.076  16.225  0.00  0.00    +0.000 A 
ENDBRANCH  21  23
ENDBRANCH  18  19
ENDBRANCH  17  18
ENDBRANCH  16  17
ENDBRANCH   1  16
TORSDOF 9
ENDMDL
MODEL 4
REMARK VINA RESULT:      -7.3      1.270      1.464
REMARK  Name = 
REMARK  9 active torsions:
REMARK  status: ('A' for Active; 'I' for Inactive)
REMARK    1  A    between atoms: N_1  and  C_2
REMARK    2  A    between atoms: C_7  and  N_8
REMARK    3  A    between atoms: C_9  and  C_11
REMARK    4  A    between atoms: C_11  and  C_12
REMARK    5  A    between atoms: C_12  and  C_13
REMARK    6  A    between atoms: C_13  and  C_14
REMARK    7  A    between atoms: C_14  and  C_15
REMARK    8  A    between atoms: C_15  and  C_16
REMARK    9  A    between atoms: N_18  and  C_19
REMARK                            x       y       z     vdW  Elec       q    Type
REMARK                         _______ _______ _______ _____ _____    ______ ____
ROOT
ATOM      1  C   UNL     1       6.614   6.813  17.688  0.00  0.00    +0.000 C 
ENDROOT
BRANCH   1   2
ATOM      2  C   UNL     1       5.425   6.788  16.737  0.00  0.00    +0.000 C 
BRANCH   2   4
ATOM      3  N   UNL     1       4.289   4.768  17.478  0.00  0.00    +0.000 N 
ATOM      4  C   UNL     1       4.253   6.151  17.444  0.00  0.00    +0.000 C 
ATOM      5  O   UNL     1       3.423   6.883  17.983  0.00  0.00    +0.000 OA
ATOM      6  H   UNL     1       5.127   4.313  17.152  0.00  0.00    +0.000 HD
BRANCH   3  12
ATOM      7  C   UNL     1       3.679   2.907  18.964  0.00  0.00    +0.000 A 
ATOM      8  C   UNL     1       2.665   2.140  19.575  0.00  0.00    +0.000 A 
ATOM      9  C   UNL     1       1.319   2.322  19.248  0.00  0.00    +0.000 A 
ATOM     10  C   UNL     1       0.962   3.297  18.331  0.00  0.00    +0.000 A 
ATOM     11  C   UNL     1       1.947   4.084  17.745  0.00  0.00    +0.000 A 
ATOM     12  C   UNL     1       3.303   3.931  18.065  0.00  0.00    +0.000 A 
BRANCH   7  13
ATOM     13  N   UNL     1       4.986   2.774  19.483  0.00  0.00    +0.000 N 
ATOM     14  H   UNL     1       5.654   3.393  19.034  0.00  0.00    +0.000 HD
ATOM     15  H   UNL     1       5.070   2.798  20.486  0.00  0.00    +0.000 HD
ENDBRANCH   7  13
ENDBRANCH   3  12
ENDBRANCH   2   4
ENDBRANCH   1   2
BRANCH   1  16
ATOM     16  C   UNL     1       7.797   7.627  17.173  0.00  0.00    +0.000 C 
BRANCH  16  17
ATOM     17  C   UNL     1       7.904   9.024  17.778  0.00  0.00    +0.000 C 
BRANCH  17  18
ATOM     18  C   UNL     1       8.882   9.115  18.958  0.00  0.00    +0.000 C 
BRANCH  18  19
ATOM     19  C   UNL     1       9.381  10.531  19.102  0.00  0.00    +0.000 C 
ATOM     20  O   UNL     1       9.402  11.082  20.190  0.00  0.00    +0.000 OA
ATOM     21  N   UNL     1       9.781  11.113  17.915  0.00  0.00    +0.000 N 
ATOM     22  H   UNL     1       9.540  10.639  17.052  0.00  0.00    +0.000 HD
BRANCH  21  23
ATOM     23  C   UNL     1      10.368  12.395  17.822  0.00  0.00    +0.000 A 
ATOM     24  C   UNL     1      11.742  12.604  17.682  0.00  0.00    +0.000 A 
ATOM     25  N   UNL     1      12.333  13.822  17.608  0.00  0.00    +0.000 NA
ATOM     26  C   UNL     1      11.508  14.890  17.688  0.00  0.00    +0.000 A 
ATOM     27  C   UNL     1      10.131  14.789  17.811  0.00  0.00    +0.000 A 
ATOM     28 BR   UNL     1       9.072  16.343  17.927  0.00  0.00    +0.000 Br
ATOM     29  C   UNL     1       9.549  13.522  17.864  0.00  0.00    +0.000 A 
ENDBRANCH  21  23
ENDBRANCH  18  19
ENDBRANCH  17  18
ENDBRANCH  16  17
ENDBRANCH   1  16
TORSDOF 9
ENDMDL
MODEL 5
REMARK VINA RESULT:      -7.3      1.621      1.729
REMARK  Name = 
REMARK  9 active torsions:
REMARK  status: ('A' for Active; 'I' for Inactive)
REMARK    1  A    between atoms: N_1  and  C_2
REMARK    2  A    between atoms: C_7  and  N_8
REMARK    3  A    between atoms: C_9  and  C_11
REMARK    4  A    between atoms: C_11  and  C_12
REMARK    5  A    between atoms: C_12  and  C_13
REMARK    6  A    between atoms: C_13  and  C_14
REMARK    7  A    between atoms: C_14  and  C_15
REMARK    8  A    between atoms: C_15  and  C_16
REMARK    9  A    between atoms: N_18  and  C_19
REMARK                            x       y       z     vdW  Elec       q    Type
REMARK                         _______ _______ _______ _____ _____    ______ ____
ROOT
ATOM      1  C   UNL     1       7.109   5.911  17.792  0.00  0.00    +0.000 C 
ENDROOT
BRANCH   1   2
ATOM      2  C   UNL     1       5.805   6.570  17.364  0.00  0.00    +0.000 C 
BRANCH   2   4
ATOM      3  N   UNL     1       4.393   5.510  19.039  0.00  0.00    +0.000 N 
ATOM      4  C   UNL     1       4.662   5.638  17.688  0.00  0.00    +0.000 C 
ATOM      5  O   UNL     1       4.030   5.137  16.758  0.00  0.00    +0.000 OA
ATOM      6  H   UNL     1       4.880   6.124  19.673  0.00  0.00    +0.000 HD
BRANCH   3  12
ATOM      7  C   UNL     1       3.627   3.311  19.826  0.00  0.00    +0.000 A 
ATOM      8  C   UNL     1       2.625   2.541  20.451  0.00  0.00    +0.000 A 
ATOM      9  C   UNL     1       1.384   3.092  20.779  0.00  0.00    +0.000 A 
ATOM     10  C   UNL     1       1.137   4.430  20.520  0.00  0.00    +0.000 A 
ATOM     11  C   UNL     1       2.128   5.211  19.934  0.00  0.00    +0.000 A 
ATOM     12  C   UNL     1       3.386   4.686  19.606  0.00  0.00    +0.000 A 
BRANCH   7  13
ATOM     13  N   UNL     1       4.902   2.718  19.692  0.00  0.00    +0.000 N 
ATOM     14  H   UNL     1       5.571   3.321  19.222  0.00  0.00    +0.000 HD
ATOM     15  H   UNL     1       5.292   2.308  20.526  0.00  0.00    +0.000 HD
ENDBRANCH   7  13
ENDBRANCH   3  12
ENDBRANCH   2   4
ENDBRANCH   1   2
BRANCH   1  16
ATOM     16  C   UNL     1       8.045   6.838  18.562  0.00  0.00    +0.000 C 
BRANCH  16  17
ATOM     17  C   UNL     1       8.142   8.247  17.983  0.00  0.00    +0.000 C 
BRANCH  17  18
ATOM     18  C   UNL     1       8.764   9.269  18.946  0.00  0.00    +0.000 C 
BRANCH  18  19
ATOM     19  C   UNL     1       8.878  10.610  18.264  0.00  0.00    +0.000 C 
ATOM     20  O   UNL     1       8.011  11.002  17.501  0.00  0.00    +0.000 OA
ATOM     21  N   UNL     1      10.028  11.308  18.577  0.00  0.00    +0.000 N 
ATOM     22  H   UNL     1      10.765  10.809  19.063  0.00  0.00    +0.000 HD
BRANCH  21  23
ATOM     23  C   UNL     1      10.302  12.619  18.130  0.00  0.00    +0.000 A 
ATOM     24  C   UNL     1      11.158  12.905  17.062  0.00  0.00    +0.000 A 
ATOM     25  N   UNL     1      11.452  14.154  16.624  0.00  0.00    +0.000 NA
ATOM     26  C   UNL     1      10.869  15.174  17.293  0.00  0.00    +0.000 A 
ATOM     27  C   UNL     1       9.993  14.995  18.354  0.00  0.00    +0.000 A 
ATOM     28 BR   UNL     1       9.244  16.486  19.227  0.00  0.00    +0.000 Br
ATOM     29  C   UNL     1       9.693  13.697  18.769  0.00  0.00    +0.000 A 
ENDBRANCH  21  23
ENDBRANCH  18  19
ENDBRANCH  17  18
ENDBRANCH  16  17
ENDBRANCH   1  16
TORSDOF 9
ENDMDL
MODEL 6
REMARK VINA RESULT:      -7.2      6.107      8.041
REMARK  Name = 
REMARK  9 active torsions:
REMARK  status: ('A' for Active; 'I' for Inactive)
REMARK    1  A    between atoms: N_1  and  C_2
REMARK    2  A    between atoms: C_7  and  N_8
REMARK    3  A    between atoms: C_9  and  C_11
REMARK    4  A    between atoms: C_11  and  C_12
REMARK    5  A    between atoms: C_12  and  C_13
REMARK    6  A    between atoms: C_13  and  C_14
REMARK    7  A    between atoms: C_14  and  C_15
REMARK    8  A    between atoms: C_15  and  C_16
REMARK    9  A    between atoms: N_18  and  C_19
REMARK                            x       y       z     vdW  Elec       q    Type
REMARK                         _______ _______ _______ _____ _____    ______ ____
ROOT
ATOM      1  C   UNL     1       1.682   2.910  20.581  0.00  0.00    +0.000 C 
ENDROOT
BRANCH   1   2
ATOM      2  C   UNL     1       1.672   2.769  19.065  0.00  0.00    +0.000 C 
BRANCH   2   4
ATOM      3  N   UNL     1       3.439   3.903  17.835  0.00  0.00    +0.000 N 
ATOM      4  C   UNL     1       3.098   2.781  18.568  0.00  0.00    +0.000 C 
ATOM      5  O   UNL     1       3.844   1.861  18.903  0.00  0.00    +0.000 OA
ATOM      6  H   UNL     1       2.772   4.659  17.797  0.00  0.00    +0.000 HD
BRANCH   3  12
ATOM      7  C   UNL     1       5.811   4.510  18.047  0.00  0.00    +0.000 A 
ATOM      8  C   UNL     1       7.067   4.682  17.429  0.00  0.00    +0.000 A 
ATOM      9  C   UNL     1       7.216   4.582  16.044  0.00  0.00    +0.000 A 
ATOM     10  C   UNL     1       6.119   4.274  15.257  0.00  0.00    +0.000 A 
ATOM     11  C   UNL     1       4.880   4.068  15.854  0.00  0.00    +0.000 A 
ATOM     12  C   UNL     1       4.706   4.150  17.243  0.00  0.00    +0.000 A 
BRANCH   7  13
ATOM     13  N   UNL     1       5.792   4.457  19.458  0.00  0.00    +0.000 N 
ATOM     14  H   UNL     1       5.859   3.510  19.819  0.00  0.00    +0.000 HD
ATOM     15  H   UNL     1       6.422   5.083  19.935  0.00  0.00    +0.000 HD
ENDBRANCH   7  13
ENDBRANCH   3  12
ENDBRANCH   2   4
ENDBRANCH   1   2
BRANCH   1  16
ATOM     16  C   UNL     1       2.204   4.256  21.072  0.00  0.00    +0.000 C 
BRANCH  16  17
ATOM     17  C   UNL     1       1.489   5.461  20.465  0.00  0.00    +0.000 C 
BRANCH  17  18
ATOM     18  C   UNL     1       2.436   6.593  20.043  0.00  0.00    +0.000 C 
BRANCH  18  19
ATOM     19  C   UNL     1       1.741   7.924  20.191  0.00  0.00    +0.000 C 
ATOM     20  O   UNL     1       1.487   8.611  19.215  0.00  0.00    +0.000 OA
ATOM     21  N   UNL     1       1.450   8.268  21.496  0.00  0.00    +0.000 N 
ATOM     22  H   UNL     1       1.876   7.721  22.235  0.00  0.00    +0.000 HD
BRANCH  21  23
ATOM     23  C   UNL     1       0.722   9.421  21.865  0.00  0.00    +0.000 A 
ATOM     24  C   UNL     1      -0.155   9.462  22.952  0.00  0.00    +0.000 A 
ATOM     25  N   UNL     1      -0.879  10.549  23.319  0.00  0.00    +0.000 NA
ATOM     26  C   UNL     1      -0.726  11.652  22.552  0.00  0.00    +0.000 A 
ATOM     27  C   UNL     1       0.129  11.718  21.463  0.00  0.00    +0.000 A 
ATOM     28 BR   UNL     1       0.258  13.303  20.452  0.00  0.00    +0.000 Br
ATOM     29  C   UNL     1       0.877  10.590  21.122  0.00  0.00    +0.000 A 
ENDBRANCH  21  23
ENDBRANCH  18  19
ENDBRANCH  17  18
ENDBRANCH  16  17
ENDBRANCH   1  16
TORSDOF 9
ENDMDL
MODEL 7
REMARK VINA RESULT:      -7.2      6.221      7.329
REMARK  Name = 
REMARK  9 active torsions:
REMARK  status: ('A' for Active; 'I' for Inactive)
REMARK    1  A    between atoms: N_1  and  C_2
REMARK    2  A    between atoms: C_7  and  N_8
REMARK    3  A    between atoms: C_9  and  C_11
REMARK    4  A    between atoms: C_11  and  C_12
REMARK    5  A    between atoms: C_12  and  C_13
REMARK    6  A    between atoms: C_13  and  C_14
REMARK    7  A    between atoms: C_14  and  C_15
REMARK    8  A    between atoms: C_15  and  C_16
REMARK    9  A    between atoms: N_18  and  C_19
REMARK                            x       y       z     vdW  Elec       q    Type
REMARK                         _______ _______ _______ _____ _____    ______ ____
ROOT
ATOM      1  C   UNL     1       5.805   5.985  16.597  0.00  0.00    +0.000 C 
ENDROOT
BRANCH   1   2
ATOM      2  C   UNL     1       6.180   4.621  17.162  0.00  0.00    +0.000 C 
BRANCH   2   4
ATOM      3  N   UNL     1       4.249   3.748  18.359  0.00  0.00    +0.000 N 
ATOM      4  C   UNL     1       5.453   4.422  18.470  0.00  0.00    +0.000 C 
ATOM      5  O   UNL     1       5.999   4.794  19.509  0.00  0.00    +0.000 OA
ATOM      6  H   UNL     1       4.020   3.345  17.464  0.00  0.00    +0.000 HD
BRANCH   3  12
ATOM      7  C   UNL     1       3.711   2.463  20.383  0.00  0.00    +0.000 A 
ATOM      8  C   UNL     1       2.839   2.241  21.469  0.00  0.00    +0.000 A 
ATOM      9  C   UNL     1       1.620   2.916  21.572  0.00  0.00    +0.000 A 
ATOM     10  C   UNL     1       1.269   3.848  20.610  0.00  0.00    +0.000 A 
ATOM     11  C   UNL     1       2.134   4.102  19.551  0.00  0.00    +0.000 A 
ATOM     12  C   UNL     1       3.368   3.449  19.431  0.00  0.00    +0.000 A 
BRANCH   7  13
ATOM     13  N   UNL     1       4.990   1.868  20.456  0.00  0.00    +0.000 N 
ATOM     14  H   UNL     1       5.119   1.307  21.293  0.00  0.00    +0.000 HD
ATOM     15  H   UNL     1       5.302   1.383  19.630  0.00  0.00    +0.000 HD
ENDBRANCH   7  13
ENDBRANCH   3  12
ENDBRANCH   2   4
ENDBRANCH   1   2
BRANCH   1  16
ATOM     16  C   UNL     1       4.318   6.308  16.703  0.00  0.00    +0.000 C 
BRANCH  16  17
ATOM     17  C   UNL     1       4.010   7.571  17.503  0.00  0.00    +0.000 C 
BRANCH  17  18
ATOM     18  C   UNL     1       2.680   7.509  18.269  0.00  0.00    +0.000 C 
BRANCH  18  19
ATOM     19  C   UNL     1       1.992   8.850  18.207  0.00  0.00    +0.000 C 
ATOM     20  O   UNL     1       2.241   9.644  17.314  0.00  0.00    +0.000 OA
ATOM     21  N   UNL     1       1.097   9.075  19.234  0.00  0.00    +0.000 N 
ATOM     22  H   UNL     1       1.111   8.436  20.021  0.00  0.00    +0.000 HD
BRANCH  21  23
ATOM     23  C   UNL     1       0.272  10.218  19.328  0.00  0.00    +0.000 A 
ATOM     24  C   UNL     1       0.612  11.352  20.071  0.00  0.00    +0.000 A 
ATOM     25  N   UNL     1      -0.167  12.456  20.193  0.00  0.00    +0.000 NA
ATOM     26  C   UNL     1      -1.354  12.421  19.546  0.00  0.00    +0.000 A 
ATOM     27  C   UNL     1      -1.776  11.351  18.772  0.00  0.00    +0.000 A 
ATOM     28 BR   UNL     1      -3.456  11.400  17.922  0.00  0.00    +0.000 Br
ATOM     29  C   UNL     1      -0.944  10.238  18.648  0.00  0.00    +0.000 A 
ENDBRANCH  21  23
ENDBRANCH  18  19
ENDBRANCH  17  18
ENDBRANCH  16  17
ENDBRANCH   1  16
TORSDOF 9
ENDMDL
MODEL 8
REMARK VINA RESULT:      -7.2      2.466      2.719
REMARK  Name = 
REMARK  9 active torsions:
REMARK  status: ('A' for Active; 'I' for Inactive)
REMARK    1  A    between atoms: N_1  and  C_2
REMARK    2  A    between atoms: C_7  and  N_8
REMARK    3  A    between atoms: C_9  and  C_11
REMARK    4  A    between atoms: C_11  and  C_12
REMARK    5  A    between atoms: C_12  and  C_13
REMARK    6  A    between atoms: C_13  and  C_14
REMARK    7  A    between atoms: C_14  and  C_15
REMARK    8  A    between atoms: C_15  and  C_16
REMARK    9  A    between atoms: N_18  and  C_19
REMARK                            x       y       z     vdW  Elec       q    Type
REMARK                         _______ _______ _______ _____ _____    ______ ____
ROOT
ATOM      1  C   UNL     1       6.025   7.206  17.390  0.00  0.00    +0.000 C 
ENDROOT
BRANCH   1   2
ATOM      2  C   UNL     1       5.629   5.943  16.637  0.00  0.00    +0.000 C 
BRANCH   2   4
ATOM      3  N   UNL     1       3.517   5.243  17.622  0.00  0.00    +0.000 N 
ATOM      4  C   UNL     1       4.884   5.030  17.581  0.00  0.00    +0.000 C 
ATOM      5  O   UNL     1       5.513   4.149  18.165  0.00  0.00    +0.000 OA
ATOM      6  H   UNL     1       3.122   5.882  16.949  0.00  0.00    +0.000 HD
BRANCH   3  12
ATOM      7  C   UNL     1       2.344   4.953  19.762  0.00  0.00    +0.000 A 
ATOM      8  C   UNL     1       1.373   4.262  20.516  0.00  0.00    +0.000 A 
ATOM      9  C   UNL     1       0.724   3.135  20.007  0.00  0.00    +0.000 A 
ATOM     10  C   UNL     1       1.009   2.702  18.723  0.00  0.00    +0.000 A 
ATOM     11  C   UNL     1       1.939   3.393  17.954  0.00  0.00    +0.000 A 
ATOM     12  C   UNL     1       2.595   4.534  18.436  0.00  0.00    +0.000 A 
BRANCH   7  13
ATOM     13  N   UNL     1       2.816   6.175  20.290  0.00  0.00    +0.000 N 
ATOM     14  H   UNL     1       2.377   6.420  21.173  0.00  0.00    +0.000 HD
ATOM     15  H   UNL     1       3.817   6.286  20.329  0.00  0.00    +0.000 HD
ENDBRANCH   7  13
ENDBRANCH   3  12
ENDBRANCH   2   4
ENDBRANCH   1   2
BRANCH   1  16
ATOM     16  C   UNL     1       7.532   7.434  17.460  0.00  0.00    +0.000 C 
BRANCH  16  17
ATOM     17  C   UNL     1       7.935   8.898  17.617  0.00  0.00    +0.000 C 
BRANCH  17  18
ATOM     18  C   UNL     1       8.857   9.160  18.816  0.00  0.00    +0.000 C 
BRANCH  18  19
ATOM     19  C   UNL     1       9.167  10.634  18.910  0.00  0.00    +0.000 C 
ATOM     20  O   UNL     1       8.889  11.393  17.997  0.00  0.00    +0.000 OA
ATOM     21  N   UNL     1       9.783  11.008  20.088  0.00  0.00    +0.000 N 
ATOM     22  H   UNL     1      10.140  10.273  20.688  0.00  0.00    +0.000 HD
BRANCH  21  23
ATOM     23  C   UNL     1      10.081  12.345  20.433  0.00  0.00    +0.000 A 
ATOM     24  C   UNL     1      11.048  13.112  19.777  0.00  0.00    +0.000 A 
ATOM     25  N   UNL     1      11.367  14.390  20.098  0.00  0.00    +0.000 NA
ATOM     26  C   UNL     1      10.691  14.929  21.137  0.00  0.00    +0.000 A 
ATOM     27  C   UNL     1       9.703  14.258  21.842  0.00  0.00    +0.000 A 
ATOM     28 BR   UNL     1       8.830  15.099  23.284  0.00  0.00    +0.000 Br
ATOM     29  C   UNL     1       9.382  12.951  21.475  0.00  0.00    +0.000 A 
ENDBRANCH  21  23
ENDBRANCH  18  19
ENDBRANCH  17  18
ENDBRANCH  16  17
ENDBRANCH   1  16
TORSDOF 9
ENDMDL
MODEL 9
REMARK VINA RESULT:      -7.1      4.762      5.966
REMARK  Name = 
REMARK  9 active torsions:
REMARK  status: ('A' for Active; 'I' for Inactive)
REMARK    1  A    between atoms: N_1  and  C_2
REMARK    2  A    between atoms: C_7  and  N_8
REMARK    3  A    between atoms: C_9  and  C_11
REMARK    4  A    between atoms: C_11  and  C_12
REMARK    5  A    between atoms: C_12  and  C_13
REMARK    6  A    between atoms: C_13  and  C_14
REMARK    7  A    between atoms: C_14  and  C_15
REMARK    8  A    between atoms: C_15  and  C_16
REMARK    9  A    between atoms: N_18  and  C_19
REMARK                            x       y       z     vdW  Elec       q    Type
REMARK                         _______ _______ _______ _____ _____    ______ ____
ROOT
ATOM      1  C   UNL     1       9.041   9.563  18.720  0.00  0.00    +0.000 C 
ENDROOT
BRANCH   1   2
ATOM      2  C   UNL     1       8.075   9.252  17.585  0.00  0.00    +0.000 C 
BRANCH   2   4
ATOM      3  N   UNL     1       6.576   7.476  16.865  0.00  0.00    +0.000 N 
ATOM      4  C   UNL     1       7.594   7.829  17.734  0.00  0.00    +0.000 C 
ATOM      5  O   UNL     1       8.171   7.094  18.534  0.00  0.00    +0.000 OA
ATOM      6  H   UNL     1       6.329   8.133  16.141  0.00  0.00    +0.000 HD
BRANCH   3  12
ATOM      7  C   UNL     1       6.352   5.240  15.870  0.00  0.00    +0.000 A 
ATOM      8  C   UNL     1       5.737   3.971  15.893  0.00  0.00    +0.000 A 
ATOM      9  C   UNL     1       4.686   3.688  16.767  0.00  0.00    +0.000 A 
ATOM     10  C   UNL     1       4.255   4.657  17.658  0.00  0.00    +0.000 A 
ATOM     11  C   UNL     1       4.873   5.903  17.671  0.00  0.00    +0.000 A 
ATOM     12  C   UNL     1       5.938   6.209  16.812  0.00  0.00    +0.000 A 
BRANCH   7  13
ATOM     13  N   UNL     1       7.514   5.376  15.078  0.00  0.00    +0.000 N 
ATOM     14  H   UNL     1       7.560   4.697  14.324  0.00  0.00    +0.000 HD
ATOM     15  H   UNL     1       7.725   6.307  14.756  0.00  0.00    +0.000 HD
ENDBRANCH   7  13
ENDBRANCH   3  12
ENDBRANCH   2   4
ENDBRANCH   1   2
BRANCH   1  16
ATOM     16  C   UNL     1       9.692  10.938  18.616  0.00  0.00    +0.000 C 
BRANCH  16  17
ATOM     17  C   UNL     1       9.341  11.884  19.762  0.00  0.00    +0.000 C 
BRANCH  17  18
ATOM     18  C   UNL     1       9.490  11.252  21.153  0.00  0.00    +0.000 C 
BRANCH  18  19
ATOM     19  C   UNL     1       8.643  12.004  22.150  0.00  0.00    +0.000 C 
ATOM     20  O   UNL     1       8.198  13.109  21.888  0.00  0.00    +0.000 OA
ATOM     21  N   UNL     1       8.445  11.336  23.342  0.00  0.00    +0.000 N 
ATOM     22  H   UNL     1       9.016  10.518  23.525  0.00  0.00    +0.000 HD
BRANCH  21  23
ATOM     23  C   UNL     1       7.612  11.805  24.382  0.00  0.00    +0.000 A 
ATOM     24  C   UNL     1       6.229  11.607  24.408  0.00  0.00    +0.000 A 
ATOM     25  N   UNL     1       5.404  12.061  25.384  0.00  0.00    +0.000 NA
ATOM     26  C   UNL     1       5.990  12.759  26.383  0.00  0.00    +0.000 A 
ATOM     27  C   UNL     1       7.354  12.996  26.456  0.00  0.00    +0.000 A 
ATOM     28 BR   UNL     1       8.068  13.992  27.887  0.00  0.00    +0.000 Br
ATOM     29  C   UNL     1       8.181  12.498  25.449  0.00  0.00    +0.000 A 
ENDBRANCH  21  23
ENDBRANCH  18  19
ENDBRANCH  17  18
ENDBRANCH  16  17
ENDBRANCH   1  16
TORSDOF 9
ENDMDL
