MODEL 1
REMARK VINA RESULT:      -7.8      0.000      0.000
REMARK  Name = 
REMARK  5 active torsions:
REMARK  status: ('A' for Active; 'I' for Inactive)
REMARK    1  A    between atoms: N_4  and  O_5
REMARK    2  A    between atoms: N_4  and  C_6
REMARK    3  A    between atoms: C_13  and  O_14
REMARK    4  A    between atoms: O_14  and  C_15
REMARK    5  A    between atoms: C_15  and  C_16
REMARK                            x       y       z     vdW  Elec       q    Type
REMARK                         _______ _______ _______ _____ _____    ______ ____
ROOT
ATOM      1  C   UNL     1       3.940   4.227  19.835  0.00  0.00    +0.000 C 
ATOM      2  C   UNL     1       2.933   4.433  20.981  0.00  0.00    +0.000 C 
ATOM      3  C   UNL     1       1.607   4.997  20.486  0.00  0.00    +0.000 C 
ATOM      4  C   UNL     1       1.804   6.334  19.775  0.00  0.00    +0.000 C 
ATOM      5  C   UNL     1       2.970   6.358  18.822  0.00  0.00    +0.000 A 
ATOM      6  C   UNL     1       3.033   7.373  17.862  0.00  0.00    +0.000 A 
ATOM      7  C   UNL     1       4.121   7.467  16.995  0.00  0.00    +0.000 A 
ATOM      8  C   UNL     1       5.189   6.579  17.109  0.00  0.00    +0.000 A 
ATOM      9  C   UNL     1       5.128   5.554  18.048  0.00  0.00    +0.000 A 
ATOM     10  C   UNL     1       4.021   5.429  18.907  0.00  0.00    +0.000 A 
ENDROOT
BRANCH   1  14
ATOM     11  N   UNL     1       3.855   0.797  18.465  0.00  0.00    +0.000 N 
ATOM     12  C   UNL     1       4.237   1.776  19.332  0.00  0.00    +0.000 C 
ATOM     13  O   UNL     1       5.045   1.549  20.227  0.00  0.00    +0.000 OA
ATOM     14  N   UNL     1       3.696   3.002  19.051  0.00  0.00    +0.000 N 
ATOM     15  H   UNL     1       4.135  -0.150  18.672  0.00  0.00    +0.000 HD
ATOM     16  H   UNL     1       3.019   0.964  17.923  0.00  0.00    +0.000 HD
BRANCH  14  17
ATOM     17  O   UNL     1       2.570   3.025  18.191  0.00  0.00    +0.000 OA
ATOM     18  H   UNL     1       2.892   2.453  17.466  0.00  0.00    +0.000 HD
ENDBRANCH  14  17
ENDBRANCH   1  14
BRANCH   8  19
ATOM     19  O   UNL     1       6.324   6.610  16.345  0.00  0.00    +0.000 OA
BRANCH  19  20
ATOM     20  C   UNL     1       7.002   5.360  16.214  0.00  0.00    +0.000 C 
BRANCH  20  21
ATOM     21  C   UNL     1       6.865   4.886  14.795  0.00  0.00    +0.000 A 
ATOM     22  C   UNL     1       5.879   3.958  14.439  0.00  0.00    +0.000 A 
ATOM     23  C   UNL     1       5.766   3.529  13.117  0.00  0.00    +0.000 A 
ATOM     24  C   UNL     1       6.633   4.021  12.143  0.00  0.00    +0.000 A 
ATOM     25  C   UNL     1       7.625   4.933  12.491  0.00  0.00    +0.000 A 
ATOM     26  C   UNL     1       7.745   5.361  13.812  0.00  0.00    +0.000 A 
ENDBRANCH  20  21
ENDBRANCH  19  20
ENDBRANCH   8  19
TORSDOF 5
ENDMDL
MODEL 2
REMARK VINA RESULT:      -7.8      0.087      1.011
REMARK  Name = 
REMARK  5 active torsions:
REMARK  status: ('A' for Active; 'I' for Inactive)
REMARK    1  A    between atoms: N_4  and  O_5
REMARK    2  A    between atoms: N_4  and  C_6
REMARK    3  A    between atoms: C_13  and  O_14
REMARK    4  A    between atoms: O_14  and  C_15
REMARK    5  A    between atoms: C_15  and  C_16
REMARK                            x       y       z     vdW  Elec       q    Type
REMARK                         _______ _______ _______ _____ _____    ______ ____
ROOT
ATOM      1  C   UNL     1       3.946   4.268  19.777  0.00  0.00    +0.000 C 
ATOM      2  C   UNL     1       2.915   4.488  20.899  0.00  0.00    +0.000 C 
ATOM      3  C   UNL     1       1.602   5.052  20.370  0.00  0.00    +0.000 C 
ATOM      4  C   UNL     1       1.820   6.381  19.651  0.00  0.00    +0.000 C 
ATOM      5  C   UNL     1       3.006   6.393  18.724  0.00  0.00    +0.000 A 
ATOM      6  C   UNL     1       3.094   7.399  17.756  0.00  0.00    +0.000 A 
ATOM      7  C   UNL     1       4.201   7.481  16.912  0.00  0.00    +0.000 A 
ATOM      8  C   UNL     1       5.262   6.590  17.057  0.00  0.00    +0.000 A 
ATOM      9  C   UNL     1       5.178   5.574  18.005  0.00  0.00    +0.000 A 
ATOM     10  C   UNL     1       4.051   5.461  18.841  0.00  0.00    +0.000 A 
ENDROOT
BRANCH   1  14
ATOM     11  N   UNL     1       3.854   0.819  18.453  0.00  0.00    +0.000 N 
ATOM     12  C   UNL     1       4.213   1.804  19.325  0.00  0.00    +0.000 C 
ATOM     13  O   UNL     1       4.970   1.573  20.263  0.00  0.00    +0.000 OA
ATOM     14  N   UNL     1       3.715   3.036  18.999  0.00  0.00    +0.000 N 
ATOM     15  H   UNL     1       4.101  -0.130  18.687  0.00  0.00    +0.000 HD
ATOM     16  H   UNL     1       3.051   0.997  17.867  0.00  0.00    +0.000 HD
BRANCH  14  17
ATOM     17  O   UNL     1       2.635   3.070  18.082  0.00  0.00    +0.000 OA
ATOM     18  H   UNL     1       2.101   3.792  18.468  0.00  0.00    +0.000 HD
ENDBRANCH  14  17
ENDBRANCH   1  14
BRANCH   8  19
ATOM     19  O   UNL     1       6.414   6.611  16.319  0.00  0.00    +0.000 OA
BRANCH  19  20
ATOM     20  C   UNL     1       7.072   5.351  16.185  0.00  0.00    +0.000 C 
BRANCH  20  21
ATOM     21  C   UNL     1       6.923   4.879  14.765  0.00  0.00    +0.000 A 
ATOM     22  C   UNL     1       7.756   5.371  13.754  0.00  0.00    +0.000 A 
ATOM     23  C   UNL     1       7.604   4.921  12.442  0.00  0.00    +0.000 A 
ATOM     24  C   UNL     1       6.623   3.982  12.131  0.00  0.00    +0.000 A 
ATOM     25  C   UNL     1       5.781   3.499  13.129  0.00  0.00    +0.000 A 
ATOM     26  C   UNL     1       5.926   3.948  14.440  0.00  0.00    +0.000 A 
ENDBRANCH  20  21
ENDBRANCH  19  20
ENDBRANCH   8  19
TORSDOF 5
ENDMDL
MODEL 3
REMARK VINA RESULT:      -7.6      1.857      2.469
REMARK  Name = 
REMARK  5 active torsions:
REMARK  status: ('A' for Active; 'I' for Inactive)
REMARK    1  A    between atoms: N_4  and  O_5
REMARK    2  A    between atoms: N_4  and  C_6
REMARK    3  A    between atoms: C_13  and  O_14
REMARK    4  A    between atoms: O_14  and  C_15
REMARK    5  A    between atoms: C_15  and  C_16
REMARK                            x       y       z     vdW  Elec       q    Type
REMARK                         _______ _______ _______ _____ _____    ______ ____
ROOT
ATOM      1  C   UNL     1       3.379   4.246  19.066  0.00  0.00    +0.000 C 
ATOM      2  C   UNL     1       2.922   5.255  20.135  0.00  0.00    +0.000 C 
ATOM      3  C   UNL     1       2.261   6.483  19.520  0.00  0.00    +0.000 C 
ATOM      4  C   UNL     1       3.207   7.198  18.558  0.00  0.00    +0.000 C 
ATOM      5  C   UNL     1       3.959   6.276  17.635  0.00  0.00    +0.000 A 
ATOM      6  C   UNL     1       4.561   6.813  16.492  0.00  0.00    +0.000 A 
ATOM      7  C   UNL     1       5.313   6.007  15.638  0.00  0.00    +0.000 A 
ATOM      8  C   UNL     1       5.519   4.663  15.941  0.00  0.00    +0.000 A 
ATOM      9  C   UNL     1       4.910   4.114  17.066  0.00  0.00    +0.000 A 
ATOM     10  C   UNL     1       4.122   4.910  17.918  0.00  0.00    +0.000 A 
ENDROOT
BRANCH   1  14
ATOM     11  N   UNL     1       0.637   1.822  18.556  0.00  0.00    +0.000 N 
ATOM     12  C   UNL     1       1.614   2.458  19.262  0.00  0.00    +0.000 C 
ATOM     13  O   UNL     1       1.880   2.128  20.414  0.00  0.00    +0.000 OA
ATOM     14  N   UNL     1       2.283   3.410  18.540  0.00  0.00    +0.000 N 
ATOM     15  H   UNL     1       0.037   1.182  19.054  0.00  0.00    +0.000 HD
ATOM     16  H   UNL     1       0.293   2.287  17.727  0.00  0.00    +0.000 HD
BRANCH  14  17
ATOM     17  O   UNL     1       1.664   3.868  17.351  0.00  0.00    +0.000 OA
ATOM     18  H   UNL     1       1.378   3.017  16.963  0.00  0.00    +0.000 HD
ENDBRANCH  14  17
ENDBRANCH   1  14
BRANCH   8  19
ATOM     19  O   UNL     1       6.277   3.797  15.201  0.00  0.00    +0.000 OA
BRANCH  19  20
ATOM     20  C   UNL     1       6.733   4.306  13.948  0.00  0.00    +0.000 C 
BRANCH  20  21
ATOM     21  C   UNL     1       6.032   3.564  12.844  0.00  0.00    +0.000 A 
ATOM     22  C   UNL     1       6.657   2.500  12.184  0.00  0.00    +0.000 A 
ATOM     23  C   UNL     1       5.991   1.822  11.163  0.00  0.00    +0.000 A 
ATOM     24  C   UNL     1       4.701   2.200  10.794  0.00  0.00    +0.000 A 
ATOM     25  C   UNL     1       4.079   3.267  11.436  0.00  0.00    +0.000 A 
ATOM     26  C   UNL     1       4.741   3.950  12.454  0.00  0.00    +0.000 A 
ENDBRANCH  20  21
ENDBRANCH  19  20
ENDBRANCH   8  19
TORSDOF 5
ENDMDL
MODEL 4
REMARK VINA RESULT:      -7.6      1.852      2.434
REMARK  Name = 
REMARK  5 active torsions:
REMARK  status: ('A' for Active; 'I' for Inactive)
REMARK    1  A    between atoms: N_4  and  O_5
REMARK    2  A    between atoms: N_4  and  C_6
REMARK    3  A    between atoms: C_13  and  O_14
REMARK    4  A    between atoms: O_14  and  C_15
REMARK    5  A    between atoms: C_15  and  C_16
REMARK                            x       y       z     vdW  Elec       q    Type
REMARK                         _______ _______ _______ _____ _____    ______ ____
ROOT
ATOM      1  C   UNL     1       3.398   4.410  19.004  0.00  0.00    +0.000 C 
ATOM      2  C   UNL     1       2.935   5.456  20.034  0.00  0.00    +0.000 C 
ATOM      3  C   UNL     1       2.275   6.660  19.372  0.00  0.00    +0.000 C 
ATOM      4  C   UNL     1       3.224   7.342  18.390  0.00  0.00    +0.000 C 
ATOM      5  C   UNL     1       3.982   6.389  17.504  0.00  0.00    +0.000 A 
ATOM      6  C   UNL     1       4.587   6.886  16.344  0.00  0.00    +0.000 A 
ATOM      7  C   UNL     1       5.344   6.051  15.523  0.00  0.00    +0.000 A 
ATOM      8  C   UNL     1       5.551   4.719  15.874  0.00  0.00    +0.000 A 
ATOM      9  C   UNL     1       4.938   4.209  17.016  0.00  0.00    +0.000 A 
ATOM     10  C   UNL     1       4.145   5.034  17.836  0.00  0.00    +0.000 A 
ENDROOT
BRANCH   1  14
ATOM     11  N   UNL     1       0.715   1.911  18.546  0.00  0.00    +0.000 N 
ATOM     12  C   UNL     1       1.705   2.558  19.224  0.00  0.00    +0.000 C 
ATOM     13  O   UNL     1       2.038   2.201  20.350  0.00  0.00    +0.000 OA
ATOM     14  N   UNL     1       2.306   3.554  18.504  0.00  0.00    +0.000 N 
ATOM     15  H   UNL     1       0.162   1.236  19.051  0.00  0.00    +0.000 HD
ATOM     16  H   UNL     1       0.316   2.390  17.750  0.00  0.00    +0.000 HD
BRANCH  14  17
ATOM     17  O   UNL     1       1.614   4.028  17.362  0.00  0.00    +0.000 OA
ATOM     18  H   UNL     1       2.326   4.538  16.925  0.00  0.00    +0.000 HD
ENDBRANCH  14  17
ENDBRANCH   1  14
BRANCH   8  19
ATOM     19  O   UNL     1       6.313   3.828  15.169  0.00  0.00    +0.000 OA
BRANCH  19  20
ATOM     20  C   UNL     1       6.785   4.298  13.906  0.00  0.00    +0.000 C 
BRANCH  20  21
ATOM     21  C   UNL     1       6.050   3.567  12.817  0.00  0.00    +0.000 A 
ATOM     22  C   UNL     1       4.758   3.950  12.438  0.00  0.00    +0.000 A 
ATOM     23  C   UNL     1       4.093   3.261  11.425  0.00  0.00    +0.000 A 
ATOM     24  C   UNL     1       4.709   2.187  10.785  0.00  0.00    +0.000 A 
ATOM     25  C   UNL     1       5.987   1.791  11.165  0.00  0.00    +0.000 A 
ATOM     26  C   UNL     1       6.655   2.473  12.180  0.00  0.00    +0.000 A 
ENDBRANCH  20  21
ENDBRANCH  19  20
ENDBRANCH   8  19
TORSDOF 5
ENDMDL
MODEL 5
REMARK VINA RESULT:      -7.4      1.020      1.657
REMARK  Name = 
REMARK  5 active torsions:
REMARK  status: ('A' for Active; 'I' for Inactive)
REMARK    1  A    between atoms: N_4  and  O_5
REMARK    2  A    between atoms: N_4  and  C_6
REMARK    3  A    between atoms: C_13  and  O_14
REMARK    4  A    between atoms: O_14  and  C_15
REMARK    5  A    between atoms: C_15  and  C_16
REMARK                            x       y       z     vdW  Elec       q    Type
REMARK                         _______ _______ _______ _____ _____    ______ ____
ROOT
ATOM      1  C   UNL     1       3.695   3.338  20.639  0.00  0.00    +0.000 C 
ATOM      2  C   UNL     1       2.405   3.184  21.465  0.00  0.00    +0.000 C 
ATOM      3  C   UNL     1       1.153   3.308  20.603  0.00  0.00    +0.000 C 
ATOM      4  C   UNL     1       1.106   4.655  19.886  0.00  0.00    +0.000 C 
ATOM      5  C   UNL     1       2.417   5.074  19.275  0.00  0.00    +0.000 A 
ATOM      6  C   UNL     1       2.414   6.079  18.302  0.00  0.00    +0.000 A 
ATOM      7  C   UNL     1       3.609   6.536  17.748  0.00  0.00    +0.000 A 
ATOM      8  C   UNL     1       4.829   6.033  18.194  0.00  0.00    +0.000 A 
ATOM      9  C   UNL     1       4.842   5.019  19.148  0.00  0.00    +0.000 A 
ATOM     10  C   UNL     1       3.641   4.526  19.691  0.00  0.00    +0.000 A 
ENDROOT
BRANCH   1  14
ATOM     11  N   UNL     1       4.068   0.595  18.193  0.00  0.00    +0.000 N 
ATOM     12  C   UNL     1       3.562   1.764  18.676  0.00  0.00    +0.000 C 
ATOM     13  O   UNL     1       2.687   2.374  18.070  0.00  0.00    +0.000 OA
ATOM     14  N   UNL     1       4.068   2.119  19.898  0.00  0.00    +0.000 N 
ATOM     15  H   UNL     1       3.816   0.326  17.253  0.00  0.00    +0.000 HD
ATOM     16  H   UNL     1       4.941   0.275  18.587  0.00  0.00    +0.000 HD
BRANCH  14  17
ATOM     17  O   UNL     1       5.265   1.481  20.307  0.00  0.00    +0.000 OA
ATOM     18  H   UNL     1       5.332   1.808  21.227  0.00  0.00    +0.000 HD
ENDBRANCH  14  17
ENDBRANCH   1  14
BRANCH   8  19
ATOM     19  O   UNL     1       6.058   6.443  17.756  0.00  0.00    +0.000 OA
BRANCH  19  20
ATOM     20  C   UNL     1       6.983   5.393  17.470  0.00  0.00    +0.000 C 
BRANCH  20  21
ATOM     21  C   UNL     1       6.716   4.883  16.081  0.00  0.00    +0.000 A 
ATOM     22  C   UNL     1       5.734   3.912  15.848  0.00  0.00    +0.000 A 
ATOM     23  C   UNL     1       5.500   3.452  14.553  0.00  0.00    +0.000 A 
ATOM     24  C   UNL     1       6.241   3.953  13.485  0.00  0.00    +0.000 A 
ATOM     25  C   UNL     1       7.228   4.907  13.710  0.00  0.00    +0.000 A 
ATOM     26  C   UNL     1       7.470   5.368  15.003  0.00  0.00    +0.000 A 
ENDBRANCH  20  21
ENDBRANCH  19  20
ENDBRANCH   8  19
TORSDOF 5
ENDMDL
MODEL 6
REMARK VINA RESULT:      -7.4      1.021      1.937
REMARK  Name = 
REMARK  5 active torsions:
REMARK  status: ('A' for Active; 'I' for Inactive)
REMARK    1  A    between atoms: N_4  and  O_5
REMARK    2  A    between atoms: N_4  and  C_6
REMARK    3  A    between atoms: C_13  and  O_14
REMARK    4  A    between atoms: O_14  and  C_15
REMARK    5  A    between atoms: C_15  and  C_16
REMARK                            x       y       z     vdW  Elec       q    Type
REMARK                         _______ _______ _______ _____ _____    ______ ____
ROOT
ATOM      1  C   UNL     1       3.698   3.335  20.640  0.00  0.00    +0.000 C 
ATOM      2  C   UNL     1       2.407   3.183  21.464  0.00  0.00    +0.000 C 
ATOM      3  C   UNL     1       1.157   3.305  20.602  0.00  0.00    +0.000 C 
ATOM      4  C   UNL     1       1.110   4.651  19.883  0.00  0.00    +0.000 C 
ATOM      5  C   UNL     1       2.421   5.069  19.271  0.00  0.00    +0.000 A 
ATOM      6  C   UNL     1       2.420   6.073  18.297  0.00  0.00    +0.000 A 
ATOM      7  C   UNL     1       3.616   6.529  17.743  0.00  0.00    +0.000 A 
ATOM      8  C   UNL     1       4.835   6.026  18.191  0.00  0.00    +0.000 A 
ATOM      9  C   UNL     1       4.847   5.013  19.147  0.00  0.00    +0.000 A 
ATOM     10  C   UNL     1       3.646   4.521  19.690  0.00  0.00    +0.000 A 
ENDROOT
BRANCH   1  14
ATOM     11  N   UNL     1       4.076   0.590  18.196  0.00  0.00    +0.000 N 
ATOM     12  C   UNL     1       3.570   1.761  18.677  0.00  0.00    +0.000 C 
ATOM     13  O   UNL     1       2.699   2.373  18.066  0.00  0.00    +0.000 OA
ATOM     14  N   UNL     1       4.071   2.115  19.900  0.00  0.00    +0.000 N 
ATOM     15  H   UNL     1       3.827   0.321  17.255  0.00  0.00    +0.000 HD
ATOM     16  H   UNL     1       4.946   0.268  18.594  0.00  0.00    +0.000 HD
BRANCH  14  17
ATOM     17  O   UNL     1       5.265   1.474  20.315  0.00  0.00    +0.000 OA
ATOM     18  H   UNL     1       5.915   1.925  19.740  0.00  0.00    +0.000 HD
ENDBRANCH  14  17
ENDBRANCH   1  14
BRANCH   8  19
ATOM     19  O   UNL     1       6.065   6.435  17.753  0.00  0.00    +0.000 OA
BRANCH  19  20
ATOM     20  C   UNL     1       6.989   5.384  17.471  0.00  0.00    +0.000 C 
BRANCH  20  21
ATOM     21  C   UNL     1       6.737   4.885  16.075  0.00  0.00    +0.000 A 
ATOM     22  C   UNL     1       7.472   5.378  14.991  0.00  0.00    +0.000 A 
ATOM     23  C   UNL     1       7.225   4.902  13.704  0.00  0.00    +0.000 A 
ATOM     24  C   UNL     1       6.245   3.935  13.489  0.00  0.00    +0.000 A 
ATOM     25  C   UNL     1       5.500   3.450  14.560  0.00  0.00    +0.000 A 
ATOM     26  C   UNL     1       5.740   3.925  15.847  0.00  0.00    +0.000 A 
ENDBRANCH  20  21
ENDBRANCH  19  20
ENDBRANCH   8  19
TORSDOF 5
ENDMDL
MODEL 7
REMARK VINA RESULT:      -7.4      3.278      7.169
REMARK  Name = 
REMARK  5 active torsions:
REMARK  status: ('A' for Active; 'I' for Inactive)
REMARK    1  A    between atoms: N_4  and  O_5
REMARK    2  A    between atoms: N_4  and  C_6
REMARK    3  A    between atoms: C_13  and  O_14
REMARK    4  A    between atoms: O_14  and  C_15
REMARK    5  A    between atoms: C_15  and  C_16
REMARK                            x       y       z     vdW  Elec       q    Type
REMARK                         _______ _______ _______ _____ _____    ______ ____
ROOT
ATOM      1  C   UNL     1       2.315   3.712  18.477  0.00  0.00    +0.000 C 
ATOM      2  C   UNL     1       2.829   2.724  17.413  0.00  0.00    +0.000 C 
ATOM      3  C   UNL     1       4.298   2.954  17.079  0.00  0.00    +0.000 C 
ATOM      4  C   UNL     1       4.534   4.373  16.569  0.00  0.00    +0.000 C 
ATOM      5  C   UNL     1       3.826   5.439  17.363  0.00  0.00    +0.000 A 
ATOM      6  C   UNL     1       4.245   6.767  17.230  0.00  0.00    +0.000 A 
ATOM      7  C   UNL     1       3.584   7.793  17.904  0.00  0.00    +0.000 A 
ATOM      8  C   UNL     1       2.462   7.514  18.681  0.00  0.00    +0.000 A 
ATOM      9  C   UNL     1       2.047   6.194  18.835  0.00  0.00    +0.000 A 
ATOM     10  C   UNL     1       2.726   5.146  18.186  0.00  0.00    +0.000 A 
ENDROOT
BRANCH   1  14
ATOM     11  N   UNL     1       2.420   2.702  22.029  0.00  0.00    +0.000 N 
ATOM     12  C   UNL     1       1.820   3.006  20.844  0.00  0.00    +0.000 C 
ATOM     13  O   UNL     1       0.597   3.024  20.740  0.00  0.00    +0.000 OA
ATOM     14  N   UNL     1       2.701   3.347  19.853  0.00  0.00    +0.000 N 
ATOM     15  H   UNL     1       1.839   2.344  22.773  0.00  0.00    +0.000 HD
ATOM     16  H   UNL     1       3.400   2.457  21.998  0.00  0.00    +0.000 HD
BRANCH  14  17
ATOM     17  O   UNL     1       4.057   2.986  20.047  0.00  0.00    +0.000 OA
ATOM     18  H   UNL     1       4.502   3.735  19.602  0.00  0.00    +0.000 HD
ENDBRANCH  14  17
ENDBRANCH   1  14
BRANCH   8  19
ATOM     19  O   UNL     1       1.712   8.447  19.344  0.00  0.00    +0.000 OA
BRANCH  19  20
ATOM     20  C   UNL     1       1.430   8.141  20.710  0.00  0.00    +0.000 C 
BRANCH  20  21
ATOM     21  C   UNL     1       0.562   9.229  21.277  0.00  0.00    +0.000 A 
ATOM     22  C   UNL     1       0.145   9.193  22.613  0.00  0.00    +0.000 A 
ATOM     23  C   UNL     1      -0.659  10.213  23.122  0.00  0.00    +0.000 A 
ATOM     24  C   UNL     1      -1.053  11.271  22.305  0.00  0.00    +0.000 A 
ATOM     25  C   UNL     1      -0.655  11.306  20.972  0.00  0.00    +0.000 A 
ATOM     26  C   UNL     1       0.145  10.288  20.457  0.00  0.00    +0.000 A 
ENDBRANCH  20  21
ENDBRANCH  19  20
ENDBRANCH   8  19
TORSDOF 5
ENDMDL
MODEL 8
REMARK VINA RESULT:      -7.4      3.271      7.208
REMARK  Name = 
REMARK  5 active torsions:
REMARK  status: ('A' for Active; 'I' for Inactive)
REMARK    1  A    between atoms: N_4  and  O_5
REMARK    2  A    between atoms: N_4  and  C_6
REMARK    3  A    between atoms: C_13  and  O_14
REMARK    4  A    between atoms: O_14  and  C_15
REMARK    5  A    between atoms: C_15  and  C_16
REMARK                            x       y       z     vdW  Elec       q    Type
REMARK                         _______ _______ _______ _____ _____    ______ ____
ROOT
ATOM      1  C   UNL     1       2.345   3.706  18.475  0.00  0.00    +0.000 C 
ATOM      2  C   UNL     1       2.870   2.722  17.414  0.00  0.00    +0.000 C 
ATOM      3  C   UNL     1       4.339   2.961  17.085  0.00  0.00    +0.000 C 
ATOM      4  C   UNL     1       4.567   4.382  16.576  0.00  0.00    +0.000 C 
ATOM      5  C   UNL     1       3.849   5.443  17.367  0.00  0.00    +0.000 A 
ATOM      6  C   UNL     1       4.260   6.774  17.235  0.00  0.00    +0.000 A 
ATOM      7  C   UNL     1       3.589   7.796  17.906  0.00  0.00    +0.000 A 
ATOM      8  C   UNL     1       2.465   7.510  18.678  0.00  0.00    +0.000 A 
ATOM      9  C   UNL     1       2.059   6.187  18.831  0.00  0.00    +0.000 A 
ATOM     10  C   UNL     1       2.747   5.143  18.185  0.00  0.00    +0.000 A 
ENDROOT
BRANCH   1  14
ATOM     11  N   UNL     1       2.440   2.730  22.037  0.00  0.00    +0.000 N 
ATOM     12  C   UNL     1       1.842   3.038  20.851  0.00  0.00    +0.000 C 
ATOM     13  O   UNL     1       0.620   3.090  20.753  0.00  0.00    +0.000 OA
ATOM     14  N   UNL     1       2.727   3.344  19.853  0.00  0.00    +0.000 N 
ATOM     15  H   UNL     1       1.854   2.396  22.787  0.00  0.00    +0.000 HD
ATOM     16  H   UNL     1       3.412   2.457  22.003  0.00  0.00    +0.000 HD
BRANCH  14  17
ATOM     17  O   UNL     1       4.074   2.948  20.043  0.00  0.00    +0.000 OA
ATOM     18  H   UNL     1       4.246   2.498  19.192  0.00  0.00    +0.000 HD
ENDBRANCH  14  17
ENDBRANCH   1  14
BRANCH   8  19
ATOM     19  O   UNL     1       1.706   8.438  19.338  0.00  0.00    +0.000 OA
BRANCH  19  20
ATOM     20  C   UNL     1       1.448   8.146  20.712  0.00  0.00    +0.000 C 
BRANCH  20  21
ATOM     21  C   UNL     1       0.577   9.232  21.278  0.00  0.00    +0.000 A 
ATOM     22  C   UNL     1       0.194  10.328  20.496  0.00  0.00    +0.000 A 
ATOM     23  C   UNL     1      -0.616  11.325  21.038  0.00  0.00    +0.000 A 
ATOM     24  C   UNL     1      -1.047  11.238  22.360  0.00  0.00    +0.000 A 
ATOM     25  C   UNL     1      -0.658  10.160  23.149  0.00  0.00    +0.000 A 
ATOM     26  C   UNL     1       0.154   9.162  22.614  0.00  0.00    +0.000 A 
ENDBRANCH  20  21
ENDBRANCH  19  20
ENDBRANCH   8  19
TORSDOF 5
ENDMDL
MODEL 9
REMARK VINA RESULT:      -7.3      1.321      1.863
REMARK  Name = 
REMARK  5 active torsions:
REMARK  status: ('A' for Active; 'I' for Inactive)
REMARK    1  A    between atoms: N_4  and  O_5
REMARK    2  A    between atoms: N_4  and  C_6
REMARK    3  A    between atoms: C_13  and  O_14
REMARK    4  A    between atoms: O_14  and  C_15
REMARK    5  A    between atoms: C_15  and  C_16
REMARK                            x       y       z     vdW  Elec       q    Type
REMARK                         _______ _______ _______ _____ _____    ______ ____
ROOT
ATOM      1  C   UNL     1       3.692   3.223  20.714  0.00  0.00    +0.000 C 
ATOM      2  C   UNL     1       2.359   3.046  21.463  0.00  0.00    +0.000 C 
ATOM      3  C   UNL     1       1.162   3.066  20.518  0.00  0.00    +0.000 C 
ATOM      4  C   UNL     1       1.100   4.372  19.730  0.00  0.00    +0.000 C 
ATOM      5  C   UNL     1       2.428   4.824  19.182  0.00  0.00    +0.000 A 
ATOM      6  C   UNL     1       2.443   5.779  18.160  0.00  0.00    +0.000 A 
ATOM      7  C   UNL     1       3.650   6.267  17.659  0.00  0.00    +0.000 A 
ATOM      8  C   UNL     1       4.859   5.846  18.208  0.00  0.00    +0.000 A 
ATOM      9  C   UNL     1       4.857   4.883  19.212  0.00  0.00    +0.000 A 
ATOM     10  C   UNL     1       3.646   4.358  19.704  0.00  0.00    +0.000 A 
ENDROOT
BRANCH   1  14
ATOM     11  N   UNL     1       5.337   0.037  19.822  0.00  0.00    +0.000 N 
ATOM     12  C   UNL     1       5.058   1.108  20.618  0.00  0.00    +0.000 C 
ATOM     13  O   UNL     1       5.624   1.262  21.695  0.00  0.00    +0.000 OA
ATOM     14  N   UNL     1       4.169   1.989  20.062  0.00  0.00    +0.000 N 
ATOM     15  H   UNL     1       5.905  -0.701  20.210  0.00  0.00    +0.000 HD
ATOM     16  H   UNL     1       4.677  -0.173  19.087  0.00  0.00    +0.000 HD
BRANCH  14  17
ATOM     17  O   UNL     1       3.395   1.519  18.973  0.00  0.00    +0.000 OA
ATOM     18  H   UNL     1       2.612   2.100  19.050  0.00  0.00    +0.000 HD
ENDBRANCH  14  17
ENDBRANCH   1  14
BRANCH   8  19
ATOM     19  O   UNL     1       6.095   6.295  17.827  0.00  0.00    +0.000 OA
BRANCH  19  20
ATOM     20  C   UNL     1       7.032   5.274  17.481  0.00  0.00    +0.000 C 
BRANCH  20  21
ATOM     21  C   UNL     1       6.751   4.822  16.075  0.00  0.00    +0.000 A 
ATOM     22  C   UNL     1       7.458   5.359  14.993  0.00  0.00    +0.000 A 
ATOM     23  C   UNL     1       7.185   4.926  13.696  0.00  0.00    +0.000 A 
ATOM     24  C   UNL     1       6.208   3.959  13.469  0.00  0.00    +0.000 A 
ATOM     25  C   UNL     1       5.490   3.431  14.538  0.00  0.00    +0.000 A 
ATOM     26  C   UNL     1       5.756   3.863  15.836  0.00  0.00    +0.000 A 
ENDBRANCH  20  21
ENDBRANCH  19  20
ENDBRANCH   8  19
TORSDOF 5
ENDMDL
