MODEL 1
REMARK VINA RESULT:      -6.7      0.000      0.000
REMARK  Name = 
REMARK  9 active torsions:
REMARK  status: ('A' for Active; 'I' for Inactive)
REMARK    1  A    between atoms: C_1  and  C_2
REMARK    2  A    between atoms: C_2  and  C_3
REMARK    3  A    between atoms: C_3  and  N_4
REMARK    4  A    between atoms: C_5  and  C_7
REMARK    5  A    between atoms: C_7  and  C_8
REMARK    6  A    between atoms: C_7  and  N_9
REMARK    7  A    between atoms: N_12  and  C_13
REMARK    8  A    between atoms: C_13  and  C_14
REMARK    9  A    between atoms: C_14  and  C_15
REMARK                            x       y       z     vdW  Elec       q    Type
REMARK                         _______ _______ _______ _____ _____    ______ ____
ROOT
ATOM      1  N   UNL     1       7.095   6.446  16.722  0.00  0.00    +0.000 N 
ATOM      2  C   UNL     1       7.670   7.132  17.752  0.00  0.00    +0.000 C 
ATOM      3  O   UNL     1       8.105   6.595  18.766  0.00  0.00    +0.000 OA
ATOM      4  N   UNL     1       7.727   8.483  17.522  0.00  0.00    +0.000 N 
ATOM      5  H   UNL     1       6.507   6.944  16.068  0.00  0.00    +0.000 HD
ATOM      6  H   UNL     1       7.670   8.775  16.556  0.00  0.00    +0.000 HD
ENDROOT
BRANCH   1   7
ATOM      7  C   UNL     1       6.897   4.997  16.803  0.00  0.00    +0.000 C 
ATOM      8  C   UNL     1       6.967   4.370  15.417  0.00  0.00    +0.000 C 
BRANCH   7  10
ATOM      9  N   UNL     1       5.575   3.700  18.429  0.00  0.00    +0.000 N 
ATOM     10  C   UNL     1       5.539   4.698  17.476  0.00  0.00    +0.000 C 
ATOM     11  O   UNL     1       4.514   5.318  17.186  0.00  0.00    +0.000 OA
ATOM     12  H   UNL     1       6.445   3.210  18.602  0.00  0.00    +0.000 HD
BRANCH   9  13
ATOM     13  C   UNL     1       4.399   3.267  19.157  0.00  0.00    +0.000 C 
BRANCH  13  15
ATOM     14  C   UNL     1       2.485   2.363  17.747  0.00  0.00    +0.000 C 
ATOM     15  C   UNL     1       3.740   2.032  18.543  0.00  0.00    +0.000 C 
ENDBRANCH  13  15
ENDBRANCH   9  13
ENDBRANCH   7  10
ENDBRANCH   1   7
BRANCH   4  16
ATOM     16  C   UNL     1       8.470   9.327  18.445  0.00  0.00    +0.000 C 
BRANCH  16  17
ATOM     17  C   UNL     1       8.898  10.677  17.866  0.00  0.00    +0.000 C 
BRANCH  17  18
ATOM     18  C   UNL     1      10.081  11.277  18.577  0.00  0.00    +0.000 A 
ATOM     19  C   UNL     1      11.295  11.670  18.044  0.00  0.00    +0.000 A 
ATOM     20  C   UNL     1      12.188  12.168  19.036  0.00  0.00    +0.000 A 
ATOM     21  C   UNL     1      11.628  12.140  20.294  0.00  0.00    +0.000 A 
ATOM     22  S   UNL     1      10.037  11.514  20.274  0.00  0.00    +0.000 S 
ENDBRANCH  17  18
ENDBRANCH  16  17
ENDBRANCH   4  16
TORSDOF 7
ENDMDL
MODEL 2
REMARK VINA RESULT:      -6.7      5.220      7.578
REMARK  Name = 
REMARK  9 active torsions:
REMARK  status: ('A' for Active; 'I' for Inactive)
REMARK    1  A    between atoms: C_1  and  C_2
REMARK    2  A    between atoms: C_2  and  C_3
REMARK    3  A    between atoms: C_3  and  N_4
REMARK    4  A    between atoms: C_5  and  C_7
REMARK    5  A    between atoms: C_7  and  C_8
REMARK    6  A    between atoms: C_7  and  N_9
REMARK    7  A    between atoms: N_12  and  C_13
REMARK    8  A    between atoms: C_13  and  C_14
REMARK    9  A    between atoms: C_14  and  C_15
REMARK                            x       y       z     vdW  Elec       q    Type
REMARK                         _______ _______ _______ _____ _____    ______ ____
ROOT
ATOM      1  N   UNL     1       5.406   3.680  16.294  0.00  0.00    +0.000 N 
ATOM      2  C   UNL     1       5.001   3.375  17.561  0.00  0.00    +0.000 C 
ATOM      3  O   UNL     1       5.387   3.973  18.560  0.00  0.00    +0.000 OA
ATOM      4  N   UNL     1       4.099   2.342  17.595  0.00  0.00    +0.000 N 
ATOM      5  H   UNL     1       5.292   2.992  15.563  0.00  0.00    +0.000 HD
ATOM      6  H   UNL     1       3.597   2.158  16.737  0.00  0.00    +0.000 HD
ENDROOT
BRANCH   1   7
ATOM      7  C   UNL     1       6.407   4.723  16.057  0.00  0.00    +0.000 C 
ATOM      8  C   UNL     1       5.834   6.096  16.382  0.00  0.00    +0.000 C 
BRANCH   7  10
ATOM      9  N   UNL     1       6.223   3.728  13.809  0.00  0.00    +0.000 N 
ATOM     10  C   UNL     1       6.883   4.657  14.589  0.00  0.00    +0.000 C 
ATOM     11  O   UNL     1       7.775   5.390  14.157  0.00  0.00    +0.000 OA
ATOM     12  H   UNL     1       5.518   3.137  14.232  0.00  0.00    +0.000 HD
BRANCH   9  13
ATOM     13  C   UNL     1       6.541   3.509  12.413  0.00  0.00    +0.000 C 
BRANCH  13  15
ATOM     14  C   UNL     1       4.230   3.238  11.383  0.00  0.00    +0.000 C 
ATOM     15  C   UNL     1       5.556   2.568  11.719  0.00  0.00    +0.000 C 
ENDBRANCH  13  15
ENDBRANCH   9  13
ENDBRANCH   7  10
ENDBRANCH   1   7
BRANCH   4  16
ATOM     16  C   UNL     1       3.441   2.018  18.851  0.00  0.00    +0.000 C 
BRANCH  16  17
ATOM     17  C   UNL     1       2.062   2.657  19.028  0.00  0.00    +0.000 C 
BRANCH  17  18
ATOM     18  C   UNL     1       2.106   4.161  19.047  0.00  0.00    +0.000 A 
ATOM     19  C   UNL     1       2.010   5.037  17.981  0.00  0.00    +0.000 A 
ATOM     20  C   UNL     1       2.126   6.398  18.386  0.00  0.00    +0.000 A 
ATOM     21  C   UNL     1       2.306   6.519  19.745  0.00  0.00    +0.000 A 
ATOM     22  S   UNL     1       2.337   4.998  20.526  0.00  0.00    +0.000 S 
ENDBRANCH  17  18
ENDBRANCH  16  17
ENDBRANCH   4  16
TORSDOF 7
ENDMDL
MODEL 3
REMARK VINA RESULT:      -6.4      2.192      3.204
REMARK  Name = 
REMARK  9 active torsions:
REMARK  status: ('A' for Active; 'I' for Inactive)
REMARK    1  A    between atoms: C_1  and  C_2
REMARK    2  A    between atoms: C_2  and  C_3
REMARK    3  A    between atoms: C_3  and  N_4
REMARK    4  A    between atoms: C_5  and  C_7
REMARK    5  A    between atoms: C_7  and  C_8
REMARK    6  A    between atoms: C_7  and  N_9
REMARK    7  A    between atoms: N_12  and  C_13
REMARK    8  A    between atoms: C_13  and  C_14
REMARK    9  A    between atoms: C_14  and  C_15
REMARK                            x       y       z     vdW  Elec       q    Type
REMARK                         _______ _______ _______ _____ _____    ______ ____
ROOT
ATOM      1  N   UNL     1       7.512   6.628  18.395  0.00  0.00    +0.000 N 
ATOM      2  C   UNL     1       7.727   7.919  18.008  0.00  0.00    +0.000 C 
ATOM      3  O   UNL     1       7.050   8.496  17.162  0.00  0.00    +0.000 OA
ATOM      4  N   UNL     1       8.767   8.509  18.680  0.00  0.00    +0.000 N 
ATOM      5  H   UNL     1       8.255   6.126  18.861  0.00  0.00    +0.000 HD
ATOM      6  H   UNL     1       9.021   8.091  19.565  0.00  0.00    +0.000 HD
ENDROOT
BRANCH   1   7
ATOM      7  C   UNL     1       6.477   5.815  17.754  0.00  0.00    +0.000 C 
ATOM      8  C   UNL     1       5.809   4.900  18.773  0.00  0.00    +0.000 C 
BRANCH   7  10
ATOM      9  N   UNL     1       6.600   5.286  15.350  0.00  0.00    +0.000 N 
ATOM     10  C   UNL     1       7.102   4.996  16.603  0.00  0.00    +0.000 C 
ATOM     11  O   UNL     1       7.988   4.162  16.799  0.00  0.00    +0.000 OA
ATOM     12  H   UNL     1       5.853   5.964  15.259  0.00  0.00    +0.000 HD
BRANCH   9  13
ATOM     13  C   UNL     1       7.050   4.611  14.149  0.00  0.00    +0.000 C 
BRANCH  13  15
ATOM     14  C   UNL     1       6.310   3.284  12.110  0.00  0.00    +0.000 C 
ATOM     15  C   UNL     1       5.975   3.717  13.531  0.00  0.00    +0.000 C 
ENDBRANCH  13  15
ENDBRANCH   9  13
ENDBRANCH   7  10
ENDBRANCH   1   7
BRANCH   4  16
ATOM     16  C   UNL     1       9.005   9.933  18.507  0.00  0.00    +0.000 C 
BRANCH  16  17
ATOM     17  C   UNL     1       9.550  10.641  19.750  0.00  0.00    +0.000 C 
BRANCH  17  18
ATOM     18  C   UNL     1      10.491  11.769  19.422  0.00  0.00    +0.000 A 
ATOM     19  C   UNL     1      11.749  12.016  19.942  0.00  0.00    +0.000 A 
ATOM     20  C   UNL     1      12.330  13.204  19.411  0.00  0.00    +0.000 A 
ATOM     21  C   UNL     1      11.501  13.824  18.505  0.00  0.00    +0.000 A 
ATOM     22  S   UNL     1      10.029  12.979  18.299  0.00  0.00    +0.000 S 
ENDBRANCH  17  18
ENDBRANCH  16  17
ENDBRANCH   4  16
TORSDOF 7
ENDMDL
MODEL 4
REMARK VINA RESULT:      -6.3      1.254      1.512
REMARK  Name = 
REMARK  9 active torsions:
REMARK  status: ('A' for Active; 'I' for Inactive)
REMARK    1  A    between atoms: C_1  and  C_2
REMARK    2  A    between atoms: C_2  and  C_3
REMARK    3  A    between atoms: C_3  and  N_4
REMARK    4  A    between atoms: C_5  and  C_7
REMARK    5  A    between atoms: C_7  and  C_8
REMARK    6  A    between atoms: C_7  and  N_9
REMARK    7  A    between atoms: N_12  and  C_13
REMARK    8  A    between atoms: C_13  and  C_14
REMARK    9  A    between atoms: C_14  and  C_15
REMARK                            x       y       z     vdW  Elec       q    Type
REMARK                         _______ _______ _______ _____ _____    ______ ____
ROOT
ATOM      1  N   UNL     1       7.119   6.839  16.716  0.00  0.00    +0.000 N 
ATOM      2  C   UNL     1       7.744   7.400  17.792  0.00  0.00    +0.000 C 
ATOM      3  O   UNL     1       8.138   6.755  18.760  0.00  0.00    +0.000 OA
ATOM      4  N   UNL     1       7.905   8.755  17.666  0.00  0.00    +0.000 N 
ATOM      5  H   UNL     1       6.571   7.430  16.106  0.00  0.00    +0.000 HD
ATOM      6  H   UNL     1       7.870   9.124  16.725  0.00  0.00    +0.000 HD
ENDROOT
BRANCH   1   7
ATOM      7  C   UNL     1       6.812   5.408  16.688  0.00  0.00    +0.000 C 
ATOM      8  C   UNL     1       6.778   4.897  15.253  0.00  0.00    +0.000 C 
BRANCH   7  10
ATOM      9  N   UNL     1       5.272   3.859  17.831  0.00  0.00    +0.000 N 
ATOM     10  C   UNL     1       5.462   5.156  17.396  0.00  0.00    +0.000 C 
ATOM     11  O   UNL     1       4.633   6.052  17.564  0.00  0.00    +0.000 OA
ATOM     12  H   UNL     1       5.981   3.162  17.638  0.00  0.00    +0.000 HD
BRANCH   9  13
ATOM     13  C   UNL     1       4.063   3.426  18.502  0.00  0.00    +0.000 C 
BRANCH  13  15
ATOM     14  C   UNL     1       1.748   4.053  17.656  0.00  0.00    +0.000 C 
ATOM     15  C   UNL     1       2.928   3.099  17.532  0.00  0.00    +0.000 C 
ENDBRANCH  13  15
ENDBRANCH   9  13
ENDBRANCH   7  10
ENDBRANCH   1   7
BRANCH   4  16
ATOM     16  C   UNL     1       8.709   9.467  18.646  0.00  0.00    +0.000 C 
BRANCH  16  17
ATOM     17  C   UNL     1       9.169  10.858  18.201  0.00  0.00    +0.000 C 
BRANCH  17  18
ATOM     18  C   UNL     1       9.455  11.783  19.353  0.00  0.00    +0.000 A 
ATOM     19  C   UNL     1       9.701  11.458  20.674  0.00  0.00    +0.000 A 
ATOM     20  C   UNL     1       9.900  12.610  21.488  0.00  0.00    +0.000 A 
ATOM     21  C   UNL     1       9.801  13.777  20.764  0.00  0.00    +0.000 A 
ATOM     22  S   UNL     1       9.467  13.481  19.114  0.00  0.00    +0.000 S 
ENDBRANCH  17  18
ENDBRANCH  16  17
ENDBRANCH   4  16
TORSDOF 7
ENDMDL
MODEL 5
REMARK VINA RESULT:      -6.3      1.394      1.488
REMARK  Name = 
REMARK  9 active torsions:
REMARK  status: ('A' for Active; 'I' for Inactive)
REMARK    1  A    between atoms: C_1  and  C_2
REMARK    2  A    between atoms: C_2  and  C_3
REMARK    3  A    between atoms: C_3  and  N_4
REMARK    4  A    between atoms: C_5  and  C_7
REMARK    5  A    between atoms: C_7  and  C_8
REMARK    6  A    between atoms: C_7  and  N_9
REMARK    7  A    between atoms: N_12  and  C_13
REMARK    8  A    between atoms: C_13  and  C_14
REMARK    9  A    between atoms: C_14  and  C_15
REMARK                            x       y       z     vdW  Elec       q    Type
REMARK                         _______ _______ _______ _____ _____    ______ ____
ROOT
ATOM      1  N   UNL     1       7.055   6.581  16.754  0.00  0.00    +0.000 N 
ATOM      2  C   UNL     1       7.700   7.254  17.750  0.00  0.00    +0.000 C 
ATOM      3  O   UNL     1       8.169   6.709  18.745  0.00  0.00    +0.000 OA
ATOM      4  N   UNL     1       7.786   8.602  17.510  0.00  0.00    +0.000 N 
ATOM      5  H   UNL     1       6.451   7.094  16.127  0.00  0.00    +0.000 HD
ATOM      6  H   UNL     1       7.690   8.891  16.546  0.00  0.00    +0.000 HD
ENDROOT
BRANCH   1   7
ATOM      7  C   UNL     1       6.819   5.139  16.853  0.00  0.00    +0.000 C 
ATOM      8  C   UNL     1       6.413   4.570  15.500  0.00  0.00    +0.000 C 
BRANCH   7  10
ATOM      9  N   UNL     1       4.493   5.400  17.625  0.00  0.00    +0.000 N 
ATOM     10  C   UNL     1       5.732   4.866  17.916  0.00  0.00    +0.000 C 
ATOM     11  O   UNL     1       5.961   4.209  18.934  0.00  0.00    +0.000 OA
ATOM     12  H   UNL     1       4.376   5.953  16.784  0.00  0.00    +0.000 HD
BRANCH   9  13
ATOM     13  C   UNL     1       3.352   5.263  18.507  0.00  0.00    +0.000 C 
BRANCH  13  15
ATOM     14  C   UNL     1       1.396   3.637  18.508  0.00  0.00    +0.000 C 
ATOM     15  C   UNL     1       2.095   4.780  17.784  0.00  0.00    +0.000 C 
ENDBRANCH  13  15
ENDBRANCH   9  13
ENDBRANCH   7  10
ENDBRANCH   1   7
BRANCH   4  16
ATOM     16  C   UNL     1       8.598   9.427  18.390  0.00  0.00    +0.000 C 
BRANCH  16  17
ATOM     17  C   UNL     1       8.687  10.898  17.977  0.00  0.00    +0.000 C 
BRANCH  17  18
ATOM     18  C   UNL     1       9.653  11.690  18.816  0.00  0.00    +0.000 A 
ATOM     19  C   UNL     1      10.924  11.335  19.229  0.00  0.00    +0.000 A 
ATOM     20  C   UNL     1      11.530  12.335  20.043  0.00  0.00    +0.000 A 
ATOM     21  C   UNL     1      10.704  13.421  20.227  0.00  0.00    +0.000 A 
ATOM     22  S   UNL     1       9.207  13.231  19.422  0.00  0.00    +0.000 S 
ENDBRANCH  17  18
ENDBRANCH  16  17
ENDBRANCH   4  16
TORSDOF 7
ENDMDL
MODEL 6
REMARK VINA RESULT:      -6.3      4.241      7.728
REMARK  Name = 
REMARK  9 active torsions:
REMARK  status: ('A' for Active; 'I' for Inactive)
REMARK    1  A    between atoms: C_1  and  C_2
REMARK    2  A    between atoms: C_2  and  C_3
REMARK    3  A    between atoms: C_3  and  N_4
REMARK    4  A    between atoms: C_5  and  C_7
REMARK    5  A    between atoms: C_7  and  C_8
REMARK    6  A    between atoms: C_7  and  N_9
REMARK    7  A    between atoms: N_12  and  C_13
REMARK    8  A    between atoms: C_13  and  C_14
REMARK    9  A    between atoms: C_14  and  C_15
REMARK                            x       y       z     vdW  Elec       q    Type
REMARK                         _______ _______ _______ _____ _____    ______ ____
ROOT
ATOM      1  N   UNL     1       5.340   6.134  17.651  0.00  0.00    +0.000 N 
ATOM      2  C   UNL     1       4.635   5.962  18.807  0.00  0.00    +0.000 C 
ATOM      3  O   UNL     1       5.158   5.744  19.895  0.00  0.00    +0.000 OA
ATOM      4  N   UNL     1       3.281   6.080  18.625  0.00  0.00    +0.000 N 
ATOM      5  H   UNL     1       4.866   6.019  16.766  0.00  0.00    +0.000 HD
ATOM      6  H   UNL     1       2.983   6.587  17.802  0.00  0.00    +0.000 HD
ENDROOT
BRANCH   1   7
ATOM      7  C   UNL     1       6.797   5.994  17.634  0.00  0.00    +0.000 C 
ATOM      8  C   UNL     1       7.465   7.362  17.586  0.00  0.00    +0.000 C 
BRANCH   7  10
ATOM      9  N   UNL     1       6.759   5.586  15.203  0.00  0.00    +0.000 N 
ATOM     10  C   UNL     1       7.219   5.132  16.423  0.00  0.00    +0.000 C 
ATOM     11  O   UNL     1       7.922   4.127  16.548  0.00  0.00    +0.000 OA
ATOM     12  H   UNL     1       6.162   6.404  15.171  0.00  0.00    +0.000 HD
BRANCH   9  13
ATOM     13  C   UNL     1       7.037   4.903  13.956  0.00  0.00    +0.000 C 
BRANCH  13  15
ATOM     14  C   UNL     1       6.143   3.276  12.217  0.00  0.00    +0.000 C 
ATOM     15  C   UNL     1       6.021   3.805  13.639  0.00  0.00    +0.000 C 
ENDBRANCH  13  15
ENDBRANCH   9  13
ENDBRANCH   7  10
ENDBRANCH   1   7
BRANCH   4  16
ATOM     16  C   UNL     1       2.409   6.099  19.788  0.00  0.00    +0.000 C 
BRANCH  16  17
ATOM     17  C   UNL     1       2.009   4.714  20.305  0.00  0.00    +0.000 C 
BRANCH  17  18
ATOM     18  C   UNL     1       2.385   3.601  19.363  0.00  0.00    +0.000 A 
ATOM     19  C   UNL     1       1.810   3.272  18.150  0.00  0.00    +0.000 A 
ATOM     20  C   UNL     1       2.418   2.129  17.554  0.00  0.00    +0.000 A 
ATOM     21  C   UNL     1       3.436   1.623  18.330  0.00  0.00    +0.000 A 
ATOM     22  S   UNL     1       3.654   2.521  19.768  0.00  0.00    +0.000 S 
ENDBRANCH  17  18
ENDBRANCH  16  17
ENDBRANCH   4  16
TORSDOF 7
ENDMDL
MODEL 7
REMARK VINA RESULT:      -6.2      0.724      1.003
REMARK  Name = 
REMARK  9 active torsions:
REMARK  status: ('A' for Active; 'I' for Inactive)
REMARK    1  A    between atoms: C_1  and  C_2
REMARK    2  A    between atoms: C_2  and  C_3
REMARK    3  A    between atoms: C_3  and  N_4
REMARK    4  A    between atoms: C_5  and  C_7
REMARK    5  A    between atoms: C_7  and  C_8
REMARK    6  A    between atoms: C_7  and  N_9
REMARK    7  A    between atoms: N_12  and  C_13
REMARK    8  A    between atoms: C_13  and  C_14
REMARK    9  A    between atoms: C_14  and  C_15
REMARK                            x       y       z     vdW  Elec       q    Type
REMARK                         _______ _______ _______ _____ _____    ______ ____
ROOT
ATOM      1  N   UNL     1       7.191   6.326  16.307  0.00  0.00    +0.000 N 
ATOM      2  C   UNL     1       7.576   6.931  17.468  0.00  0.00    +0.000 C 
ATOM      3  O   UNL     1       7.689   6.339  18.537  0.00  0.00    +0.000 OA
ATOM      4  N   UNL     1       7.843   8.266  17.307  0.00  0.00    +0.000 N 
ATOM      5  H   UNL     1       6.840   6.896  15.550  0.00  0.00    +0.000 HD
ATOM      6  H   UNL     1       8.055   8.570  16.366  0.00  0.00    +0.000 HD
ENDROOT
BRANCH   1   7
ATOM      7  C   UNL     1       6.813   4.911  16.288  0.00  0.00    +0.000 C 
ATOM      8  C   UNL     1       6.927   4.348  14.877  0.00  0.00    +0.000 C 
BRANCH   7  10
ATOM      9  N   UNL     1       5.160   3.604  17.566  0.00  0.00    +0.000 N 
ATOM     10  C   UNL     1       5.376   4.753  16.831  0.00  0.00    +0.000 C 
ATOM     11  O   UNL     1       4.503   5.599  16.630  0.00  0.00    +0.000 OA
ATOM     12  H   UNL     1       5.913   2.934  17.672  0.00  0.00    +0.000 HD
BRANCH   9  13
ATOM     13  C   UNL     1       3.874   3.271  18.143  0.00  0.00    +0.000 C 
BRANCH  13  15
ATOM     14  C   UNL     1       3.557   2.642  20.588  0.00  0.00    +0.000 C 
ATOM     15  C   UNL     1       3.719   3.772  19.580  0.00  0.00    +0.000 C 
ENDBRANCH  13  15
ENDBRANCH   9  13
ENDBRANCH   7  10
ENDBRANCH   1   7
BRANCH   4  16
ATOM     16  C   UNL     1       8.434   9.008  18.410  0.00  0.00    +0.000 C 
BRANCH  16  17
ATOM     17  C   UNL     1       8.587  10.509  18.155  0.00  0.00    +0.000 C 
BRANCH  17  18
ATOM     18  C   UNL     1       9.774  11.110  18.859  0.00  0.00    +0.000 A 
ATOM     19  C   UNL     1      11.035  11.366  18.351  0.00  0.00    +0.000 A 
ATOM     20  C   UNL     1      11.913  11.914  19.330  0.00  0.00    +0.000 A 
ATOM     21  C   UNL     1      11.296  12.060  20.552  0.00  0.00    +0.000 A 
ATOM     22  S   UNL     1       9.670  11.536  20.516  0.00  0.00    +0.000 S 
ENDBRANCH  17  18
ENDBRANCH  16  17
ENDBRANCH   4  16
TORSDOF 7
ENDMDL
MODEL 8
REMARK VINA RESULT:      -6.1      5.095      7.632
REMARK  Name = 
REMARK  9 active torsions:
REMARK  status: ('A' for Active; 'I' for Inactive)
REMARK    1  A    between atoms: C_1  and  C_2
REMARK    2  A    between atoms: C_2  and  C_3
REMARK    3  A    between atoms: C_3  and  N_4
REMARK    4  A    between atoms: C_5  and  C_7
REMARK    5  A    between atoms: C_7  and  C_8
REMARK    6  A    between atoms: C_7  and  N_9
REMARK    7  A    between atoms: N_12  and  C_13
REMARK    8  A    between atoms: C_13  and  C_14
REMARK    9  A    between atoms: C_14  and  C_15
REMARK                            x       y       z     vdW  Elec       q    Type
REMARK                         _______ _______ _______ _____ _____    ______ ____
ROOT
ATOM      1  N   UNL     1       6.057   3.814  13.969  0.00  0.00    +0.000 N 
ATOM      2  C   UNL     1       6.724   4.619  14.846  0.00  0.00    +0.000 C 
ATOM      3  O   UNL     1       7.798   5.155  14.592  0.00  0.00    +0.000 OA
ATOM      4  N   UNL     1       6.056   4.781  16.032  0.00  0.00    +0.000 N 
ATOM      5  H   UNL     1       5.350   3.183  14.323  0.00  0.00    +0.000 HD
ATOM      6  H   UNL     1       5.061   4.598  16.014  0.00  0.00    +0.000 HD
ENDROOT
BRANCH   1   7
ATOM      7  C   UNL     1       6.636   3.480  12.667  0.00  0.00    +0.000 C 
ATOM      8  C   UNL     1       7.195   4.727  11.995  0.00  0.00    +0.000 C 
BRANCH   7  10
ATOM      9  N   UNL     1       4.450   3.590  11.533  0.00  0.00    +0.000 N 
ATOM     10  C   UNL     1       5.562   2.810  11.780  0.00  0.00    +0.000 C 
ATOM     11  O   UNL     1       5.704   1.674  11.325  0.00  0.00    +0.000 OA
ATOM     12  H   UNL     1       4.382   4.507  11.959  0.00  0.00    +0.000 HD
BRANCH   9  13
ATOM     13  C   UNL     1       3.330   3.130  10.736  0.00  0.00    +0.000 C 
BRANCH  13  15
ATOM     14  C   UNL     1       2.201   4.885   9.281  0.00  0.00    +0.000 C 
ATOM     15  C   UNL     1       3.263   3.797   9.362  0.00  0.00    +0.000 C 
ENDBRANCH  13  15
ENDBRANCH   9  13
ENDBRANCH   7  10
ENDBRANCH   1   7
BRANCH   4  16
ATOM     16  C   UNL     1       6.551   5.749  16.997  0.00  0.00    +0.000 C 
BRANCH  16  17
ATOM     17  C   UNL     1       5.859   5.697  18.362  0.00  0.00    +0.000 C 
BRANCH  17  18
ATOM     18  C   UNL     1       4.463   5.137  18.295  0.00  0.00    +0.000 A 
ATOM     19  C   UNL     1       3.307   5.761  17.863  0.00  0.00    +0.000 A 
ATOM     20  C   UNL     1       2.162   4.921  17.975  0.00  0.00    +0.000 A 
ATOM     21  C   UNL     1       2.479   3.683  18.488  0.00  0.00    +0.000 A 
ATOM     22  S   UNL     1       4.148   3.540  18.833  0.00  0.00    +0.000 S 
ENDBRANCH  17  18
ENDBRANCH  16  17
ENDBRANCH   4  16
TORSDOF 7
ENDMDL
MODEL 9
REMARK VINA RESULT:      -6.1      4.275      7.811
REMARK  Name = 
REMARK  9 active torsions:
REMARK  status: ('A' for Active; 'I' for Inactive)
REMARK    1  A    between atoms: C_1  and  C_2
REMARK    2  A    between atoms: C_2  and  C_3
REMARK    3  A    between atoms: C_3  and  N_4
REMARK    4  A    between atoms: C_5  and  C_7
REMARK    5  A    between atoms: C_7  and  C_8
REMARK    6  A    between atoms: C_7  and  N_9
REMARK    7  A    between atoms: N_12  and  C_13
REMARK    8  A    between atoms: C_13  and  C_14
REMARK    9  A    between atoms: C_14  and  C_15
REMARK                            x       y       z     vdW  Elec       q    Type
REMARK                         _______ _______ _______ _____ _____    ______ ____
ROOT
ATOM      1  N   UNL     1       5.608   6.962  17.396  0.00  0.00    +0.000 N 
ATOM      2  C   UNL     1       4.562   6.369  18.041  0.00  0.00    +0.000 C 
ATOM      3  O   UNL     1       4.699   5.541  18.937  0.00  0.00    +0.000 OA
ATOM      4  N   UNL     1       3.343   6.812  17.595  0.00  0.00    +0.000 N 
ATOM      5  H   UNL     1       5.447   7.398  16.499  0.00  0.00    +0.000 HD
ATOM      6  H   UNL     1       3.337   7.709  17.128  0.00  0.00    +0.000 HD
ENDROOT
BRANCH   1   7
ATOM      7  C   UNL     1       6.989   6.582  17.698  0.00  0.00    +0.000 C 
ATOM      8  C   UNL     1       7.910   7.791  17.599  0.00  0.00    +0.000 C 
BRANCH   7  10
ATOM      9  N   UNL     1       7.187   5.718  15.398  0.00  0.00    +0.000 N 
ATOM     10  C   UNL     1       7.440   5.464  16.732  0.00  0.00    +0.000 C 
ATOM     11  O   UNL     1       7.993   4.437  17.130  0.00  0.00    +0.000 OA
ATOM     12  H   UNL     1       6.705   6.570  15.138  0.00  0.00    +0.000 HD
BRANCH   9  13
ATOM     13  C   UNL     1       7.523   4.782  14.344  0.00  0.00    +0.000 C 
BRANCH  13  15
ATOM     14  C   UNL     1       5.122   4.022  14.707  0.00  0.00    +0.000 C 
ATOM     15  C   UNL     1       6.295   4.101  13.739  0.00  0.00    +0.000 C 
ENDBRANCH  13  15
ENDBRANCH   9  13
ENDBRANCH   7  10
ENDBRANCH   1   7
BRANCH   4  16
ATOM     16  C   UNL     1       2.140   6.406  18.304  0.00  0.00    +0.000 C 
BRANCH  16  17
ATOM     17  C   UNL     1       1.622   5.015  17.930  0.00  0.00    +0.000 C 
BRANCH  17  18
ATOM     18  C   UNL     1       1.584   4.065  19.098  0.00  0.00    +0.000 A 
ATOM     19  C   UNL     1       1.306   4.345  20.423  0.00  0.00    +0.000 A 
ATOM     20  C   UNL     1       1.395   3.189  21.251  0.00  0.00    +0.000 A 
ATOM     21  C   UNL     1       1.739   2.065  20.534  0.00  0.00    +0.000 A 
ATOM     22  S   UNL     1       1.953   2.406  18.872  0.00  0.00    +0.000 S 
ENDBRANCH  17  18
ENDBRANCH  16  17
ENDBRANCH   4  16
TORSDOF 7
ENDMDL
