MODEL 1
REMARK VINA RESULT:      -8.0      0.000      0.000
REMARK  Name = 
REMARK  8 active torsions:
REMARK  status: ('A' for Active; 'I' for Inactive)
REMARK    1  A    between atoms: C_2  and  C_3
REMARK    2  A    between atoms: C_3  and  O_4
REMARK    3  A    between atoms: O_4  and  C_5
REMARK    4  A    between atoms: C_5  and  C_7
REMARK    5  A    between atoms: C_12  and  S_13
REMARK    6  A    between atoms: S_13  and  N_16
REMARK    7  A    between atoms: N_23  and  C_24
REMARK    8  A    between atoms: C_24  and  C_25
REMARK                            x       y       z     vdW  Elec       q    Type
REMARK                         _______ _______ _______ _____ _____    ______ ____
ROOT
ATOM      1  C   UNL     1       2.418   6.953  19.160  0.00  0.00    +0.000 A 
ATOM      2  C   UNL     1       1.621   6.750  20.286  0.00  0.00    +0.000 A 
ATOM      3  C   UNL     1       1.688   5.525  20.956  0.00  0.00    +0.000 A 
ATOM      4  C   UNL     1       2.537   4.492  20.508  0.00  0.00    +0.000 A 
ATOM      5 CL   UNL     1       2.520   3.057  21.467  0.00  0.00    +0.000 Cl
ATOM      6  C   UNL     1       3.305   4.675  19.351  0.00  0.00    +0.000 A 
ATOM      7  C   UNL     1       3.247   5.920  18.702  0.00  0.00    +0.000 A 
ENDROOT
BRANCH   6   8
ATOM      8  S   UNL     1       4.532   3.539  18.712  0.00  0.00    +0.000 S 
ATOM      9  O   UNL     1       4.984   2.747  19.834  0.00  0.00    +0.000 OA
ATOM     10  O   UNL     1       3.977   2.873  17.546  0.00  0.00    +0.000 OA
BRANCH   8  11
ATOM     11  N   UNL     1       5.867   4.487  18.194  0.00  0.00    +0.000 NA
ATOM     12  C   UNL     1       5.819   4.941  16.791  0.00  0.00    +0.000 C 
ATOM     13  C   UNL     1       6.984   5.819  16.363  0.00  0.00    +0.000 C 
ATOM     14  C   UNL     1       7.364   6.865  17.392  0.00  0.00    +0.000 C 
ATOM     15  C   UNL     1       7.660   6.197  18.721  0.00  0.00    +0.000 C 
ATOM     16  C   UNL     1       6.520   5.322  19.228  0.00  0.00    +0.000 C 
ENDBRANCH   8  11
ENDBRANCH   6   8
BRANCH   1  17
ATOM     17  C   UNL     1       2.328   8.241  18.427  0.00  0.00    +0.000 C 
ATOM     18  O   UNL     1       3.158   8.643  17.627  0.00  0.00    +0.000 OA
BRANCH  17  19
ATOM     19  O   UNL     1       1.239   8.913  18.861  0.00  0.00    +0.000 OA
BRANCH  19  20
ATOM     20  C   UNL     1       1.512  10.208  19.383  0.00  0.00    +0.000 C 
BRANCH  20  22
ATOM     21  O   UNL     1      -0.182  11.644  20.385  0.00  0.00    +0.000 OA
ATOM     22  C   UNL     1       0.226  11.049  19.391  0.00  0.00    +0.000 C 
ATOM     23  N   UNL     1      -0.443  11.045  18.187  0.00  0.00    +0.000 N 
ATOM     24  H   UNL     1      -0.077  10.509  17.412  0.00  0.00    +0.000 HD
BRANCH  23  25
ATOM     25  C   UNL     1      -1.687  11.771  17.989  0.00  0.00    +0.000 C 
BRANCH  25  26
ATOM     26  C   UNL     1      -2.950  10.907  18.178  0.00  0.00    +0.000 C 
ATOM     27  C   UNL     1      -4.228  11.561  17.626  0.00  0.00    +0.000 C 
ATOM     28  C   UNL     1      -4.214  11.682  16.104  0.00  0.00    +0.000 C 
ATOM     29  C   UNL     1      -3.970  10.333  15.433  0.00  0.00    +0.000 C 
ATOM     30  C   UNL     1      -2.739   9.617  15.984  0.00  0.00    +0.000 C 
ATOM     31  C   UNL     1      -2.762   9.532  17.511  0.00  0.00    +0.000 C 
ENDBRANCH  25  26
ENDBRANCH  23  25
ENDBRANCH  20  22
ENDBRANCH  19  20
ENDBRANCH  17  19
ENDBRANCH   1  17
TORSDOF 8
ENDMDL
MODEL 2
REMARK VINA RESULT:      -7.9      2.961      8.647
REMARK  Name = 
REMARK  8 active torsions:
REMARK  status: ('A' for Active; 'I' for Inactive)
REMARK    1  A    between atoms: C_2  and  C_3
REMARK    2  A    between atoms: C_3  and  O_4
REMARK    3  A    between atoms: O_4  and  C_5
REMARK    4  A    between atoms: C_5  and  C_7
REMARK    5  A    between atoms: C_12  and  S_13
REMARK    6  A    between atoms: S_13  and  N_16
REMARK    7  A    between atoms: N_23  and  C_24
REMARK    8  A    between atoms: C_24  and  C_25
REMARK                            x       y       z     vdW  Elec       q    Type
REMARK                         _______ _______ _______ _____ _____    ______ ____
ROOT
ATOM      1  C   UNL     1       1.820   6.292  20.141  0.00  0.00    +0.000 A 
ATOM      2  C   UNL     1       2.446   6.475  18.908  0.00  0.00    +0.000 A 
ATOM      3  C   UNL     1       2.482   7.754  18.347  0.00  0.00    +0.000 A 
ATOM      4  C   UNL     1       1.889   8.856  18.998  0.00  0.00    +0.000 A 
ATOM      5 CL   UNL     1       2.050  10.368  18.180  0.00  0.00    +0.000 Cl
ATOM      6  C   UNL     1       1.219   8.669  20.213  0.00  0.00    +0.000 A 
ATOM      7  C   UNL     1       1.212   7.382  20.779  0.00  0.00    +0.000 A 
ENDROOT
BRANCH   6   8
ATOM      8  S   UNL     1       0.529   9.958  21.245  0.00  0.00    +0.000 S 
ATOM      9  O   UNL     1      -0.235   9.295  22.277  0.00  0.00    +0.000 OA
ATOM     10  O   UNL     1       1.600  10.866  21.621  0.00  0.00    +0.000 OA
BRANCH   8  11
ATOM     11  N   UNL     1      -0.587  10.831  20.274  0.00  0.00    +0.000 NA
ATOM     12  C   UNL     1      -0.285  12.263  20.088  0.00  0.00    +0.000 C 
ATOM     13  C   UNL     1      -1.254  13.010  19.186  0.00  0.00    +0.000 C 
ATOM     14  C   UNL     1      -1.637  12.238  17.938  0.00  0.00    +0.000 C 
ATOM     15  C   UNL     1      -2.199  10.884  18.321  0.00  0.00    +0.000 C 
ATOM     16  C   UNL     1      -1.264  10.065  19.203  0.00  0.00    +0.000 C 
ENDBRANCH   8  11
ENDBRANCH   6   8
BRANCH   1  17
ATOM     17  C   UNL     1       1.751   4.930  20.728  0.00  0.00    +0.000 C 
ATOM     18  O   UNL     1       2.400   4.557  21.693  0.00  0.00    +0.000 OA
BRANCH  17  19
ATOM     19  O   UNL     1       0.934   4.169  19.966  0.00  0.00    +0.000 OA
BRANCH  19  20
ATOM     20  C   UNL     1       1.471   2.901  19.607  0.00  0.00    +0.000 C 
BRANCH  20  22
ATOM     21  O   UNL     1       1.629   2.945  17.176  0.00  0.00    +0.000 OA
ATOM     22  C   UNL     1       2.203   3.008  18.260  0.00  0.00    +0.000 C 
ATOM     23  N   UNL     1       3.567   3.148  18.384  0.00  0.00    +0.000 N 
ATOM     24  H   UNL     1       3.990   3.158  19.303  0.00  0.00    +0.000 HD
BRANCH  23  25
ATOM     25  C   UNL     1       4.444   3.255  17.228  0.00  0.00    +0.000 C 
BRANCH  25  26
ATOM     26  C   UNL     1       4.680   4.705  16.758  0.00  0.00    +0.000 C 
ATOM     27  C   UNL     1       5.850   5.399  17.477  0.00  0.00    +0.000 C 
ATOM     28  C   UNL     1       7.202   4.782  17.126  0.00  0.00    +0.000 C 
ATOM     29  C   UNL     1       7.437   4.759  15.618  0.00  0.00    +0.000 C 
ATOM     30  C   UNL     1       6.278   4.126  14.853  0.00  0.00    +0.000 C 
ATOM     31  C   UNL     1       4.932   4.741  15.240  0.00  0.00    +0.000 C 
ENDBRANCH  25  26
ENDBRANCH  23  25
ENDBRANCH  20  22
ENDBRANCH  19  20
ENDBRANCH  17  19
ENDBRANCH   1  17
TORSDOF 8
ENDMDL
MODEL 3
REMARK VINA RESULT:      -7.9      2.999      9.081
REMARK  Name = 
REMARK  8 active torsions:
REMARK  status: ('A' for Active; 'I' for Inactive)
REMARK    1  A    between atoms: C_2  and  C_3
REMARK    2  A    between atoms: C_3  and  O_4
REMARK    3  A    between atoms: O_4  and  C_5
REMARK    4  A    between atoms: C_5  and  C_7
REMARK    5  A    between atoms: C_12  and  S_13
REMARK    6  A    between atoms: S_13  and  N_16
REMARK    7  A    between atoms: N_23  and  C_24
REMARK    8  A    between atoms: C_24  and  C_25
REMARK                            x       y       z     vdW  Elec       q    Type
REMARK                         _______ _______ _______ _____ _____    ______ ____
ROOT
ATOM      1  C   UNL     1       1.238   8.650  20.383  0.00  0.00    +0.000 A 
ATOM      2  C   UNL     1       1.058   8.444  21.751  0.00  0.00    +0.000 A 
ATOM      3  C   UNL     1       0.286   9.352  22.481  0.00  0.00    +0.000 A 
ATOM      4  C   UNL     1      -0.301  10.475  21.862  0.00  0.00    +0.000 A 
ATOM      5 CL   UNL     1      -1.246  11.478  22.902  0.00  0.00    +0.000 Cl
ATOM      6  C   UNL     1      -0.085  10.712  20.499  0.00  0.00    +0.000 A 
ATOM      7  C   UNL     1       0.671   9.777  19.772  0.00  0.00    +0.000 A 
ENDROOT
BRANCH   6   8
ATOM      8  S   UNL     1      -0.854  11.997  19.519  0.00  0.00    +0.000 S 
ATOM      9  O   UNL     1      -1.402  12.954  20.453  0.00  0.00    +0.000 OA
ATOM     10  O   UNL     1       0.100  12.443  18.518  0.00  0.00    +0.000 OA
BRANCH   8  11
ATOM     11  N   UNL     1      -2.180  11.275  18.700  0.00  0.00    +0.000 NA
ATOM     12  C   UNL     1      -3.483  11.941  18.886  0.00  0.00    +0.000 C 
ATOM     13  C   UNL     1      -4.636  11.319  18.116  0.00  0.00    +0.000 C 
ATOM     14  C   UNL     1      -4.277  10.936  16.693  0.00  0.00    +0.000 C 
ATOM     15  C   UNL     1      -3.076  10.011  16.696  0.00  0.00    +0.000 C 
ATOM     16  C   UNL     1      -1.868  10.585  17.427  0.00  0.00    +0.000 C 
ENDBRANCH   8  11
ENDBRANCH   6   8
BRANCH   1  17
ATOM     17  C   UNL     1       2.082   7.705  19.609  0.00  0.00    +0.000 C 
ATOM     18  O   UNL     1       2.385   7.848  18.435  0.00  0.00    +0.000 OA
BRANCH  17  19
ATOM     19  O   UNL     1       2.369   6.640  20.390  0.00  0.00    +0.000 OA
BRANCH  19  20
ATOM     20  C   UNL     1       1.876   5.398  19.902  0.00  0.00    +0.000 C 
BRANCH  20  22
ATOM     21  O   UNL     1       2.917   3.359  19.070  0.00  0.00    +0.000 OA
ATOM     22  C   UNL     1       3.042   4.538  19.392  0.00  0.00    +0.000 C 
ATOM     23  N   UNL     1       4.246   5.205  19.359  0.00  0.00    +0.000 N 
ATOM     24  H   UNL     1       4.296   6.166  19.668  0.00  0.00    +0.000 HD
BRANCH  23  25
ATOM     25  C   UNL     1       5.475   4.566  18.916  0.00  0.00    +0.000 C 
BRANCH  25  26
ATOM     26  C   UNL     1       6.466   5.529  18.231  0.00  0.00    +0.000 C 
ATOM     27  C   UNL     1       7.439   4.824  17.270  0.00  0.00    +0.000 C 
ATOM     28  C   UNL     1       6.736   4.249  16.043  0.00  0.00    +0.000 C 
ATOM     29  C   UNL     1       5.928   5.313  15.304  0.00  0.00    +0.000 C 
ATOM     30  C   UNL     1       4.983   6.079  16.226  0.00  0.00    +0.000 C 
ATOM     31  C   UNL     1       5.704   6.622  17.461  0.00  0.00    +0.000 C 
ENDBRANCH  25  26
ENDBRANCH  23  25
ENDBRANCH  20  22
ENDBRANCH  19  20
ENDBRANCH  17  19
ENDBRANCH   1  17
TORSDOF 8
ENDMDL
MODEL 4
REMARK VINA RESULT:      -7.9      2.273      3.425
REMARK  Name = 
REMARK  8 active torsions:
REMARK  status: ('A' for Active; 'I' for Inactive)
REMARK    1  A    between atoms: C_2  and  C_3
REMARK    2  A    between atoms: C_3  and  O_4
REMARK    3  A    between atoms: O_4  and  C_5
REMARK    4  A    between atoms: C_5  and  C_7
REMARK    5  A    between atoms: C_12  and  S_13
REMARK    6  A    between atoms: S_13  and  N_16
REMARK    7  A    between atoms: N_23  and  C_24
REMARK    8  A    between atoms: C_24  and  C_25
REMARK                            x       y       z     vdW  Elec       q    Type
REMARK                         _______ _______ _______ _____ _____    ______ ____
ROOT
ATOM      1  C   UNL     1       2.285   6.992  19.209  0.00  0.00    +0.000 A 
ATOM      2  C   UNL     1       1.558   6.789  20.382  0.00  0.00    +0.000 A 
ATOM      3  C   UNL     1       1.652   5.558  21.036  0.00  0.00    +0.000 A 
ATOM      4  C   UNL     1       2.456   4.518  20.526  0.00  0.00    +0.000 A 
ATOM      5 CL   UNL     1       2.481   3.074  21.472  0.00  0.00    +0.000 Cl
ATOM      6  C   UNL     1       3.151   4.700  19.323  0.00  0.00    +0.000 A 
ATOM      7  C   UNL     1       3.068   5.952  18.690  0.00  0.00    +0.000 A 
ENDROOT
BRANCH   6   8
ATOM      8  S   UNL     1       4.318   3.555  18.598  0.00  0.00    +0.000 S 
ATOM      9  O   UNL     1       5.303   3.270  19.617  0.00  0.00    +0.000 OA
ATOM     10  O   UNL     1       3.575   2.460  17.999  0.00  0.00    +0.000 OA
BRANCH   8  11
ATOM     11  N   UNL     1       5.126   4.397  17.338  0.00  0.00    +0.000 NA
ATOM     12  C   UNL     1       6.482   4.882  17.663  0.00  0.00    +0.000 C 
ATOM     13  C   UNL     1       7.202   5.581  16.522  0.00  0.00    +0.000 C 
ATOM     14  C   UNL     1       7.043   4.882  15.186  0.00  0.00    +0.000 C 
ATOM     15  C   UNL     1       5.572   4.712  14.864  0.00  0.00    +0.000 C 
ATOM     16  C   UNL     1       4.790   3.988  15.955  0.00  0.00    +0.000 C 
ENDBRANCH   8  11
ENDBRANCH   6   8
BRANCH   1  17
ATOM     17  C   UNL     1       2.165   8.287  18.493  0.00  0.00    +0.000 C 
ATOM     18  O   UNL     1       2.672   8.530  17.409  0.00  0.00    +0.000 OA
BRANCH  17  19
ATOM     19  O   UNL     1       1.491   9.157  19.279  0.00  0.00    +0.000 OA
BRANCH  19  20
ATOM     20  C   UNL     1       1.175  10.396  18.654  0.00  0.00    +0.000 C 
BRANCH  20  22
ATOM     21  O   UNL     1      -1.246  10.211  18.849  0.00  0.00    +0.000 OA
ATOM     22  C   UNL     1      -0.226  10.854  19.085  0.00  0.00    +0.000 C 
ATOM     23  N   UNL     1      -0.235  12.069  19.732  0.00  0.00    +0.000 N 
ATOM     24  H   UNL     1       0.633  12.571  19.869  0.00  0.00    +0.000 HD
BRANCH  23  25
ATOM     25  C   UNL     1      -1.462  12.684  20.212  0.00  0.00    +0.000 C 
BRANCH  25  26
ATOM     26  C   UNL     1      -1.957  12.119  21.559  0.00  0.00    +0.000 C 
ATOM     27  C   UNL     1      -1.024  12.442  22.739  0.00  0.00    +0.000 C 
ATOM     28  C   UNL     1      -0.994  13.932  23.071  0.00  0.00    +0.000 C 
ATOM     29  C   UNL     1      -2.395  14.482  23.329  0.00  0.00    +0.000 C 
ATOM     30  C   UNL     1      -3.375  14.141  22.208  0.00  0.00    +0.000 C 
ATOM     31  C   UNL     1      -3.368  12.648  21.875  0.00  0.00    +0.000 C 
ENDBRANCH  25  26
ENDBRANCH  23  25
ENDBRANCH  20  22
ENDBRANCH  19  20
ENDBRANCH  17  19
ENDBRANCH   1  17
TORSDOF 8
ENDMDL
MODEL 5
REMARK VINA RESULT:      -7.8      3.362      9.600
REMARK  Name = 
REMARK  8 active torsions:
REMARK  status: ('A' for Active; 'I' for Inactive)
REMARK    1  A    between atoms: C_2  and  C_3
REMARK    2  A    between atoms: C_3  and  O_4
REMARK    3  A    between atoms: O_4  and  C_5
REMARK    4  A    between atoms: C_5  and  C_7
REMARK    5  A    between atoms: C_12  and  S_13
REMARK    6  A    between atoms: S_13  and  N_16
REMARK    7  A    between atoms: N_23  and  C_24
REMARK    8  A    between atoms: C_24  and  C_25
REMARK                            x       y       z     vdW  Elec       q    Type
REMARK                         _______ _______ _______ _____ _____    ______ ____
ROOT
ATOM      1  C   UNL     1       0.717   9.118  20.847  0.00  0.00    +0.000 A 
ATOM      2  C   UNL     1       0.412   8.870  22.186  0.00  0.00    +0.000 A 
ATOM      3  C   UNL     1      -0.435   9.750  22.865  0.00  0.00    +0.000 A 
ATOM      4  C   UNL     1      -0.976  10.885  22.225  0.00  0.00    +0.000 A 
ATOM      5 CL   UNL     1      -2.026  11.848  23.200  0.00  0.00    +0.000 Cl
ATOM      6  C   UNL     1      -0.637  11.163  20.895  0.00  0.00    +0.000 A 
ATOM      7  C   UNL     1       0.196  10.256  20.217  0.00  0.00    +0.000 A 
ENDROOT
BRANCH   6   8
ATOM      8  S   UNL     1      -1.326  12.468  19.884  0.00  0.00    +0.000 S 
ATOM      9  O   UNL     1      -1.305  13.668  20.690  0.00  0.00    +0.000 OA
ATOM     10  O   UNL     1      -0.647  12.460  18.599  0.00  0.00    +0.000 OA
BRANCH   8  11
ATOM     11  N   UNL     1      -2.975  12.071  19.612  0.00  0.00    +0.000 NA
ATOM     12  C   UNL     1      -3.956  12.881  20.361  0.00  0.00    +0.000 C 
ATOM     13  C   UNL     1      -5.411  12.550  20.072  0.00  0.00    +0.000 C 
ATOM     14  C   UNL     1      -5.703  12.337  18.600  0.00  0.00    +0.000 C 
ATOM     15  C   UNL     1      -4.791  11.261  18.044  0.00  0.00    +0.000 C 
ATOM     16  C   UNL     1      -3.310  11.543  18.271  0.00  0.00    +0.000 C 
ENDBRANCH   8  11
ENDBRANCH   6   8
BRANCH   1  17
ATOM     17  C   UNL     1       1.641   8.204  20.130  0.00  0.00    +0.000 C 
ATOM     18  O   UNL     1       1.946   8.310  18.952  0.00  0.00    +0.000 OA
BRANCH  17  19
ATOM     19  O   UNL     1       2.002   7.206  20.967  0.00  0.00    +0.000 OA
BRANCH  19  20
ATOM     20  C   UNL     1       1.590   5.909  20.554  0.00  0.00    +0.000 C 
BRANCH  20  22
ATOM     21  O   UNL     1       2.848   3.891  20.028  0.00  0.00    +0.000 OA
ATOM     22  C   UNL     1       2.799   5.118  20.034  0.00  0.00    +0.000 C 
ATOM     23  N   UNL     1       3.836   5.915  19.604  0.00  0.00    +0.000 N 
ATOM     24  H   UNL     1       3.754   6.921  19.664  0.00  0.00    +0.000 HD
BRANCH  23  25
ATOM     25  C   UNL     1       5.076   5.361  19.084  0.00  0.00    +0.000 C 
BRANCH  25  26
ATOM     26  C   UNL     1       5.721   6.214  17.972  0.00  0.00    +0.000 C 
ATOM     27  C   UNL     1       7.214   5.914  17.759  0.00  0.00    +0.000 C 
ATOM     28  C   UNL     1       7.457   4.516  17.196  0.00  0.00    +0.000 C 
ATOM     29  C   UNL     1       6.674   4.282  15.906  0.00  0.00    +0.000 C 
ATOM     30  C   UNL     1       5.191   4.616  16.051  0.00  0.00    +0.000 C 
ATOM     31  C   UNL     1       4.973   6.011  16.641  0.00  0.00    +0.000 C 
ENDBRANCH  25  26
ENDBRANCH  23  25
ENDBRANCH  20  22
ENDBRANCH  19  20
ENDBRANCH  17  19
ENDBRANCH   1  17
TORSDOF 8
ENDMDL
MODEL 6
REMARK VINA RESULT:      -7.7      3.052      9.280
REMARK  Name = 
REMARK  8 active torsions:
REMARK  status: ('A' for Active; 'I' for Inactive)
REMARK    1  A    between atoms: C_2  and  C_3
REMARK    2  A    between atoms: C_3  and  O_4
REMARK    3  A    between atoms: O_4  and  C_5
REMARK    4  A    between atoms: C_5  and  C_7
REMARK    5  A    between atoms: C_12  and  S_13
REMARK    6  A    between atoms: S_13  and  N_16
REMARK    7  A    between atoms: N_23  and  C_24
REMARK    8  A    between atoms: C_24  and  C_25
REMARK                            x       y       z     vdW  Elec       q    Type
REMARK                         _______ _______ _______ _____ _____    ______ ____
ROOT
ATOM      1  C   UNL     1       1.325   8.727  20.031  0.00  0.00    +0.000 A 
ATOM      2  C   UNL     1       1.124   8.312  21.348  0.00  0.00    +0.000 A 
ATOM      3  C   UNL     1       0.367   9.115  22.206  0.00  0.00    +0.000 A 
ATOM      4  C   UNL     1      -0.185  10.337  21.767  0.00  0.00    +0.000 A 
ATOM      5 CL   UNL     1      -1.116  11.188  22.945  0.00  0.00    +0.000 Cl
ATOM      6  C   UNL     1       0.053  10.779  20.460  0.00  0.00    +0.000 A 
ATOM      7  C   UNL     1       0.795   9.951  19.601  0.00  0.00    +0.000 A 
ENDROOT
BRANCH   6   8
ATOM      8  S   UNL     1      -0.670  12.223  19.689  0.00  0.00    +0.000 S 
ATOM      9  O   UNL     1      -0.489  13.318  20.616  0.00  0.00    +0.000 OA
ATOM     10  O   UNL     1      -0.143  12.336  18.340  0.00  0.00    +0.000 OA
BRANCH   8  11
ATOM     11  N   UNL     1      -2.359  11.934  19.574  0.00  0.00    +0.000 NA
ATOM     12  C   UNL     1      -3.213  12.814  20.394  0.00  0.00    +0.000 C 
ATOM     13  C   UNL     1      -4.707  12.578  20.243  0.00  0.00    +0.000 C 
ATOM     14  C   UNL     1      -5.145  12.368  18.807  0.00  0.00    +0.000 C 
ATOM     15  C   UNL     1      -4.360  11.228  18.189  0.00  0.00    +0.000 C 
ATOM     16  C   UNL     1      -2.849  11.414  18.277  0.00  0.00    +0.000 C 
ENDBRANCH   8  11
ENDBRANCH   6   8
BRANCH   1  17
ATOM     17  C   UNL     1       2.154   7.893  19.124  0.00  0.00    +0.000 C 
ATOM     18  O   UNL     1       2.335   8.126  17.940  0.00  0.00    +0.000 OA
BRANCH  17  19
ATOM     19  O   UNL     1       2.586   6.808  19.805  0.00  0.00    +0.000 OA
BRANCH  19  20
ATOM     20  C   UNL     1       1.854   5.616  19.543  0.00  0.00    +0.000 C 
BRANCH  20  22
ATOM     21  O   UNL     1       2.961   3.448  19.447  0.00  0.00    +0.000 OA
ATOM     22  C   UNL     1       2.787   4.554  18.941  0.00  0.00    +0.000 C 
ATOM     23  N   UNL     1       3.434   4.970  17.800  0.00  0.00    +0.000 N 
ATOM     24  H   UNL     1       3.278   5.906  17.448  0.00  0.00    +0.000 HD
BRANCH  23  25
ATOM     25  C   UNL     1       4.368   4.118  17.082  0.00  0.00    +0.000 C 
BRANCH  25  26
ATOM     26  C   UNL     1       5.172   4.854  15.992  0.00  0.00    +0.000 C 
ATOM     27  C   UNL     1       5.126   6.386  16.127  0.00  0.00    +0.000 C 
ATOM     28  C   UNL     1       5.850   6.886  17.375  0.00  0.00    +0.000 C 
ATOM     29  C   UNL     1       7.292   6.386  17.431  0.00  0.00    +0.000 C 
ATOM     30  C   UNL     1       7.395   4.874  17.248  0.00  0.00    +0.000 C 
ATOM     31  C   UNL     1       6.641   4.393  16.007  0.00  0.00    +0.000 C 
ENDBRANCH  25  26
ENDBRANCH  23  25
ENDBRANCH  20  22
ENDBRANCH  19  20
ENDBRANCH  17  19
ENDBRANCH   1  17
TORSDOF 8
ENDMDL
MODEL 7
REMARK VINA RESULT:      -7.7      3.848      9.380
REMARK  Name = 
REMARK  8 active torsions:
REMARK  status: ('A' for Active; 'I' for Inactive)
REMARK    1  A    between atoms: C_2  and  C_3
REMARK    2  A    between atoms: C_3  and  O_4
REMARK    3  A    between atoms: O_4  and  C_5
REMARK    4  A    between atoms: C_5  and  C_7
REMARK    5  A    between atoms: C_12  and  S_13
REMARK    6  A    between atoms: S_13  and  N_16
REMARK    7  A    between atoms: N_23  and  C_24
REMARK    8  A    between atoms: C_24  and  C_25
REMARK                            x       y       z     vdW  Elec       q    Type
REMARK                         _______ _______ _______ _____ _____    ______ ____
ROOT
ATOM      1  C   UNL     1       0.434   9.360  21.015  0.00  0.00    +0.000 A 
ATOM      2  C   UNL     1       0.143   9.261  22.375  0.00  0.00    +0.000 A 
ATOM      3  C   UNL     1      -0.694  10.212  22.964  0.00  0.00    +0.000 A 
ATOM      4  C   UNL     1      -1.239  11.273  22.211  0.00  0.00    +0.000 A 
ATOM      5 CL   UNL     1      -2.276  12.341  23.086  0.00  0.00    +0.000 Cl
ATOM      6  C   UNL     1      -0.914  11.404  20.855  0.00  0.00    +0.000 A 
ATOM      7  C   UNL     1      -0.091  10.426  20.270  0.00  0.00    +0.000 A 
ENDROOT
BRANCH   6   8
ATOM      8  S   UNL     1      -1.610  12.594  19.715  0.00  0.00    +0.000 S 
ATOM      9  O   UNL     1      -1.753  13.832  20.449  0.00  0.00    +0.000 OA
ATOM     10  O   UNL     1      -0.823  12.576  18.494  0.00  0.00    +0.000 OA
BRANCH   8  11
ATOM     11  N   UNL     1      -3.193  12.050  19.331  0.00  0.00    +0.000 NA
ATOM     12  C   UNL     1      -4.291  12.734  20.043  0.00  0.00    +0.000 C 
ATOM     13  C   UNL     1      -5.687  12.275  19.656  0.00  0.00    +0.000 C 
ATOM     14  C   UNL     1      -5.872  12.088  18.162  0.00  0.00    +0.000 C 
ATOM     15  C   UNL     1      -4.827  11.126  17.631  0.00  0.00    +0.000 C 
ATOM     16  C   UNL     1      -3.397  11.541  17.956  0.00  0.00    +0.000 C 
ENDBRANCH   8  11
ENDBRANCH   6   8
BRANCH   1  17
ATOM     17  C   UNL     1       1.347   8.370  20.391  0.00  0.00    +0.000 C 
ATOM     18  O   UNL     1       1.597   7.269  20.855  0.00  0.00    +0.000 OA
BRANCH  17  19
ATOM     19  O   UNL     1       1.909   8.928  19.295  0.00  0.00    +0.000 OA
BRANCH  19  20
ATOM     20  C   UNL     1       1.711   8.195  18.092  0.00  0.00    +0.000 C 
BRANCH  20  22
ATOM     21  O   UNL     1       3.926   7.251  17.720  0.00  0.00    +0.000 OA
ATOM     22  C   UNL     1       2.744   7.062  17.995  0.00  0.00    +0.000 C 
ATOM     23  N   UNL     1       2.212   5.811  18.215  0.00  0.00    +0.000 N 
ATOM     24  H   UNL     1       1.224   5.712  18.404  0.00  0.00    +0.000 HD
BRANCH  23  25
ATOM     25  C   UNL     1       3.021   4.604  18.159  0.00  0.00    +0.000 C 
BRANCH  25  26
ATOM     26  C   UNL     1       2.220   3.307  18.390  0.00  0.00    +0.000 C 
ATOM     27  C   UNL     1       3.060   2.166  18.989  0.00  0.00    +0.000 C 
ATOM     28  C   UNL     1       3.511   2.459  20.418  0.00  0.00    +0.000 C 
ATOM     29  C   UNL     1       2.329   2.787  21.327  0.00  0.00    +0.000 C 
ATOM     30  C   UNL     1       1.432   3.880  20.751  0.00  0.00    +0.000 C 
ATOM     31  C   UNL     1       1.015   3.578  19.310  0.00  0.00    +0.000 C 
ENDBRANCH  25  26
ENDBRANCH  23  25
ENDBRANCH  20  22
ENDBRANCH  19  20
ENDBRANCH  17  19
ENDBRANCH   1  17
TORSDOF 8
ENDMDL
MODEL 8
REMARK VINA RESULT:      -7.7      2.423      3.339
REMARK  Name = 
REMARK  8 active torsions:
REMARK  status: ('A' for Active; 'I' for Inactive)
REMARK    1  A    between atoms: C_2  and  C_3
REMARK    2  A    between atoms: C_3  and  O_4
REMARK    3  A    between atoms: O_4  and  C_5
REMARK    4  A    between atoms: C_5  and  C_7
REMARK    5  A    between atoms: C_12  and  S_13
REMARK    6  A    between atoms: S_13  and  N_16
REMARK    7  A    between atoms: N_23  and  C_24
REMARK    8  A    between atoms: C_24  and  C_25
REMARK                            x       y       z     vdW  Elec       q    Type
REMARK                         _______ _______ _______ _____ _____    ______ ____
ROOT
ATOM      1  C   UNL     1       2.252   7.173  18.889  0.00  0.00    +0.000 A 
ATOM      2  C   UNL     1       1.835   7.170  20.220  0.00  0.00    +0.000 A 
ATOM      3  C   UNL     1       1.795   5.960  20.919  0.00  0.00    +0.000 A 
ATOM      4  C   UNL     1       2.157   4.746  20.299  0.00  0.00    +0.000 A 
ATOM      5 CL   UNL     1       2.080   3.351  21.313  0.00  0.00    +0.000 Cl
ATOM      6  C   UNL     1       2.532   4.738  18.950  0.00  0.00    +0.000 A 
ATOM      7  C   UNL     1       2.592   5.965  18.267  0.00  0.00    +0.000 A 
ENDROOT
BRANCH   6   8
ATOM      8  S   UNL     1       3.151   3.328  18.038  0.00  0.00    +0.000 S 
ATOM      9  O   UNL     1       3.270   2.244  18.987  0.00  0.00    +0.000 OA
ATOM     10  O   UNL     1       2.329   3.150  16.853  0.00  0.00    +0.000 OA
BRANCH   8  11
ATOM     11  N   UNL     1       4.741   3.725  17.523  0.00  0.00    +0.000 NA
ATOM     12  C   UNL     1       4.882   4.063  16.094  0.00  0.00    +0.000 C 
ATOM     13  C   UNL     1       6.285   4.460  15.666  0.00  0.00    +0.000 C 
ATOM     14  C   UNL     1       6.978   5.387  16.645  0.00  0.00    +0.000 C 
ATOM     15  C   UNL     1       6.999   4.759  18.024  0.00  0.00    +0.000 C 
ATOM     16  C   UNL     1       5.617   4.363  18.532  0.00  0.00    +0.000 C 
ENDBRANCH   8  11
ENDBRANCH   6   8
BRANCH   1  17
ATOM     17  C   UNL     1       2.266   8.451  18.134  0.00  0.00    +0.000 C 
ATOM     18  O   UNL     1       2.952   8.666  17.147  0.00  0.00    +0.000 OA
BRANCH  17  19
ATOM     19  O   UNL     1       1.475   9.342  18.772  0.00  0.00    +0.000 OA
BRANCH  19  20
ATOM     20  C   UNL     1       1.516  10.660  18.237  0.00  0.00    +0.000 C 
BRANCH  20  22
ATOM     21  O   UNL     1       0.835  12.812  19.152  0.00  0.00    +0.000 OA
ATOM     22  C   UNL     1       0.656  11.599  19.096  0.00  0.00    +0.000 C 
ATOM     23  N   UNL     1      -0.315  10.947  19.823  0.00  0.00    +0.000 N 
ATOM     24  H   UNL     1      -0.395   9.940  19.764  0.00  0.00    +0.000 HD
BRANCH  23  25
ATOM     25  C   UNL     1      -1.229  11.653  20.706  0.00  0.00    +0.000 C 
BRANCH  25  26
ATOM     26  C   UNL     1      -0.647  11.938  22.106  0.00  0.00    +0.000 C 
ATOM     27  C   UNL     1      -0.444  13.436  22.392  0.00  0.00    +0.000 C 
ATOM     28  C   UNL     1      -1.764  14.197  22.492  0.00  0.00    +0.000 C 
ATOM     29  C   UNL     1      -2.697  13.575  23.529  0.00  0.00    +0.000 C 
ATOM     30  C   UNL     1      -2.890  12.075  23.320  0.00  0.00    +0.000 C 
ATOM     31  C   UNL     1      -1.555  11.338  23.195  0.00  0.00    +0.000 C 
ENDBRANCH  25  26
ENDBRANCH  23  25
ENDBRANCH  20  22
ENDBRANCH  19  20
ENDBRANCH  17  19
ENDBRANCH   1  17
TORSDOF 8
ENDMDL
MODEL 9
REMARK VINA RESULT:      -7.7      2.046      2.911
REMARK  Name = 
REMARK  8 active torsions:
REMARK  status: ('A' for Active; 'I' for Inactive)
REMARK    1  A    between atoms: C_2  and  C_3
REMARK    2  A    between atoms: C_3  and  O_4
REMARK    3  A    between atoms: O_4  and  C_5
REMARK    4  A    between atoms: C_5  and  C_7
REMARK    5  A    between atoms: C_12  and  S_13
REMARK    6  A    between atoms: S_13  and  N_16
REMARK    7  A    between atoms: N_23  and  C_24
REMARK    8  A    between atoms: C_24  and  C_25
REMARK                            x       y       z     vdW  Elec       q    Type
REMARK                         _______ _______ _______ _____ _____    ______ ____
ROOT
ATOM      1  C   UNL     1       2.430   6.595  19.279  0.00  0.00    +0.000 A 
ATOM      2  C   UNL     1       1.634   6.443  20.415  0.00  0.00    +0.000 A 
ATOM      3  C   UNL     1       1.629   5.215  21.083  0.00  0.00    +0.000 A 
ATOM      4  C   UNL     1       2.404   4.129  20.623  0.00  0.00    +0.000 A 
ATOM      5 CL   UNL     1       2.304   2.696  21.581  0.00  0.00    +0.000 Cl
ATOM      6  C   UNL     1       3.168   4.263  19.457  0.00  0.00    +0.000 A 
ATOM      7  C   UNL     1       3.183   5.511  18.810  0.00  0.00    +0.000 A 
ENDROOT
BRANCH   6   8
ATOM      8  S   UNL     1       4.310   3.051  18.802  0.00  0.00    +0.000 S 
ATOM      9  O   UNL     1       5.050   2.531  19.930  0.00  0.00    +0.000 OA
ATOM     10  O   UNL     1       3.569   2.135  17.951  0.00  0.00    +0.000 OA
BRANCH   8  11
ATOM     11  N   UNL     1       5.428   3.902  17.814  0.00  0.00    +0.000 NA
ATOM     12  C   UNL     1       4.981   4.174  16.435  0.00  0.00    +0.000 C 
ATOM     13  C   UNL     1       5.962   4.971  15.590  0.00  0.00    +0.000 C 
ATOM     14  C   UNL     1       6.595   6.133  16.330  0.00  0.00    +0.000 C 
ATOM     15  C   UNL     1       7.264   5.635  17.596  0.00  0.00    +0.000 C 
ATOM     16  C   UNL     1       6.328   4.851  18.509  0.00  0.00    +0.000 C 
ENDBRANCH   8  11
ENDBRANCH   6   8
BRANCH   1  17
ATOM     17  C   UNL     1       2.415   7.888  18.549  0.00  0.00    +0.000 C 
ATOM     18  O   UNL     1       2.859   8.053  17.424  0.00  0.00    +0.000 OA
BRANCH  17  19
ATOM     19  O   UNL     1       1.920   8.843  19.366  0.00  0.00    +0.000 OA
BRANCH  19  20
ATOM     20  C   UNL     1       1.120   9.823  18.715  0.00  0.00    +0.000 C 
BRANCH  20  22
ATOM     21  O   UNL     1      -0.495   9.446  20.499  0.00  0.00    +0.000 OA
ATOM     22  C   UNL     1      -0.098  10.165  19.586  0.00  0.00    +0.000 C 
ATOM     23  N   UNL     1      -0.721  11.339  19.227  0.00  0.00    +0.000 N 
ATOM     24  H   UNL     1      -0.370  11.874  18.444  0.00  0.00    +0.000 HD
BRANCH  23  25
ATOM     25  C   UNL     1      -1.898  11.837  19.920  0.00  0.00    +0.000 C 
BRANCH  25  26
ATOM     26  C   UNL     1      -1.607  13.005  20.884  0.00  0.00    +0.000 C 
ATOM     27  C   UNL     1      -2.868  13.774  21.313  0.00  0.00    +0.000 C 
ATOM     28  C   UNL     1      -3.798  12.935  22.186  0.00  0.00    +0.000 C 
ATOM     29  C   UNL     1      -3.072  12.372  23.406  0.00  0.00    +0.000 C 
ATOM     30  C   UNL     1      -1.783  11.642  23.037  0.00  0.00    +0.000 C 
ATOM     31  C   UNL     1      -0.880  12.492  22.141  0.00  0.00    +0.000 C 
ENDBRANCH  25  26
ENDBRANCH  23  25
ENDBRANCH  20  22
ENDBRANCH  19  20
ENDBRANCH  17  19
ENDBRANCH   1  17
TORSDOF 8
ENDMDL
