MODEL 1
REMARK VINA RESULT:      -8.4      0.000      0.000
REMARK  Name = 
REMARK  11 active torsions:
REMARK  status: ('A' for Active; 'I' for Inactive)
REMARK    1  A    between atoms: C_1  and  C_2
REMARK    2  A    between atoms: C_2  and  N_3
REMARK    3  A    between atoms: N_3  and  C_4
REMARK    4  A    between atoms: C_4  and  C_5
REMARK    5  A    between atoms: C_9  and  O_10
REMARK    6  A    between atoms: O_10  and  C_11
REMARK    7  A    between atoms: C_13  and  C_15
REMARK    8  A    between atoms: C_15  and  N_16
REMARK    9  A    between atoms: C_25  and  C_26
REMARK   10  A    between atoms: C_29  and  O_30
REMARK   11  A    between atoms: O_30  and  C_31
REMARK                            x       y       z     vdW  Elec       q    Type
REMARK                         _______ _______ _______ _____ _____    ______ ____
ROOT
ATOM      1  N   UNL     1       6.288   4.698  18.145  0.00  0.00    +0.000 N 
ATOM      2  C   UNL     1       6.039   4.495  16.794  0.00  0.00    +0.000 A 
ATOM      3  C   UNL     1       5.205   3.591  16.128  0.00  0.00    +0.000 A 
ATOM      4  C   UNL     1       5.146   3.672  14.730  0.00  0.00    +0.000 A 
ATOM      5  C   UNL     1       5.838   4.656  14.034  0.00  0.00    +0.000 A 
ATOM      6  C   UNL     1       6.597   5.604  14.721  0.00  0.00    +0.000 A 
ATOM      7  C   UNL     1       6.715   5.508  16.119  0.00  0.00    +0.000 A 
ATOM      8  C   UNL     1       7.327   6.311  17.111  0.00  0.00    +0.000 A 
ATOM      9  C   UNL     1       7.831   7.607  17.141  0.00  0.00    +0.000 A 
ATOM     10  C   UNL     1       8.332   8.126  18.349  0.00  0.00    +0.000 A 
ATOM     11  C   UNL     1       8.581   7.260  19.422  0.00  0.00    +0.000 A 
ATOM     12  C   UNL     1       8.097   5.951  19.412  0.00  0.00    +0.000 A 
ATOM     13  C   UNL     1       7.347   5.580  18.290  0.00  0.00    +0.000 A 
ENDROOT
BRANCH  10  14
ATOM     14  C   UNL     1       8.514   9.573  18.431  0.00  0.00    +0.000 A 
ATOM     15  C   UNL     1       7.838  10.403  17.513  0.00  0.00    +0.000 A 
ATOM     16  C   UNL     1       8.163  11.748  17.401  0.00  0.00    +0.000 A 
ATOM     17  C   UNL     1       9.120  12.297  18.248  0.00  0.00    +0.000 A 
ATOM     18  C   UNL     1       9.714  11.500  19.231  0.00  0.00    +0.000 A 
ATOM     19  C   UNL     1       9.412  10.150  19.328  0.00  0.00    +0.000 A 
BRANCH  17  20
ATOM     20  O   UNL     1       9.434  13.602  17.991  0.00  0.00    +0.000 OA
ATOM     21  C   UNL     1      10.764  13.978  18.313  0.00  0.00    +0.000 C 
ENDBRANCH  17  20
ENDBRANCH  10  14
BRANCH   1  22
ATOM     22  C   UNL     1       5.238   4.683  19.156  0.00  0.00    +0.000 C 
BRANCH  22  24
ATOM     23  N   UNL     1       3.037   3.387  18.944  0.00  0.00    +0.000 N 
ATOM     24  C   UNL     1       4.356   3.487  19.351  0.00  0.00    +0.000 C 
ATOM     25  O   UNL     1       4.875   2.539  19.966  0.00  0.00    +0.000 OA
BRANCH  23  27
ATOM     26  C   UNL     1       0.918   2.102  18.776  0.00  0.00    +0.000 C 
ATOM     27  C   UNL     1       2.347   2.145  19.301  0.00  0.00    +0.000 C 
ENDBRANCH  23  27
BRANCH  23  28
ATOM     28  C   UNL     1       2.310   4.289  18.053  0.00  0.00    +0.000 C 
BRANCH  28  29
ATOM     29  C   UNL     1       2.083   5.690  18.574  0.00  0.00    +0.000 A 
ATOM     30  C   UNL     1       1.830   5.854  19.942  0.00  0.00    +0.000 A 
ATOM     31  C   UNL     1       1.754   7.127  20.503  0.00  0.00    +0.000 A 
ATOM     32  C   UNL     1       1.937   8.248  19.699  0.00  0.00    +0.000 A 
ATOM     33  C   UNL     1       2.142   8.114  18.326  0.00  0.00    +0.000 A 
ATOM     34  C   UNL     1       2.201   6.836  17.769  0.00  0.00    +0.000 A 
BRANCH  33  35
ATOM     35  O   UNL     1       2.296   9.294  17.653  0.00  0.00    +0.000 OA
ATOM     36  C   UNL     1       1.741  10.455  18.260  0.00  0.00    +0.000 C 
ENDBRANCH  33  35
ENDBRANCH  28  29
ENDBRANCH  23  28
ENDBRANCH  22  24
ENDBRANCH   1  22
TORSDOF 8
ENDMDL
MODEL 2
REMARK VINA RESULT:      -8.3      3.927      6.838
REMARK  Name = 
REMARK  11 active torsions:
REMARK  status: ('A' for Active; 'I' for Inactive)
REMARK    1  A    between atoms: C_1  and  C_2
REMARK    2  A    between atoms: C_2  and  N_3
REMARK    3  A    between atoms: N_3  and  C_4
REMARK    4  A    between atoms: C_4  and  C_5
REMARK    5  A    between atoms: C_9  and  O_10
REMARK    6  A    between atoms: O_10  and  C_11
REMARK    7  A    between atoms: C_13  and  C_15
REMARK    8  A    between atoms: C_15  and  N_16
REMARK    9  A    between atoms: C_25  and  C_26
REMARK   10  A    between atoms: C_29  and  O_30
REMARK   11  A    between atoms: O_30  and  C_31
REMARK                            x       y       z     vdW  Elec       q    Type
REMARK                         _______ _______ _______ _____ _____    ______ ____
ROOT
ATOM      1  N   UNL     1       3.008   5.728  19.162  0.00  0.00    +0.000 N 
ATOM      2  C   UNL     1       2.303   4.558  19.411  0.00  0.00    +0.000 A 
ATOM      3  C   UNL     1       1.160   4.307  20.179  0.00  0.00    +0.000 A 
ATOM      4  C   UNL     1       0.663   2.998  20.191  0.00  0.00    +0.000 A 
ATOM      5  C   UNL     1       1.241   1.998  19.418  0.00  0.00    +0.000 A 
ATOM      6  C   UNL     1       2.328   2.285  18.592  0.00  0.00    +0.000 A 
ATOM      7  C   UNL     1       2.878   3.580  18.605  0.00  0.00    +0.000 A 
ATOM      8  C   UNL     1       3.903   4.219  17.869  0.00  0.00    +0.000 A 
ATOM      9  C   UNL     1       4.594   3.920  16.699  0.00  0.00    +0.000 A 
ATOM     10  C   UNL     1       5.541   4.835  16.202  0.00  0.00    +0.000 A 
ATOM     11  C   UNL     1       5.980   5.885  17.018  0.00  0.00    +0.000 A 
ATOM     12  C   UNL     1       5.312   6.200  18.203  0.00  0.00    +0.000 A 
ATOM     13  C   UNL     1       4.186   5.422  18.499  0.00  0.00    +0.000 A 
ENDROOT
BRANCH  10  14
ATOM     14  C   UNL     1       5.974   4.663  14.818  0.00  0.00    +0.000 A 
ATOM     15  C   UNL     1       5.215   3.842  13.957  0.00  0.00    +0.000 A 
ATOM     16  C   UNL     1       5.714   3.463  12.719  0.00  0.00    +0.000 A 
ATOM     17  C   UNL     1       6.945   3.948  12.294  0.00  0.00    +0.000 A 
ATOM     18  C   UNL     1       7.651   4.847  13.100  0.00  0.00    +0.000 A 
ATOM     19  C   UNL     1       7.169   5.208  14.350  0.00  0.00    +0.000 A 
BRANCH  17  20
ATOM     20  O   UNL     1       7.386   3.438  11.105  0.00  0.00    +0.000 OA
ATOM     21  C   UNL     1       7.339   2.023  11.001  0.00  0.00    +0.000 C 
ENDBRANCH  17  20
ENDBRANCH  10  14
BRANCH   1  22
ATOM     22  C   UNL     1       2.359   7.004  18.893  0.00  0.00    +0.000 C 
BRANCH  22  24
ATOM     23  N   UNL     1       1.451   9.181  19.899  0.00  0.00    +0.000 N 
ATOM     24  C   UNL     1       1.793   7.844  20.000  0.00  0.00    +0.000 C 
ATOM     25  O   UNL     1       1.671   7.266  21.095  0.00  0.00    +0.000 OA
BRANCH  23  27
ATOM     26  C   UNL     1      -0.386   9.298  21.567  0.00  0.00    +0.000 C 
ATOM     27  C   UNL     1       0.979   9.817  21.131  0.00  0.00    +0.000 C 
ENDBRANCH  23  27
BRANCH  23  28
ATOM     28  C   UNL     1       1.336   9.980  18.680  0.00  0.00    +0.000 C 
BRANCH  28  29
ATOM     29  C   UNL     1      -0.058  10.442  18.324  0.00  0.00    +0.000 A 
ATOM     30  C   UNL     1      -0.457  11.721  18.730  0.00  0.00    +0.000 A 
ATOM     31  C   UNL     1      -1.674  12.254  18.311  0.00  0.00    +0.000 A 
ATOM     32  C   UNL     1      -2.501  11.510  17.474  0.00  0.00    +0.000 A 
ATOM     33  C   UNL     1      -2.151  10.215  17.094  0.00  0.00    +0.000 A 
ATOM     34  C   UNL     1      -0.937   9.682  17.532  0.00  0.00    +0.000 A 
BRANCH  33  35
ATOM     35  O   UNL     1      -3.057   9.593  16.281  0.00  0.00    +0.000 OA
ATOM     36  C   UNL     1      -3.430  10.280  15.093  0.00  0.00    +0.000 C 
ENDBRANCH  33  35
ENDBRANCH  28  29
ENDBRANCH  23  28
ENDBRANCH  22  24
ENDBRANCH   1  22
TORSDOF 8
ENDMDL
MODEL 3
REMARK VINA RESULT:      -8.1      1.026      1.617
REMARK  Name = 
REMARK  11 active torsions:
REMARK  status: ('A' for Active; 'I' for Inactive)
REMARK    1  A    between atoms: C_1  and  C_2
REMARK    2  A    between atoms: C_2  and  N_3
REMARK    3  A    between atoms: N_3  and  C_4
REMARK    4  A    between atoms: C_4  and  C_5
REMARK    5  A    between atoms: C_9  and  O_10
REMARK    6  A    between atoms: O_10  and  C_11
REMARK    7  A    between atoms: C_13  and  C_15
REMARK    8  A    between atoms: C_15  and  N_16
REMARK    9  A    between atoms: C_25  and  C_26
REMARK   10  A    between atoms: C_29  and  O_30
REMARK   11  A    between atoms: O_30  and  C_31
REMARK                            x       y       z     vdW  Elec       q    Type
REMARK                         _______ _______ _______ _____ _____    ______ ____
ROOT
ATOM      1  N   UNL     1       6.184   4.820  18.220  0.00  0.00    +0.000 N 
ATOM      2  C   UNL     1       5.923   4.588  16.876  0.00  0.00    +0.000 A 
ATOM      3  C   UNL     1       5.045   3.705  16.239  0.00  0.00    +0.000 A 
ATOM      4  C   UNL     1       4.987   3.746  14.839  0.00  0.00    +0.000 A 
ATOM      5  C   UNL     1       5.724   4.673  14.113  0.00  0.00    +0.000 A 
ATOM      6  C   UNL     1       6.531   5.604  14.769  0.00  0.00    +0.000 A 
ATOM      7  C   UNL     1       6.646   5.546  16.170  0.00  0.00    +0.000 A 
ATOM      8  C   UNL     1       7.298   6.348  17.136  0.00  0.00    +0.000 A 
ATOM      9  C   UNL     1       7.864   7.619  17.126  0.00  0.00    +0.000 A 
ATOM     10  C   UNL     1       8.392   8.149  18.317  0.00  0.00    +0.000 A 
ATOM     11  C   UNL     1       8.601   7.306  19.416  0.00  0.00    +0.000 A 
ATOM     12  C   UNL     1       8.055   6.022  19.447  0.00  0.00    +0.000 A 
ATOM     13  C   UNL     1       7.284   5.654  18.337  0.00  0.00    +0.000 A 
ENDROOT
BRANCH  10  14
ATOM     14  C   UNL     1       8.645   9.588  18.354  0.00  0.00    +0.000 A 
ATOM     15  C   UNL     1       9.427  10.121  19.399  0.00  0.00    +0.000 A 
ATOM     16  C   UNL     1       9.492  11.493  19.606  0.00  0.00    +0.000 A 
ATOM     17  C   UNL     1       8.832  12.352  18.735  0.00  0.00    +0.000 A 
ATOM     18  C   UNL     1       8.144  11.830  17.635  0.00  0.00    +0.000 A 
ATOM     19  C   UNL     1       8.054  10.460  17.440  0.00  0.00    +0.000 A 
BRANCH  17  20
ATOM     20  O   UNL     1       8.881  13.673  19.084  0.00  0.00    +0.000 OA
ATOM     21  C   UNL     1       7.655  14.221  19.544  0.00  0.00    +0.000 C 
ENDBRANCH  17  20
ENDBRANCH  10  14
BRANCH   1  22
ATOM     22  C   UNL     1       5.137   4.888  19.231  0.00  0.00    +0.000 C 
BRANCH  22  24
ATOM     23  N   UNL     1       2.879   3.675  19.192  0.00  0.00    +0.000 N 
ATOM     24  C   UNL     1       4.228   3.725  19.496  0.00  0.00    +0.000 C 
ATOM     25  O   UNL     1       4.757   2.757  20.071  0.00  0.00    +0.000 OA
BRANCH  23  27
ATOM     26  C   UNL     1       0.864   2.264  18.849  0.00  0.00    +0.000 C 
ATOM     27  C   UNL     1       2.173   2.459  19.604  0.00  0.00    +0.000 C 
ENDBRANCH  23  27
BRANCH  23  28
ATOM     28  C   UNL     1       2.119   4.605  18.359  0.00  0.00    +0.000 C 
BRANCH  28  29
ATOM     29  C   UNL     1       2.113   6.046  18.816  0.00  0.00    +0.000 A 
ATOM     30  C   UNL     1       2.349   7.045  17.863  0.00  0.00    +0.000 A 
ATOM     31  C   UNL     1       2.216   8.391  18.196  0.00  0.00    +0.000 A 
ATOM     32  C   UNL     1       1.839   8.748  19.487  0.00  0.00    +0.000 A 
ATOM     33  C   UNL     1       1.646   7.777  20.468  0.00  0.00    +0.000 A 
ATOM     34  C   UNL     1       1.797   6.431  20.131  0.00  0.00    +0.000 A 
BRANCH  33  35
ATOM     35  O   UNL     1       1.290   8.265  21.694  0.00  0.00    +0.000 OA
ATOM     36  C   UNL     1       0.895   9.630  21.751  0.00  0.00    +0.000 C 
ENDBRANCH  33  35
ENDBRANCH  28  29
ENDBRANCH  23  28
ENDBRANCH  22  24
ENDBRANCH   1  22
TORSDOF 8
ENDMDL
MODEL 4
REMARK VINA RESULT:      -8.0      3.803      7.079
REMARK  Name = 
REMARK  11 active torsions:
REMARK  status: ('A' for Active; 'I' for Inactive)
REMARK    1  A    between atoms: C_1  and  C_2
REMARK    2  A    between atoms: C_2  and  N_3
REMARK    3  A    between atoms: N_3  and  C_4
REMARK    4  A    between atoms: C_4  and  C_5
REMARK    5  A    between atoms: C_9  and  O_10
REMARK    6  A    between atoms: O_10  and  C_11
REMARK    7  A    between atoms: C_13  and  C_15
REMARK    8  A    between atoms: C_15  and  N_16
REMARK    9  A    between atoms: C_25  and  C_26
REMARK   10  A    between atoms: C_29  and  O_30
REMARK   11  A    between atoms: O_30  and  C_31
REMARK                            x       y       z     vdW  Elec       q    Type
REMARK                         _______ _______ _______ _____ _____    ______ ____
ROOT
ATOM      1  N   UNL     1       3.024   6.189  19.021  0.00  0.00    +0.000 N 
ATOM      2  C   UNL     1       2.418   5.013  19.444  0.00  0.00    +0.000 A 
ATOM      3  C   UNL     1       1.320   4.782  20.279  0.00  0.00    +0.000 A 
ATOM      4  C   UNL     1       0.925   3.452  20.477  0.00  0.00    +0.000 A 
ATOM      5  C   UNL     1       1.556   2.406  19.817  0.00  0.00    +0.000 A 
ATOM      6  C   UNL     1       2.594   2.661  18.920  0.00  0.00    +0.000 A 
ATOM      7  C   UNL     1       3.043   3.983  18.747  0.00  0.00    +0.000 A 
ATOM      8  C   UNL     1       3.995   4.594  17.897  0.00  0.00    +0.000 A 
ATOM      9  C   UNL     1       4.674   4.196  16.750  0.00  0.00    +0.000 A 
ATOM     10  C   UNL     1       5.533   5.105  16.106  0.00  0.00    +0.000 A 
ATOM     11  C   UNL     1       5.913   6.282  16.764  0.00  0.00    +0.000 A 
ATOM     12  C   UNL     1       5.257   6.698  17.923  0.00  0.00    +0.000 A 
ATOM     13  C   UNL     1       4.202   5.885  18.358  0.00  0.00    +0.000 A 
ENDROOT
BRANCH  10  14
ATOM     14  C   UNL     1       5.940   4.787  14.739  0.00  0.00    +0.000 A 
ATOM     15  C   UNL     1       5.127   3.936  13.961  0.00  0.00    +0.000 A 
ATOM     16  C   UNL     1       5.588   3.421  12.758  0.00  0.00    +0.000 A 
ATOM     17  C   UNL     1       6.839   3.798  12.282  0.00  0.00    +0.000 A 
ATOM     18  C   UNL     1       7.602   4.725  12.999  0.00  0.00    +0.000 A 
ATOM     19  C   UNL     1       7.157   5.221  14.215  0.00  0.00    +0.000 A 
BRANCH  17  20
ATOM     20  O   UNL     1       7.237   3.160  11.141  0.00  0.00    +0.000 OA
ATOM     21  C   UNL     1       7.164   1.743  11.184  0.00  0.00    +0.000 C 
ENDBRANCH  17  20
ENDBRANCH  10  14
BRANCH   1  22
ATOM     22  C   UNL     1       2.271   7.369  18.616  0.00  0.00    +0.000 C 
BRANCH  22  24
ATOM     23  N   UNL     1       1.008   9.480  19.338  0.00  0.00    +0.000 N 
ATOM     24  C   UNL     1       1.680   8.306  19.628  0.00  0.00    +0.000 C 
ATOM     25  O   UNL     1       1.861   7.986  20.816  0.00  0.00    +0.000 OA
BRANCH  23  27
ATOM     26  C   UNL     1       1.404  11.538  20.672  0.00  0.00    +0.000 C 
ATOM     27  C   UNL     1       0.574  10.273  20.492  0.00  0.00    +0.000 C 
ENDBRANCH  23  27
BRANCH  23  28
ATOM     28  C   UNL     1       0.527   9.931  18.034  0.00  0.00    +0.000 C 
BRANCH  28  29
ATOM     29  C   UNL     1      -0.918  10.370  17.980  0.00  0.00    +0.000 A 
ATOM     30  C   UNL     1      -1.821   9.588  17.248  0.00  0.00    +0.000 A 
ATOM     31  C   UNL     1      -3.187   9.862  17.279  0.00  0.00    +0.000 A 
ATOM     32  C   UNL     1      -3.661  10.921  18.048  0.00  0.00    +0.000 A 
ATOM     33  C   UNL     1      -2.780  11.745  18.746  0.00  0.00    +0.000 A 
ATOM     34  C   UNL     1      -1.412  11.474  18.698  0.00  0.00    +0.000 A 
BRANCH  33  35
ATOM     35  O   UNL     1      -3.377  12.753  19.452  0.00  0.00    +0.000 OA
ATOM     36  C   UNL     1      -3.489  12.571  20.858  0.00  0.00    +0.000 C 
ENDBRANCH  33  35
ENDBRANCH  28  29
ENDBRANCH  23  28
ENDBRANCH  22  24
ENDBRANCH   1  22
TORSDOF 8
ENDMDL
MODEL 5
REMARK VINA RESULT:      -8.0      0.921      1.295
REMARK  Name = 
REMARK  11 active torsions:
REMARK  status: ('A' for Active; 'I' for Inactive)
REMARK    1  A    between atoms: C_1  and  C_2
REMARK    2  A    between atoms: C_2  and  N_3
REMARK    3  A    between atoms: N_3  and  C_4
REMARK    4  A    between atoms: C_4  and  C_5
REMARK    5  A    between atoms: C_9  and  O_10
REMARK    6  A    between atoms: O_10  and  C_11
REMARK    7  A    between atoms: C_13  and  C_15
REMARK    8  A    between atoms: C_15  and  N_16
REMARK    9  A    between atoms: C_25  and  C_26
REMARK   10  A    between atoms: C_29  and  O_30
REMARK   11  A    between atoms: O_30  and  C_31
REMARK                            x       y       z     vdW  Elec       q    Type
REMARK                         _______ _______ _______ _____ _____    ______ ____
ROOT
ATOM      1  N   UNL     1       6.171   4.778  18.268  0.00  0.00    +0.000 N 
ATOM      2  C   UNL     1       5.881   4.570  16.927  0.00  0.00    +0.000 A 
ATOM      3  C   UNL     1       4.997   3.690  16.292  0.00  0.00    +0.000 A 
ATOM      4  C   UNL     1       4.905   3.759  14.896  0.00  0.00    +0.000 A 
ATOM      5  C   UNL     1       5.614   4.709  14.171  0.00  0.00    +0.000 A 
ATOM      6  C   UNL     1       6.426   5.635  14.827  0.00  0.00    +0.000 A 
ATOM      7  C   UNL     1       6.575   5.550  16.223  0.00  0.00    +0.000 A 
ATOM      8  C   UNL     1       7.242   6.340  17.190  0.00  0.00    +0.000 A 
ATOM      9  C   UNL     1       7.793   7.617  17.192  0.00  0.00    +0.000 A 
ATOM     10  C   UNL     1       8.344   8.129  18.381  0.00  0.00    +0.000 A 
ATOM     11  C   UNL     1       8.588   7.266  19.457  0.00  0.00    +0.000 A 
ATOM     12  C   UNL     1       8.057   5.976  19.475  0.00  0.00    +0.000 A 
ATOM     13  C   UNL     1       7.265   5.621  18.376  0.00  0.00    +0.000 A 
ENDROOT
BRANCH  10  14
ATOM     14  C   UNL     1       8.582   9.570  18.442  0.00  0.00    +0.000 A 
ATOM     15  C   UNL     1       7.913  10.414  17.531  0.00  0.00    +0.000 A 
ATOM     16  C   UNL     1       8.285  11.745  17.396  0.00  0.00    +0.000 A 
ATOM     17  C   UNL     1       9.282  12.267  18.212  0.00  0.00    +0.000 A 
ATOM     18  C   UNL     1       9.872  11.459  19.189  0.00  0.00    +0.000 A 
ATOM     19  C   UNL     1       9.523  10.122  19.309  0.00  0.00    +0.000 A 
BRANCH  17  20
ATOM     20  O   UNL     1       9.637  13.557  17.932  0.00  0.00    +0.000 OA
ATOM     21  C   UNL     1      10.859  13.707  17.224  0.00  0.00    +0.000 C 
ENDBRANCH  17  20
ENDBRANCH  10  14
BRANCH   1  22
ATOM     22  C   UNL     1       5.148   4.813  19.305  0.00  0.00    +0.000 C 
BRANCH  22  24
ATOM     23  N   UNL     1       2.902   3.577  19.249  0.00  0.00    +0.000 N 
ATOM     24  C   UNL     1       4.249   3.639  19.559  0.00  0.00    +0.000 C 
ATOM     25  O   UNL     1       4.786   2.673  20.131  0.00  0.00    +0.000 OA
BRANCH  23  27
ATOM     26  C   UNL     1       1.631   1.594  18.459  0.00  0.00    +0.000 C 
ATOM     27  C   UNL     1       2.207   2.352  19.650  0.00  0.00    +0.000 C 
ENDBRANCH  23  27
BRANCH  23  28
ATOM     28  C   UNL     1       2.137   4.505  18.417  0.00  0.00    +0.000 C 
BRANCH  28  29
ATOM     29  C   UNL     1       2.140   5.948  18.866  0.00  0.00    +0.000 A 
ATOM     30  C   UNL     1       2.415   6.938  17.914  0.00  0.00    +0.000 A 
ATOM     31  C   UNL     1       2.292   8.288  18.235  0.00  0.00    +0.000 A 
ATOM     32  C   UNL     1       1.887   8.658  19.514  0.00  0.00    +0.000 A 
ATOM     33  C   UNL     1       1.654   7.695  20.495  0.00  0.00    +0.000 A 
ATOM     34  C   UNL     1       1.794   6.346  20.170  0.00  0.00    +0.000 A 
BRANCH  33  35
ATOM     35  O   UNL     1       1.272   8.196  21.708  0.00  0.00    +0.000 OA
ATOM     36  C   UNL     1       0.602   9.451  21.702  0.00  0.00    +0.000 C 
ENDBRANCH  33  35
ENDBRANCH  28  29
ENDBRANCH  23  28
ENDBRANCH  22  24
ENDBRANCH   1  22
TORSDOF 8
ENDMDL
MODEL 6
REMARK VINA RESULT:      -8.0      3.451      6.929
REMARK  Name = 
REMARK  11 active torsions:
REMARK  status: ('A' for Active; 'I' for Inactive)
REMARK    1  A    between atoms: C_1  and  C_2
REMARK    2  A    between atoms: C_2  and  N_3
REMARK    3  A    between atoms: N_3  and  C_4
REMARK    4  A    between atoms: C_4  and  C_5
REMARK    5  A    between atoms: C_9  and  O_10
REMARK    6  A    between atoms: O_10  and  C_11
REMARK    7  A    between atoms: C_13  and  C_15
REMARK    8  A    between atoms: C_15  and  N_16
REMARK    9  A    between atoms: C_25  and  C_26
REMARK   10  A    between atoms: C_29  and  O_30
REMARK   11  A    between atoms: O_30  and  C_31
REMARK                            x       y       z     vdW  Elec       q    Type
REMARK                         _______ _______ _______ _____ _____    ______ ____
ROOT
ATOM      1  N   UNL     1       3.004   5.889  19.146  0.00  0.00    +0.000 N 
ATOM      2  C   UNL     1       2.348   4.709  19.466  0.00  0.00    +0.000 A 
ATOM      3  C   UNL     1       1.228   4.455  20.265  0.00  0.00    +0.000 A 
ATOM      4  C   UNL     1       0.780   3.131  20.352  0.00  0.00    +0.000 A 
ATOM      5  C   UNL     1       1.383   2.115  19.621  0.00  0.00    +0.000 A 
ATOM      6  C   UNL     1       2.445   2.399  18.762  0.00  0.00    +0.000 A 
ATOM      7  C   UNL     1       2.946   3.712  18.701  0.00  0.00    +0.000 A 
ATOM      8  C   UNL     1       3.935   4.351  17.915  0.00  0.00    +0.000 A 
ATOM      9  C   UNL     1       4.619   4.017  16.751  0.00  0.00    +0.000 A 
ATOM     10  C   UNL     1       5.522   4.940  16.192  0.00  0.00    +0.000 A 
ATOM     11  C   UNL     1       5.935   6.046  16.946  0.00  0.00    +0.000 A 
ATOM     12  C   UNL     1       5.274   6.396  18.124  0.00  0.00    +0.000 A 
ATOM     13  C   UNL     1       4.182   5.593  18.479  0.00  0.00    +0.000 A 
ENDROOT
BRANCH  10  14
ATOM     14  C   UNL     1       5.941   4.713  14.810  0.00  0.00    +0.000 A 
ATOM     15  C   UNL     1       5.134   3.918  13.970  0.00  0.00    +0.000 A 
ATOM     16  C   UNL     1       5.605   3.484  12.739  0.00  0.00    +0.000 A 
ATOM     17  C   UNL     1       6.861   3.890  12.301  0.00  0.00    +0.000 A 
ATOM     18  C   UNL     1       7.619   4.765  13.085  0.00  0.00    +0.000 A 
ATOM     19  C   UNL     1       7.163   5.180  14.328  0.00  0.00    +0.000 A 
BRANCH  17  20
ATOM     20  O   UNL     1       7.268   3.330  11.122  0.00  0.00    +0.000 OA
ATOM     21  C   UNL     1       7.259   1.911  11.093  0.00  0.00    +0.000 C 
ENDBRANCH  17  20
ENDBRANCH  10  14
BRANCH   1  22
ATOM     22  C   UNL     1       2.304   7.125  18.825  0.00  0.00    +0.000 C 
BRANCH  22  24
ATOM     23  N   UNL     1       1.317   9.322  19.705  0.00  0.00    +0.000 N 
ATOM     24  C   UNL     1       1.786   8.035  19.899  0.00  0.00    +0.000 C 
ATOM     25  O   UNL     1       1.831   7.572  21.053  0.00  0.00    +0.000 OA
BRANCH  23  27
ATOM     26  C   UNL     1      -0.510   9.745  21.334  0.00  0.00    +0.000 C 
ATOM     27  C   UNL     1       0.922  10.050  20.913  0.00  0.00    +0.000 C 
ENDBRANCH  23  27
BRANCH  23  28
ATOM     28  C   UNL     1       1.003   9.972  18.434  0.00  0.00    +0.000 C 
BRANCH  28  29
ATOM     29  C   UNL     1       1.121  11.479  18.418  0.00  0.00    +0.000 A 
ATOM     30  C   UNL     1      -0.036  12.237  18.638  0.00  0.00    +0.000 A 
ATOM     31  C   UNL     1       0.035  13.621  18.775  0.00  0.00    +0.000 A 
ATOM     32  C   UNL     1       1.270  14.259  18.697  0.00  0.00    +0.000 A 
ATOM     33  C   UNL     1       2.431  13.535  18.430  0.00  0.00    +0.000 A 
ATOM     34  C   UNL     1       2.349  12.150  18.278  0.00  0.00    +0.000 A 
BRANCH  33  35
ATOM     35  O   UNL     1       3.572  14.286  18.369  0.00  0.00    +0.000 OA
ATOM     36  C   UNL     1       3.503  15.498  17.629  0.00  0.00    +0.000 C 
ENDBRANCH  33  35
ENDBRANCH  28  29
ENDBRANCH  23  28
ENDBRANCH  22  24
ENDBRANCH   1  22
TORSDOF 8
ENDMDL
MODEL 7
REMARK VINA RESULT:      -7.9      0.650      1.051
REMARK  Name = 
REMARK  11 active torsions:
REMARK  status: ('A' for Active; 'I' for Inactive)
REMARK    1  A    between atoms: C_1  and  C_2
REMARK    2  A    between atoms: C_2  and  N_3
REMARK    3  A    between atoms: N_3  and  C_4
REMARK    4  A    between atoms: C_4  and  C_5
REMARK    5  A    between atoms: C_9  and  O_10
REMARK    6  A    between atoms: O_10  and  C_11
REMARK    7  A    between atoms: C_13  and  C_15
REMARK    8  A    between atoms: C_15  and  N_16
REMARK    9  A    between atoms: C_25  and  C_26
REMARK   10  A    between atoms: C_29  and  O_30
REMARK   11  A    between atoms: O_30  and  C_31
REMARK                            x       y       z     vdW  Elec       q    Type
REMARK                         _______ _______ _______ _____ _____    ______ ____
ROOT
ATOM      1  N   UNL     1       6.226   4.778  18.117  0.00  0.00    +0.000 N 
ATOM      2  C   UNL     1       6.041   4.536  16.763  0.00  0.00    +0.000 A 
ATOM      3  C   UNL     1       5.206   3.642  16.083  0.00  0.00    +0.000 A 
ATOM      4  C   UNL     1       5.224   3.675  14.683  0.00  0.00    +0.000 A 
ATOM      5  C   UNL     1       5.991   4.605  13.993  0.00  0.00    +0.000 A 
ATOM      6  C   UNL     1       6.753   5.547  14.687  0.00  0.00    +0.000 A 
ATOM      7  C   UNL     1       6.792   5.497  16.092  0.00  0.00    +0.000 A 
ATOM      8  C   UNL     1       7.384   6.310  17.088  0.00  0.00    +0.000 A 
ATOM      9  C   UNL     1       7.938   7.585  17.101  0.00  0.00    +0.000 A 
ATOM     10  C   UNL     1       8.397   8.127  18.316  0.00  0.00    +0.000 A 
ATOM     11  C   UNL     1       8.552   7.291  19.429  0.00  0.00    +0.000 A 
ATOM     12  C   UNL     1       8.017   6.002  19.438  0.00  0.00    +0.000 A 
ATOM     13  C   UNL     1       7.311   5.622  18.289  0.00  0.00    +0.000 A 
ENDROOT
BRANCH  10  14
ATOM     14  C   UNL     1       8.634   9.568  18.358  0.00  0.00    +0.000 A 
ATOM     15  C   UNL     1       9.416  10.105  19.402  0.00  0.00    +0.000 A 
ATOM     16  C   UNL     1       9.468  11.475  19.615  0.00  0.00    +0.000 A 
ATOM     17  C   UNL     1       8.794  12.332  18.752  0.00  0.00    +0.000 A 
ATOM     18  C   UNL     1       8.105  11.808  17.654  0.00  0.00    +0.000 A 
ATOM     19  C   UNL     1       8.028  10.438  17.452  0.00  0.00    +0.000 A 
BRANCH  17  20
ATOM     20  O   UNL     1       8.831  13.651  19.107  0.00  0.00    +0.000 OA
ATOM     21  C   UNL     1       8.869  13.900  20.504  0.00  0.00    +0.000 C 
ENDBRANCH  17  20
ENDBRANCH  10  14
BRANCH   1  22
ATOM     22  C   UNL     1       5.125   4.841  19.070  0.00  0.00    +0.000 C 
BRANCH  22  24
ATOM     23  N   UNL     1       2.987   3.442  19.275  0.00  0.00    +0.000 N 
ATOM     24  C   UNL     1       4.348   3.616  19.451  0.00  0.00    +0.000 C 
ATOM     25  O   UNL     1       5.009   2.718  20.002  0.00  0.00    +0.000 OA
BRANCH  23  27
ATOM     26  C   UNL     1       1.258   2.414  20.733  0.00  0.00    +0.000 C 
ATOM     27  C   UNL     1       2.429   2.186  19.785  0.00  0.00    +0.000 C 
ENDBRANCH  23  27
BRANCH  23  28
ATOM     28  C   UNL     1       2.078   4.274  18.489  0.00  0.00    +0.000 C 
BRANCH  28  29
ATOM     29  C   UNL     1       1.921   5.702  18.957  0.00  0.00    +0.000 A 
ATOM     30  C   UNL     1       1.599   5.928  20.301  0.00  0.00    +0.000 A 
ATOM     31  C   UNL     1       1.581   7.220  20.821  0.00  0.00    +0.000 A 
ATOM     32  C   UNL     1       1.890   8.299  19.998  0.00  0.00    +0.000 A 
ATOM     33  C   UNL     1       2.166   8.108  18.645  0.00  0.00    +0.000 A 
ATOM     34  C   UNL     1       2.167   6.812  18.128  0.00  0.00    +0.000 A 
BRANCH  33  35
ATOM     35  O   UNL     1       2.443   9.252  17.950  0.00  0.00    +0.000 OA
ATOM     36  C   UNL     1       1.565  10.353  18.152  0.00  0.00    +0.000 C 
ENDBRANCH  33  35
ENDBRANCH  28  29
ENDBRANCH  23  28
ENDBRANCH  22  24
ENDBRANCH   1  22
TORSDOF 8
ENDMDL
MODEL 8
REMARK VINA RESULT:      -7.9      1.255      1.651
REMARK  Name = 
REMARK  11 active torsions:
REMARK  status: ('A' for Active; 'I' for Inactive)
REMARK    1  A    between atoms: C_1  and  C_2
REMARK    2  A    between atoms: C_2  and  N_3
REMARK    3  A    between atoms: N_3  and  C_4
REMARK    4  A    between atoms: C_4  and  C_5
REMARK    5  A    between atoms: C_9  and  O_10
REMARK    6  A    between atoms: O_10  and  C_11
REMARK    7  A    between atoms: C_13  and  C_15
REMARK    8  A    between atoms: C_15  and  N_16
REMARK    9  A    between atoms: C_25  and  C_26
REMARK   10  A    between atoms: C_29  and  O_30
REMARK   11  A    between atoms: O_30  and  C_31
REMARK                            x       y       z     vdW  Elec       q    Type
REMARK                         _______ _______ _______ _____ _____    ______ ____
ROOT
ATOM      1  N   UNL     1       5.303   4.294  16.353  0.00  0.00    +0.000 N 
ATOM      2  C   UNL     1       5.731   4.128  15.043  0.00  0.00    +0.000 A 
ATOM      3  C   UNL     1       5.172   3.435  13.963  0.00  0.00    +0.000 A 
ATOM      4  C   UNL     1       5.843   3.500  12.735  0.00  0.00    +0.000 A 
ATOM      5  C   UNL     1       6.984   4.276  12.575  0.00  0.00    +0.000 A 
ATOM      6  C   UNL     1       7.480   5.029  13.640  0.00  0.00    +0.000 A 
ATOM      7  C   UNL     1       6.855   4.937  14.897  0.00  0.00    +0.000 A 
ATOM      8  C   UNL     1       7.042   5.590  16.138  0.00  0.00    +0.000 A 
ATOM      9  C   UNL     1       7.729   6.729  16.545  0.00  0.00    +0.000 A 
ATOM     10  C   UNL     1       7.653   7.138  17.889  0.00  0.00    +0.000 A 
ATOM     11  C   UNL     1       7.134   6.260  18.850  0.00  0.00    +0.000 A 
ATOM     12  C   UNL     1       6.452   5.104  18.469  0.00  0.00    +0.000 A 
ATOM     13  C   UNL     1       6.308   4.900  17.091  0.00  0.00    +0.000 A 
ENDROOT
BRANCH  10  14
ATOM     14  C   UNL     1       8.077   8.502  18.198  0.00  0.00    +0.000 A 
ATOM     15  C   UNL     1       7.634   9.561  17.379  0.00  0.00    +0.000 A 
ATOM     16  C   UNL     1       8.197  10.825  17.490  0.00  0.00    +0.000 A 
ATOM     17  C   UNL     1       9.161  11.066  18.462  0.00  0.00    +0.000 A 
ATOM     18  C   UNL     1       9.525  10.045  19.346  0.00  0.00    +0.000 A 
ATOM     19  C   UNL     1       8.985   8.773  19.221  0.00  0.00    +0.000 A 
BRANCH  17  20
ATOM     20  O   UNL     1       9.718  12.313  18.422  0.00  0.00    +0.000 OA
ATOM     21  C   UNL     1      11.093  12.350  18.067  0.00  0.00    +0.000 C 
ENDBRANCH  17  20
ENDBRANCH  10  14
BRANCH   1  22
ATOM     22  C   UNL     1       3.914   4.550  16.709  0.00  0.00    +0.000 C 
BRANCH  22  24
ATOM     23  N   UNL     1       3.072   3.704  18.978  0.00  0.00    +0.000 N 
ATOM     24  C   UNL     1       3.148   3.617  17.599  0.00  0.00    +0.000 C 
ATOM     25  O   UNL     1       2.576   2.679  17.017  0.00  0.00    +0.000 OA
BRANCH  23  27
ATOM     26  C   UNL     1       2.332   2.787  21.164  0.00  0.00    +0.000 C 
ATOM     27  C   UNL     1       2.319   2.641  19.647  0.00  0.00    +0.000 C 
ENDBRANCH  23  27
BRANCH  23  28
ATOM     28  C   UNL     1       3.500   4.817  19.824  0.00  0.00    +0.000 C 
BRANCH  28  29
ATOM     29  C   UNL     1       2.693   6.089  19.697  0.00  0.00    +0.000 A 
ATOM     30  C   UNL     1       1.846   6.445  20.755  0.00  0.00    +0.000 A 
ATOM     31  C   UNL     1       1.188   7.672  20.757  0.00  0.00    +0.000 A 
ATOM     32  C   UNL     1       1.377   8.558  19.701  0.00  0.00    +0.000 A 
ATOM     33  C   UNL     1       2.176   8.210  18.612  0.00  0.00    +0.000 A 
ATOM     34  C   UNL     1       2.819   6.972  18.610  0.00  0.00    +0.000 A 
BRANCH  33  35
ATOM     35  O   UNL     1       2.267   9.167  17.640  0.00  0.00    +0.000 OA
ATOM     36  C   UNL     1       1.822  10.473  17.983  0.00  0.00    +0.000 C 
ENDBRANCH  33  35
ENDBRANCH  28  29
ENDBRANCH  23  28
ENDBRANCH  22  24
ENDBRANCH   1  22
TORSDOF 8
ENDMDL
MODEL 9
REMARK VINA RESULT:      -7.8      5.558      9.960
REMARK  Name = 
REMARK  11 active torsions:
REMARK  status: ('A' for Active; 'I' for Inactive)
REMARK    1  A    between atoms: C_1  and  C_2
REMARK    2  A    between atoms: C_2  and  N_3
REMARK    3  A    between atoms: N_3  and  C_4
REMARK    4  A    between atoms: C_4  and  C_5
REMARK    5  A    between atoms: C_9  and  O_10
REMARK    6  A    between atoms: O_10  and  C_11
REMARK    7  A    between atoms: C_13  and  C_15
REMARK    8  A    between atoms: C_15  and  N_16
REMARK    9  A    between atoms: C_25  and  C_26
REMARK   10  A    between atoms: C_29  and  O_30
REMARK   11  A    between atoms: O_30  and  C_31
REMARK                            x       y       z     vdW  Elec       q    Type
REMARK                         _______ _______ _______ _____ _____    ______ ____
ROOT
ATOM      1  N   UNL     1      -0.435  12.054  19.528  0.00  0.00    +0.000 N 
ATOM      2  C   UNL     1      -1.024  12.030  20.786  0.00  0.00    +0.000 A 
ATOM      3  C   UNL     1      -2.062  12.785  21.341  0.00  0.00    +0.000 A 
ATOM      4  C   UNL     1      -2.458  12.480  22.649  0.00  0.00    +0.000 A 
ATOM      5  C   UNL     1      -1.888  11.423  23.348  0.00  0.00    +0.000 A 
ATOM      6  C   UNL     1      -0.913  10.625  22.748  0.00  0.00    +0.000 A 
ATOM      7  C   UNL     1      -0.461  10.947  21.456  0.00  0.00    +0.000 A 
ATOM      8  C   UNL     1       0.435  10.335  20.547  0.00  0.00    +0.000 A 
ATOM      9  C   UNL     1       1.026   9.079  20.459  0.00  0.00    +0.000 A 
ATOM     10  C   UNL     1       1.848   8.778  19.357  0.00  0.00    +0.000 A 
ATOM     11  C   UNL     1       2.288   9.813  18.521  0.00  0.00    +0.000 A 
ATOM     12  C   UNL     1       1.720  11.086  18.597  0.00  0.00    +0.000 A 
ATOM     13  C   UNL     1       0.690  11.245  19.532  0.00  0.00    +0.000 A 
ENDROOT
BRANCH  10  14
ATOM     14  C   UNL     1       2.153   7.370  19.115  0.00  0.00    +0.000 A 
ATOM     15  C   UNL     1       1.931   6.433  20.145  0.00  0.00    +0.000 A 
ATOM     16  C   UNL     1       2.424   5.139  20.044  0.00  0.00    +0.000 A 
ATOM     17  C   UNL     1       3.087   4.744  18.888  0.00  0.00    +0.000 A 
ATOM     18  C   UNL     1       3.214   5.640  17.821  0.00  0.00    +0.000 A 
ATOM     19  C   UNL     1       2.747   6.942  17.929  0.00  0.00    +0.000 A 
BRANCH  17  20
ATOM     20  O   UNL     1       3.615   3.484  18.929  0.00  0.00    +0.000 OA
ATOM     21  C   UNL     1       3.390   2.775  20.138  0.00  0.00    +0.000 C 
ENDBRANCH  17  20
ENDBRANCH  10  14
BRANCH   1  22
ATOM     22  C   UNL     1      -1.200  12.192  18.296  0.00  0.00    +0.000 C 
BRANCH  22  24
ATOM     23  N   UNL     1      -3.174  10.841  17.373  0.00  0.00    +0.000 N 
ATOM     24  C   UNL     1      -1.823  11.005  17.623  0.00  0.00    +0.000 C 
ATOM     25  O   UNL     1      -1.033  10.097  17.312  0.00  0.00    +0.000 OA
BRANCH  23  27
ATOM     26  C   UNL     1      -3.772   9.684  15.258  0.00  0.00    +0.000 C 
ATOM     27  C   UNL     1      -3.564   9.568  16.763  0.00  0.00    +0.000 C 
ENDBRANCH  23  27
BRANCH  23  28
ATOM     28  C   UNL     1      -4.228  11.849  17.480  0.00  0.00    +0.000 C 
BRANCH  28  29
ATOM     29  C   UNL     1      -5.084  11.778  18.723  0.00  0.00    +0.000 A 
ATOM     30  C   UNL     1      -4.981  12.815  19.660  0.00  0.00    +0.000 A 
ATOM     31  C   UNL     1      -5.844  12.876  20.751  0.00  0.00    +0.000 A 
ATOM     32  C   UNL     1      -6.824  11.901  20.911  0.00  0.00    +0.000 A 
ATOM     33  C   UNL     1      -6.918  10.832  20.021  0.00  0.00    +0.000 A 
ATOM     34  C   UNL     1      -6.039  10.769  18.939  0.00  0.00    +0.000 A 
BRANCH  33  35
ATOM     35  O   UNL     1      -7.916   9.941  20.301  0.00  0.00    +0.000 OA
ATOM     36  C   UNL     1      -7.529   8.589  20.511  0.00  0.00    +0.000 C 
ENDBRANCH  33  35
ENDBRANCH  28  29
ENDBRANCH  23  28
ENDBRANCH  22  24
ENDBRANCH   1  22
TORSDOF 8
ENDMDL
