MODEL 1
REMARK VINA RESULT:      -7.9      0.000      0.000
REMARK  Name = 
REMARK  4 active torsions:
REMARK  status: ('A' for Active; 'I' for Inactive)
REMARK    1  A    between atoms: O_1  and  C_2
REMARK    2  A    between atoms: C_2  and  C_3
REMARK    3  A    between atoms: C_2  and  C_10
REMARK    4  A    between atoms: C_3  and  N_4
REMARK                            x       y       z     vdW  Elec       q    Type
REMARK                         _______ _______ _______ _____ _____    ______ ____
ROOT
ATOM      1  C   UNL     1       5.188   4.130  17.911  0.00  0.00    +0.000 C 
ENDROOT
BRANCH   1   2
ATOM      2  C   UNL     1       5.962   4.456  16.648  0.00  0.00    +0.000 C 
ATOM      3  C   UNL     1       6.914   5.392  16.565  0.00  0.00    +0.000 C 
ATOM      4  O   UNL     1       7.611   5.687  15.412  0.00  0.00    +0.000 OA
ATOM      5  C   UNL     1       7.221   4.996  14.294  0.00  0.00    +0.000 A 
ATOM      6  C   UNL     1       7.833   5.302  13.084  0.00  0.00    +0.000 A 
ATOM      7  C   UNL     1       7.444   4.623  11.925  0.00  0.00    +0.000 A 
ATOM      8  C   UNL     1       6.441   3.651  11.977  0.00  0.00    +0.000 A 
ATOM      9  C   UNL     1       5.830   3.344  13.194  0.00  0.00    +0.000 A 
ATOM     10  C   UNL     1       6.231   4.014  14.351  0.00  0.00    +0.000 A 
ATOM     11  O   UNL     1       5.631   3.679  15.539  0.00  0.00    +0.000 OA
ENDBRANCH   1   2
BRANCH   1  12
ATOM     12  O   UNL     1       6.092   3.930  19.010  0.00  0.00    +0.000 OA
ATOM     13  H   UNL     1       6.897   3.519  18.656  0.00  0.00    +0.000 HD
ENDBRANCH   1  12
BRANCH   1  14
ATOM     14  C   UNL     1       4.150   5.228  18.301  0.00  0.00    +0.000 C 
BRANCH  14  15
ATOM     15  N   UNL     1       2.837   4.734  18.743  0.00  0.00    +0.000 NA
ATOM     16  C   UNL     1       2.574   3.365  18.284  0.00  0.00    +0.000 C 
ATOM     17  C   UNL     1       1.145   2.948  18.608  0.00  0.00    +0.000 C 
ATOM     18  C   UNL     1       0.860   3.087  20.096  0.00  0.00    +0.000 C 
ATOM     19  C   UNL     1       1.220   4.487  20.583  0.00  0.00    +0.000 C 
ATOM     20  C   UNL     1       2.651   4.870  20.190  0.00  0.00    +0.000 C 
ENDBRANCH  14  15
ENDBRANCH   1  14
TORSDOF 4
ENDMDL
MODEL 2
REMARK VINA RESULT:      -7.7      1.124      1.230
REMARK  Name = 
REMARK  4 active torsions:
REMARK  status: ('A' for Active; 'I' for Inactive)
REMARK    1  A    between atoms: O_1  and  C_2
REMARK    2  A    between atoms: C_2  and  C_3
REMARK    3  A    between atoms: C_2  and  C_10
REMARK    4  A    between atoms: C_3  and  N_4
REMARK                            x       y       z     vdW  Elec       q    Type
REMARK                         _______ _______ _______ _____ _____    ______ ____
ROOT
ATOM      1  C   UNL     1       5.283   4.662  18.105  0.00  0.00    +0.000 C 
ENDROOT
BRANCH   1   2
ATOM      2  C   UNL     1       5.996   4.780  16.771  0.00  0.00    +0.000 C 
ATOM      3  C   UNL     1       7.028   5.598  16.537  0.00  0.00    +0.000 C 
ATOM      4  O   UNL     1       7.669   5.705  15.320  0.00  0.00    +0.000 OA
ATOM      5  C   UNL     1       7.136   4.954  14.305  0.00  0.00    +0.000 A 
ATOM      6  C   UNL     1       7.690   5.075  13.035  0.00  0.00    +0.000 A 
ATOM      7  C   UNL     1       7.157   4.332  11.977  0.00  0.00    +0.000 A 
ATOM      8  C   UNL     1       6.068   3.481  12.189  0.00  0.00    +0.000 A 
ATOM      9  C   UNL     1       5.515   3.360  13.464  0.00  0.00    +0.000 A 
ATOM     10  C   UNL     1       6.059   4.093  14.521  0.00  0.00    +0.000 A 
ATOM     11  O   UNL     1       5.513   3.939  15.770  0.00  0.00    +0.000 OA
ENDBRANCH   1   2
BRANCH   1  12
ATOM     12  O   UNL     1       4.741   5.935  18.494  0.00  0.00    +0.000 OA
ATOM     13  H   UNL     1       3.781   5.827  18.590  0.00  0.00    +0.000 HD
ENDBRANCH   1  12
BRANCH   1  14
ATOM     14  C   UNL     1       4.138   3.601  18.103  0.00  0.00    +0.000 C 
BRANCH  14  15
ATOM     15  N   UNL     1       3.229   3.643  19.259  0.00  0.00    +0.000 NA
ATOM     16  C   UNL     1       1.818   3.615  18.858  0.00  0.00    +0.000 C 
ATOM     17  C   UNL     1       0.907   3.833  20.059  0.00  0.00    +0.000 C 
ATOM     18  C   UNL     1       1.184   2.808  21.148  0.00  0.00    +0.000 C 
ATOM     19  C   UNL     1       2.669   2.781  21.496  0.00  0.00    +0.000 C 
ATOM     20  C   UNL     1       3.537   2.605  20.246  0.00  0.00    +0.000 C 
ENDBRANCH  14  15
ENDBRANCH   1  14
TORSDOF 4
ENDMDL
MODEL 3
REMARK VINA RESULT:      -7.5      0.456      1.218
REMARK  Name = 
REMARK  4 active torsions:
REMARK  status: ('A' for Active; 'I' for Inactive)
REMARK    1  A    between atoms: O_1  and  C_2
REMARK    2  A    between atoms: C_2  and  C_3
REMARK    3  A    between atoms: C_2  and  C_10
REMARK    4  A    between atoms: C_3  and  N_4
REMARK                            x       y       z     vdW  Elec       q    Type
REMARK                         _______ _______ _______ _____ _____    ______ ____
ROOT
ATOM      1  C   UNL     1       5.552   4.371  18.193  0.00  0.00    +0.000 C 
ENDROOT
BRANCH   1   2
ATOM      2  C   UNL     1       6.194   4.603  16.838  0.00  0.00    +0.000 C 
ATOM      3  C   UNL     1       7.127   5.530  16.593  0.00  0.00    +0.000 C 
ATOM      4  O   UNL     1       7.703   5.740  15.357  0.00  0.00    +0.000 OA
ATOM      5  C   UNL     1       7.207   4.970  14.337  0.00  0.00    +0.000 A 
ATOM      6  C   UNL     1       7.693   5.187  13.053  0.00  0.00    +0.000 A 
ATOM      7  C   UNL     1       7.194   4.425  11.990  0.00  0.00    +0.000 A 
ATOM      8  C   UNL     1       6.207   3.462  12.214  0.00  0.00    +0.000 A 
ATOM      9  C   UNL     1       5.723   3.245  13.504  0.00  0.00    +0.000 A 
ATOM     10  C   UNL     1       6.233   3.996  14.564  0.00  0.00    +0.000 A 
ATOM     11  O   UNL     1       5.757   3.748  15.827  0.00  0.00    +0.000 OA
ENDBRANCH   1   2
BRANCH   1  12
ATOM     12  O   UNL     1       6.371   4.929  19.233  0.00  0.00    +0.000 OA
ATOM     13  H   UNL     1       6.679   5.799  18.929  0.00  0.00    +0.000 HD
ENDBRANCH   1  12
BRANCH   1  14
ATOM     14  C   UNL     1       4.113   4.965  18.306  0.00  0.00    +0.000 C 
BRANCH  14  15
ATOM     15  N   UNL     1       3.125   4.114  18.988  0.00  0.00    +0.000 NA
ATOM     16  C   UNL     1       2.409   4.833  20.048  0.00  0.00    +0.000 C 
ATOM     17  C   UNL     1       1.524   3.885  20.845  0.00  0.00    +0.000 C 
ATOM     18  C   UNL     1       0.552   3.149  19.935  0.00  0.00    +0.000 C 
ATOM     19  C   UNL     1       1.297   2.479  18.784  0.00  0.00    +0.000 C 
ATOM     20  C   UNL     1       2.205   3.469  18.049  0.00  0.00    +0.000 C 
ENDBRANCH  14  15
ENDBRANCH   1  14
TORSDOF 4
ENDMDL
MODEL 4
REMARK VINA RESULT:      -7.4      1.222      1.382
REMARK  Name = 
REMARK  4 active torsions:
REMARK  status: ('A' for Active; 'I' for Inactive)
REMARK    1  A    between atoms: O_1  and  C_2
REMARK    2  A    between atoms: C_2  and  C_3
REMARK    3  A    between atoms: C_2  and  C_10
REMARK    4  A    between atoms: C_3  and  N_4
REMARK                            x       y       z     vdW  Elec       q    Type
REMARK                         _______ _______ _______ _____ _____    ______ ____
ROOT
ATOM      1  C   UNL     1       4.638   4.808  17.696  0.00  0.00    +0.000 C 
ENDROOT
BRANCH   1   2
ATOM      2  C   UNL     1       5.552   4.882  16.488  0.00  0.00    +0.000 C 
ATOM      3  C   UNL     1       6.648   5.646  16.417  0.00  0.00    +0.000 C 
ATOM      4  O   UNL     1       7.473   5.714  15.313  0.00  0.00    +0.000 OA
ATOM      5  C   UNL     1       7.065   4.984  14.227  0.00  0.00    +0.000 A 
ATOM      6  C   UNL     1       7.813   5.070  13.058  0.00  0.00    +0.000 A 
ATOM      7  C   UNL     1       7.412   4.347  11.929  0.00  0.00    +0.000 A 
ATOM      8  C   UNL     1       6.262   3.554  11.969  0.00  0.00    +0.000 A 
ATOM      9  C   UNL     1       5.514   3.468  13.144  0.00  0.00    +0.000 A 
ATOM     10  C   UNL     1       5.926   4.179  14.273  0.00  0.00    +0.000 A 
ATOM     11  O   UNL     1       5.187   4.060  15.423  0.00  0.00    +0.000 OA
ENDBRANCH   1   2
BRANCH   1  12
ATOM     12  O   UNL     1       4.226   6.127  18.091  0.00  0.00    +0.000 OA
ATOM     13  H   UNL     1       3.650   6.035  18.866  0.00  0.00    +0.000 HD
ENDBRANCH   1  12
BRANCH   1  14
ATOM     14  C   UNL     1       3.370   3.929  17.460  0.00  0.00    +0.000 C 
BRANCH  14  15
ATOM     15  N   UNL     1       2.741   3.380  18.671  0.00  0.00    +0.000 NA
ATOM     16  C   UNL     1       3.678   3.298  19.797  0.00  0.00    +0.000 C 
ATOM     17  C   UNL     1       3.048   2.570  20.977  0.00  0.00    +0.000 C 
ATOM     18  C   UNL     1       1.748   3.236  21.399  0.00  0.00    +0.000 C 
ATOM     19  C   UNL     1       0.814   3.399  20.204  0.00  0.00    +0.000 C 
ATOM     20  C   UNL     1       1.515   4.096  19.033  0.00  0.00    +0.000 C 
ENDBRANCH  14  15
ENDBRANCH   1  14
TORSDOF 4
ENDMDL
MODEL 5
REMARK VINA RESULT:      -7.2      1.099      1.144
REMARK  Name = 
REMARK  4 active torsions:
REMARK  status: ('A' for Active; 'I' for Inactive)
REMARK    1  A    between atoms: O_1  and  C_2
REMARK    2  A    between atoms: C_2  and  C_3
REMARK    3  A    between atoms: C_2  and  C_10
REMARK    4  A    between atoms: C_3  and  N_4
REMARK                            x       y       z     vdW  Elec       q    Type
REMARK                         _______ _______ _______ _____ _____    ______ ____
ROOT
ATOM      1  C   UNL     1       4.981   5.827  17.914  0.00  0.00    +0.000 C 
ENDROOT
BRANCH   1   2
ATOM      2  C   UNL     1       5.765   5.524  16.652  0.00  0.00    +0.000 C 
ATOM      3  C   UNL     1       7.000   5.974  16.404  0.00  0.00    +0.000 C 
ATOM      4  O   UNL     1       7.707   5.700  15.251  0.00  0.00    +0.000 OA
ATOM      5  C   UNL     1       7.033   4.971  14.306  0.00  0.00    +0.000 A 
ATOM      6  C   UNL     1       7.663   4.726  13.092  0.00  0.00    +0.000 A 
ATOM      7  C   UNL     1       6.994   3.996  12.103  0.00  0.00    +0.000 A 
ATOM      8  C   UNL     1       5.697   3.527  12.328  0.00  0.00    +0.000 A 
ATOM      9  C   UNL     1       5.067   3.773  13.548  0.00  0.00    +0.000 A 
ATOM     10  C   UNL     1       5.744   4.488  14.538  0.00  0.00    +0.000 A 
ATOM     11  O   UNL     1       5.113   4.698  15.738  0.00  0.00    +0.000 OA
ENDBRANCH   1   2
BRANCH   1  12
ATOM     12  O   UNL     1       3.761   6.512  17.589  0.00  0.00    +0.000 OA
ATOM     13  H   UNL     1       3.734   6.621  16.625  0.00  0.00    +0.000 HD
ENDBRANCH   1  12
BRANCH   1  14
ATOM     14  C   UNL     1       4.641   4.554  18.753  0.00  0.00    +0.000 C 
BRANCH  14  15
ATOM     15  N   UNL     1       3.210   4.302  18.976  0.00  0.00    +0.000 NA
ATOM     16  C   UNL     1       2.791   2.989  18.473  0.00  0.00    +0.000 C 
ATOM     17  C   UNL     1       1.279   2.829  18.562  0.00  0.00    +0.000 C 
ATOM     18  C   UNL     1       0.789   3.048  19.985  0.00  0.00    +0.000 C 
ATOM     19  C   UNL     1       1.304   4.376  20.532  0.00  0.00    +0.000 C 
ATOM     20  C   UNL     1       2.823   4.499  20.375  0.00  0.00    +0.000 C 
ENDBRANCH  14  15
ENDBRANCH   1  14
TORSDOF 4
ENDMDL
MODEL 6
REMARK VINA RESULT:      -7.2      1.193      1.376
REMARK  Name = 
REMARK  4 active torsions:
REMARK  status: ('A' for Active; 'I' for Inactive)
REMARK    1  A    between atoms: O_1  and  C_2
REMARK    2  A    between atoms: C_2  and  C_3
REMARK    3  A    between atoms: C_2  and  C_10
REMARK    4  A    between atoms: C_3  and  N_4
REMARK                            x       y       z     vdW  Elec       q    Type
REMARK                         _______ _______ _______ _____ _____    ______ ____
ROOT
ATOM      1  C   UNL     1       4.427   3.663  17.478  0.00  0.00    +0.000 C 
ENDROOT
BRANCH   1   2
ATOM      2  C   UNL     1       5.417   4.164  16.443  0.00  0.00    +0.000 C 
ATOM      3  C   UNL     1       6.325   5.120  16.668  0.00  0.00    +0.000 C 
ATOM      4  O   UNL     1       7.220   5.576  15.721  0.00  0.00    +0.000 OA
ATOM      5  C   UNL     1       7.084   5.029  14.471  0.00  0.00    +0.000 A 
ATOM      6  C   UNL     1       7.905   5.501  13.454  0.00  0.00    +0.000 A 
ATOM      7  C   UNL     1       7.779   4.971  12.165  0.00  0.00    +0.000 A 
ATOM      8  C   UNL     1       6.827   3.984  11.897  0.00  0.00    +0.000 A 
ATOM      9  C   UNL     1       6.006   3.510  12.921  0.00  0.00    +0.000 A 
ATOM     10  C   UNL     1       6.145   4.031  14.208  0.00  0.00    +0.000 A 
ATOM     11  O   UNL     1       5.341   3.532  15.203  0.00  0.00    +0.000 OA
ENDBRANCH   1   2
BRANCH   1  12
ATOM     12  O   UNL     1       4.404   2.227  17.489  0.00  0.00    +0.000 OA
ATOM     13  H   UNL     1       3.935   1.935  16.690  0.00  0.00    +0.000 HD
ENDBRANCH   1  12
BRANCH   1  14
ATOM     14  C   UNL     1       4.727   4.178  18.921  0.00  0.00    +0.000 C 
BRANCH  14  15
ATOM     15  N   UNL     1       3.625   4.046  19.886  0.00  0.00    +0.000 NA
ATOM     16  C   UNL     1       2.337   4.463  19.320  0.00  0.00    +0.000 C 
ATOM     17  C   UNL     1       1.252   4.479  20.389  0.00  0.00    +0.000 C 
ATOM     18  C   UNL     1       1.135   3.123  21.068  0.00  0.00    +0.000 C 
ATOM     19  C   UNL     1       2.496   2.655  21.574  0.00  0.00    +0.000 C 
ATOM     20  C   UNL     1       3.555   2.704  20.469  0.00  0.00    +0.000 C 
ENDBRANCH  14  15
ENDBRANCH   1  14
TORSDOF 4
ENDMDL
MODEL 7
REMARK VINA RESULT:      -7.1      1.760      6.881
REMARK  Name = 
REMARK  4 active torsions:
REMARK  status: ('A' for Active; 'I' for Inactive)
REMARK    1  A    between atoms: O_1  and  C_2
REMARK    2  A    between atoms: C_2  and  C_3
REMARK    3  A    between atoms: C_2  and  C_10
REMARK    4  A    between atoms: C_3  and  N_4
REMARK                            x       y       z     vdW  Elec       q    Type
REMARK                         _______ _______ _______ _____ _____    ______ ____
ROOT
ATOM      1  C   UNL     1       6.102   4.627  16.798  0.00  0.00    +0.000 C 
ENDROOT
BRANCH   1   2
ATOM      2  C   UNL     1       5.002   4.651  17.843  0.00  0.00    +0.000 C 
ATOM      3  C   UNL     1       5.069   5.328  18.994  0.00  0.00    +0.000 C 
ATOM      4  O   UNL     1       4.068   5.342  19.944  0.00  0.00    +0.000 OA
ATOM      5  C   UNL     1       2.987   4.545  19.671  0.00  0.00    +0.000 A 
ATOM      6  C   UNL     1       1.978   4.456  20.623  0.00  0.00    +0.000 A 
ATOM      7  C   UNL     1       0.869   3.639  20.378  0.00  0.00    +0.000 A 
ATOM      8  C   UNL     1       0.779   2.908  19.191  0.00  0.00    +0.000 A 
ATOM      9  C   UNL     1       1.792   3.000  18.236  0.00  0.00    +0.000 A 
ATOM     10  C   UNL     1       2.890   3.828  18.478  0.00  0.00    +0.000 A 
ATOM     11  O   UNL     1       3.862   3.919  17.513  0.00  0.00    +0.000 OA
ENDBRANCH   1   2
BRANCH   1  12
ATOM     12  O   UNL     1       7.356   4.278  17.404  0.00  0.00    +0.000 OA
ATOM     13  H   UNL     1       7.362   3.316  17.533  0.00  0.00    +0.000 HD
ENDBRANCH   1  12
BRANCH   1  14
ATOM     14  C   UNL     1       5.815   3.644  15.620  0.00  0.00    +0.000 C 
BRANCH  14  15
ATOM     15  N   UNL     1       6.603   3.867  14.398  0.00  0.00    +0.000 NA
ATOM     16  C   UNL     1       5.872   3.480  13.186  0.00  0.00    +0.000 C 
ATOM     17  C   UNL     1       6.772   3.559  11.960  0.00  0.00    +0.000 C 
ATOM     18  C   UNL     1       7.372   4.949  11.812  0.00  0.00    +0.000 C 
ATOM     19  C   UNL     1       8.053   5.381  13.107  0.00  0.00    +0.000 C 
ATOM     20  C   UNL     1       7.116   5.236  14.311  0.00  0.00    +0.000 C 
ENDBRANCH  14  15
ENDBRANCH   1  14
TORSDOF 4
ENDMDL
MODEL 8
REMARK VINA RESULT:      -7.1      1.936      6.612
REMARK  Name = 
REMARK  4 active torsions:
REMARK  status: ('A' for Active; 'I' for Inactive)
REMARK    1  A    between atoms: O_1  and  C_2
REMARK    2  A    between atoms: C_2  and  C_3
REMARK    3  A    between atoms: C_2  and  C_10
REMARK    4  A    between atoms: C_3  and  N_4
REMARK                            x       y       z     vdW  Elec       q    Type
REMARK                         _______ _______ _______ _____ _____    ______ ____
ROOT
ATOM      1  C   UNL     1       5.866   6.153  16.593  0.00  0.00    +0.000 C 
ENDROOT
BRANCH   1   2
ATOM      2  C   UNL     1       5.163   5.201  17.541  0.00  0.00    +0.000 C 
ATOM      3  C   UNL     1       5.772   4.524  18.521  0.00  0.00    +0.000 C 
ATOM      4  O   UNL     1       5.128   3.655  19.377  0.00  0.00    +0.000 OA
ATOM      5  C   UNL     1       3.795   3.458  19.124  0.00  0.00    +0.000 A 
ATOM      6  C   UNL     1       3.106   2.537  19.904  0.00  0.00    +0.000 A 
ATOM      7  C   UNL     1       1.748   2.305  19.659  0.00  0.00    +0.000 A 
ATOM      8  C   UNL     1       1.090   2.985  18.631  0.00  0.00    +0.000 A 
ATOM      9  C   UNL     1       1.783   3.911  17.851  0.00  0.00    +0.000 A 
ATOM     10  C   UNL     1       3.134   4.150  18.108  0.00  0.00    +0.000 A 
ATOM     11  O   UNL     1       3.788   5.083  17.342  0.00  0.00    +0.000 OA
ENDBRANCH   1   2
BRANCH   1  12
ATOM     12  O   UNL     1       6.384   7.282  17.315  0.00  0.00    +0.000 OA
ATOM     13  H   UNL     1       6.469   8.018  16.687  0.00  0.00    +0.000 HD
ENDBRANCH   1  12
BRANCH   1  14
ATOM     14  C   UNL     1       7.029   5.485  15.793  0.00  0.00    +0.000 C 
BRANCH  14  15
ATOM     15  N   UNL     1       6.714   5.109  14.407  0.00  0.00    +0.000 NA
ATOM     16  C   UNL     1       7.873   5.240  13.517  0.00  0.00    +0.000 C 
ATOM     17  C   UNL     1       7.474   5.011  12.066  0.00  0.00    +0.000 C 
ATOM     18  C   UNL     1       6.805   3.657  11.890  0.00  0.00    +0.000 C 
ATOM     19  C   UNL     1       5.656   3.493  12.880  0.00  0.00    +0.000 C 
ATOM     20  C   UNL     1       6.105   3.780  14.317  0.00  0.00    +0.000 C 
ENDBRANCH  14  15
ENDBRANCH   1  14
TORSDOF 4
ENDMDL
MODEL 9
REMARK VINA RESULT:      -7.0      0.996      1.107
REMARK  Name = 
REMARK  4 active torsions:
REMARK  status: ('A' for Active; 'I' for Inactive)
REMARK    1  A    between atoms: O_1  and  C_2
REMARK    2  A    between atoms: C_2  and  C_3
REMARK    3  A    between atoms: C_2  and  C_10
REMARK    4  A    between atoms: C_3  and  N_4
REMARK                            x       y       z     vdW  Elec       q    Type
REMARK                         _______ _______ _______ _____ _____    ______ ____
ROOT
ATOM      1  C   UNL     1       5.956   4.518  18.375  0.00  0.00    +0.000 C 
ENDROOT
BRANCH   1   2
ATOM      2  C   UNL     1       6.452   4.721  16.956  0.00  0.00    +0.000 C 
ATOM      3  C   UNL     1       7.313   5.676  16.586  0.00  0.00    +0.000 C 
ATOM      4  O   UNL     1       7.757   5.859  15.293  0.00  0.00    +0.000 OA
ATOM      5  C   UNL     1       7.201   5.027  14.356  0.00  0.00    +0.000 A 
ATOM      6  C   UNL     1       7.550   5.211  13.023  0.00  0.00    +0.000 A 
ATOM      7  C   UNL     1       6.988   4.385  12.043  0.00  0.00    +0.000 A 
ATOM      8  C   UNL     1       6.074   3.390  12.398  0.00  0.00    +0.000 A 
ATOM      9  C   UNL     1       5.727   3.206  13.737  0.00  0.00    +0.000 A 
ATOM     10  C   UNL     1       6.301   4.022  14.713  0.00  0.00    +0.000 A 
ATOM     11  O   UNL     1       5.961   3.806  16.025  0.00  0.00    +0.000 OA
ENDBRANCH   1   2
BRANCH   1  12
ATOM     12  O   UNL     1       6.850   5.145  19.309  0.00  0.00    +0.000 OA
ATOM     13  H   UNL     1       6.558   4.902  20.202  0.00  0.00    +0.000 HD
ENDBRANCH   1  12
BRANCH   1  14
ATOM     14  C   UNL     1       4.512   5.061  18.609  0.00  0.00    +0.000 C 
BRANCH  14  15
ATOM     15  N   UNL     1       3.424   4.102  18.366  0.00  0.00    +0.000 NA
ATOM     16  C   UNL     1       3.583   2.869  19.145  0.00  0.00    +0.000 C 
ATOM     17  C   UNL     1       2.542   1.833  18.744  0.00  0.00    +0.000 C 
ATOM     18  C   UNL     1       1.134   2.390  18.889  0.00  0.00    +0.000 C 
ATOM     19  C   UNL     1       1.002   3.718  18.150  0.00  0.00    +0.000 C 
ATOM     20  C   UNL     1       2.102   4.703  18.560  0.00  0.00    +0.000 C 
ENDBRANCH  14  15
ENDBRANCH   1  14
TORSDOF 4
ENDMDL
