MODEL 1
REMARK VINA RESULT:      -7.6      0.000      0.000
REMARK  Name = 
REMARK  3 active torsions:
REMARK  status: ('A' for Active; 'I' for Inactive)
REMARK    1  A    between atoms: N_5  and  N_6
REMARK    2  A    between atoms: C_7  and  C_8
REMARK    3  A    between atoms: C_11  and  O_12
REMARK                            x       y       z     vdW  Elec       q    Type
REMARK                         _______ _______ _______ _____ _____    ______ ____
ROOT
ATOM      1  O   UNL     1       1.916   2.830  22.241  0.00  0.00    +0.000 OA
ATOM      2  C   UNL     1       2.369   3.418  21.261  0.00  0.00    +0.000 A 
ATOM      3  N   UNL     1       2.194   4.771  21.068  0.00  0.00    +0.000 NA
ATOM      4  C   UNL     1       2.665   5.393  20.027  0.00  0.00    +0.000 A 
ATOM      5  N   UNL     1       2.529   6.744  19.774  0.00  0.00    +0.000 N 
ATOM      6  C   UNL     1       3.391   4.651  19.030  0.00  0.00    +0.000 A 
ATOM      7  C   UNL     1       4.030   4.884  17.801  0.00  0.00    +0.000 A 
ATOM      8  N   UNL     1       4.571   3.770  17.287  0.00  0.00    +0.000 NA
ATOM      9  N   UNL     1       4.270   2.815  18.196  0.00  0.00    +0.000 N 
ATOM     10  C   UNL     1       3.563   3.314  19.240  0.00  0.00    +0.000 A 
ATOM     11  N   UNL     1       3.075   2.668  20.333  0.00  0.00    +0.000 N 
ATOM     12  H   UNL     1       2.907   7.123  18.914  0.00  0.00    +0.000 HD
ATOM     13  H   UNL     1       4.579   1.864  18.028  0.00  0.00    +0.000 HD
ATOM     14  H   UNL     1       3.177   1.682  20.519  0.00  0.00    +0.000 HD
ENDROOT
BRANCH   5  15
ATOM     15  N   UNL     1       1.801   7.541  20.604  0.00  0.00    +0.000 NA
ATOM     16  C   UNL     1       1.380   8.677  20.158  0.00  0.00    +0.000 C 
BRANCH  16  17
ATOM     17  C   UNL     1       0.544   9.534  21.027  0.00  0.00    +0.000 A 
ATOM     18  C   UNL     1       0.356   9.189  22.374  0.00  0.00    +0.000 A 
ATOM     19  C   UNL     1      -0.499   9.941  23.178  0.00  0.00    +0.000 A 
ATOM     20  C   UNL     1      -1.156  11.037  22.631  0.00  0.00    +0.000 A 
ATOM     21  C   UNL     1      -0.947  11.409  21.305  0.00  0.00    +0.000 A 
ATOM     22  C   UNL     1      -0.093  10.657  20.493  0.00  0.00    +0.000 A 
BRANCH  20  23
ATOM     23  O   UNL     1      -2.036  11.772  23.367  0.00  0.00    +0.000 OA
ATOM     24  H   UNL     1      -2.613  12.263  22.757  0.00  0.00    +0.000 HD
ENDBRANCH  20  23
ENDBRANCH  16  17
ENDBRANCH   5  15
TORSDOF 3
ENDMDL
MODEL 2
REMARK VINA RESULT:      -7.6      0.250      1.102
REMARK  Name = 
REMARK  3 active torsions:
REMARK  status: ('A' for Active; 'I' for Inactive)
REMARK    1  A    between atoms: N_5  and  N_6
REMARK    2  A    between atoms: C_7  and  C_8
REMARK    3  A    between atoms: C_11  and  O_12
REMARK                            x       y       z     vdW  Elec       q    Type
REMARK                         _______ _______ _______ _____ _____    ______ ____
ROOT
ATOM      1  O   UNL     1       1.830   2.751  22.197  0.00  0.00    +0.000 OA
ATOM      2  C   UNL     1       2.313   3.329  21.225  0.00  0.00    +0.000 A 
ATOM      3  N   UNL     1       2.183   4.688  21.036  0.00  0.00    +0.000 NA
ATOM      4  C   UNL     1       2.685   5.299  20.004  0.00  0.00    +0.000 A 
ATOM      5  N   UNL     1       2.595   6.655  19.755  0.00  0.00    +0.000 N 
ATOM      6  C   UNL     1       3.399   4.539  19.012  0.00  0.00    +0.000 A 
ATOM      7  C   UNL     1       4.060   4.757  17.792  0.00  0.00    +0.000 A 
ATOM      8  N   UNL     1       4.572   3.629  17.278  0.00  0.00    +0.000 NA
ATOM      9  N   UNL     1       4.230   2.680  18.180  0.00  0.00    +0.000 N 
ATOM     10  C   UNL     1       3.527   3.196  19.218  0.00  0.00    +0.000 A 
ATOM     11  N   UNL     1       3.006   2.562  20.302  0.00  0.00    +0.000 N 
ATOM     12  H   UNL     1       2.994   7.025  18.902  0.00  0.00    +0.000 HD
ATOM     13  H   UNL     1       4.512   1.720  18.012  0.00  0.00    +0.000 HD
ATOM     14  H   UNL     1       3.075   1.572  20.485  0.00  0.00    +0.000 HD
ENDROOT
BRANCH   5  15
ATOM     15  N   UNL     1       1.882   7.471  20.581  0.00  0.00    +0.000 NA
ATOM     16  C   UNL     1       1.435   8.587  20.110  0.00  0.00    +0.000 C 
BRANCH  16  17
ATOM     17  C   UNL     1       0.615   9.463  20.976  0.00  0.00    +0.000 A 
ATOM     18  C   UNL     1       0.226  10.730  20.518  0.00  0.00    +0.000 A 
ATOM     19  C   UNL     1      -0.472  11.597  21.357  0.00  0.00    +0.000 A 
ATOM     20  C   UNL     1      -0.782  11.186  22.649  0.00  0.00    +0.000 A 
ATOM     21  C   UNL     1      -0.433   9.916  23.101  0.00  0.00    +0.000 A 
ATOM     22  C   UNL     1       0.270   9.045  22.263  0.00  0.00    +0.000 A 
BRANCH  20  23
ATOM     23  O   UNL     1      -1.422  12.018  23.519  0.00  0.00    +0.000 OA
ATOM     24  H   UNL     1      -2.366  12.039  23.287  0.00  0.00    +0.000 HD
ENDBRANCH  20  23
ENDBRANCH  16  17
ENDBRANCH   5  15
TORSDOF 3
ENDMDL
MODEL 3
REMARK VINA RESULT:      -7.5      7.328      8.630
REMARK  Name = 
REMARK  3 active torsions:
REMARK  status: ('A' for Active; 'I' for Inactive)
REMARK    1  A    between atoms: N_5  and  N_6
REMARK    2  A    between atoms: C_7  and  C_8
REMARK    3  A    between atoms: C_11  and  O_12
REMARK                            x       y       z     vdW  Elec       q    Type
REMARK                         _______ _______ _______ _____ _____    ______ ____
ROOT
ATOM      1  O   UNL     1       7.674   5.407  14.342  0.00  0.00    +0.000 OA
ATOM      2  C   UNL     1       7.359   5.504  15.527  0.00  0.00    +0.000 A 
ATOM      3  N   UNL     1       7.651   6.623  16.276  0.00  0.00    +0.000 NA
ATOM      4  C   UNL     1       7.327   6.724  17.532  0.00  0.00    +0.000 A 
ATOM      5  N   UNL     1       7.585   7.815  18.340  0.00  0.00    +0.000 N 
ATOM      6  C   UNL     1       6.645   5.632  18.176  0.00  0.00    +0.000 A 
ATOM      7  C   UNL     1       6.143   5.305  19.446  0.00  0.00    +0.000 A 
ATOM      8  N   UNL     1       5.571   4.092  19.474  0.00  0.00    +0.000 NA
ATOM      9  N   UNL     1       5.715   3.639  18.207  0.00  0.00    +0.000 N 
ATOM     10  C   UNL     1       6.356   4.535  17.417  0.00  0.00    +0.000 A 
ATOM     11  N   UNL     1       6.690   4.436  16.103  0.00  0.00    +0.000 N 
ATOM     12  H   UNL     1       7.319   7.778  19.315  0.00  0.00    +0.000 HD
ATOM     13  H   UNL     1       5.353   2.721  17.972  0.00  0.00    +0.000 HD
ATOM     14  H   UNL     1       6.498   3.640  15.513  0.00  0.00    +0.000 HD
ENDROOT
BRANCH   5  15
ATOM     15  N   UNL     1       8.289   8.882  17.869  0.00  0.00    +0.000 NA
ATOM     16  C   UNL     1       8.638   9.807  18.699  0.00  0.00    +0.000 C 
BRANCH  16  17
ATOM     17  C   UNL     1       9.447  10.948  18.217  0.00  0.00    +0.000 A 
ATOM     18  C   UNL     1      10.848  10.875  18.255  0.00  0.00    +0.000 A 
ATOM     19  C   UNL     1      11.618  11.977  17.885  0.00  0.00    +0.000 A 
ATOM     20  C   UNL     1      10.981  13.142  17.473  0.00  0.00    +0.000 A 
ATOM     21  C   UNL     1       9.592  13.211  17.396  0.00  0.00    +0.000 A 
ATOM     22  C   UNL     1       8.816  12.111  17.769  0.00  0.00    +0.000 A 
BRANCH  20  23
ATOM     23  O   UNL     1      11.694  14.257  17.147  0.00  0.00    +0.000 OA
ATOM     24  H   UNL     1      12.514  13.980  16.705  0.00  0.00    +0.000 HD
ENDBRANCH  20  23
ENDBRANCH  16  17
ENDBRANCH   5  15
TORSDOF 3
ENDMDL
MODEL 4
REMARK VINA RESULT:      -7.4      7.398      8.743
REMARK  Name = 
REMARK  3 active torsions:
REMARK  status: ('A' for Active; 'I' for Inactive)
REMARK    1  A    between atoms: N_5  and  N_6
REMARK    2  A    between atoms: C_7  and  C_8
REMARK    3  A    between atoms: C_11  and  O_12
REMARK                            x       y       z     vdW  Elec       q    Type
REMARK                         _______ _______ _______ _____ _____    ______ ____
ROOT
ATOM      1  O   UNL     1       7.722   5.529  14.339  0.00  0.00    +0.000 OA
ATOM      2  C   UNL     1       7.411   5.611  15.526  0.00  0.00    +0.000 A 
ATOM      3  N   UNL     1       7.686   6.730  16.282  0.00  0.00    +0.000 NA
ATOM      4  C   UNL     1       7.366   6.816  17.540  0.00  0.00    +0.000 A 
ATOM      5  N   UNL     1       7.608   7.906  18.354  0.00  0.00    +0.000 N 
ATOM      6  C   UNL     1       6.707   5.707  18.179  0.00  0.00    +0.000 A 
ATOM      7  C   UNL     1       6.217   5.363  19.449  0.00  0.00    +0.000 A 
ATOM      8  N   UNL     1       5.668   4.139  19.471  0.00  0.00    +0.000 NA
ATOM      9  N   UNL     1       5.814   3.698  18.200  0.00  0.00    +0.000 N 
ATOM     10  C   UNL     1       6.434   4.611  17.414  0.00  0.00    +0.000 A 
ATOM     11  N   UNL     1       6.764   4.527  16.097  0.00  0.00    +0.000 N 
ATOM     12  H   UNL     1       7.347   7.857  19.331  0.00  0.00    +0.000 HD
ATOM     13  H   UNL     1       5.467   2.775  17.960  0.00  0.00    +0.000 HD
ATOM     14  H   UNL     1       6.584   3.732  15.502  0.00  0.00    +0.000 HD
ENDROOT
BRANCH   5  15
ATOM     15  N   UNL     1       8.291   8.989  17.888  0.00  0.00    +0.000 NA
ATOM     16  C   UNL     1       8.724   9.858  18.737  0.00  0.00    +0.000 C 
BRANCH  16  17
ATOM     17  C   UNL     1       9.512  11.014  18.255  0.00  0.00    +0.000 A 
ATOM     18  C   UNL     1       8.853  12.165  17.795  0.00  0.00    +0.000 A 
ATOM     19  C   UNL     1       9.583  13.224  17.259  0.00  0.00    +0.000 A 
ATOM     20  C   UNL     1      10.969  13.128  17.191  0.00  0.00    +0.000 A 
ATOM     21  C   UNL     1      11.634  12.006  17.679  0.00  0.00    +0.000 A 
ATOM     22  C   UNL     1      10.906  10.940  18.215  0.00  0.00    +0.000 A 
BRANCH  20  23
ATOM     23  O   UNL     1      11.717  14.119  16.631  0.00  0.00    +0.000 OA
ATOM     24  H   UNL     1      11.497  14.958  17.073  0.00  0.00    +0.000 HD
ENDBRANCH  20  23
ENDBRANCH  16  17
ENDBRANCH   5  15
TORSDOF 3
ENDMDL
MODEL 5
REMARK VINA RESULT:      -7.4      2.970      3.780
REMARK  Name = 
REMARK  3 active torsions:
REMARK  status: ('A' for Active; 'I' for Inactive)
REMARK    1  A    between atoms: N_5  and  N_6
REMARK    2  A    between atoms: C_7  and  C_8
REMARK    3  A    between atoms: C_11  and  O_12
REMARK                            x       y       z     vdW  Elec       q    Type
REMARK                         _______ _______ _______ _____ _____    ______ ____
ROOT
ATOM      1  O   UNL     1       7.452   5.317  20.253  0.00  0.00    +0.000 OA
ATOM      2  C   UNL     1       6.951   5.367  19.131  0.00  0.00    +0.000 A 
ATOM      3  N   UNL     1       5.715   5.932  18.902  0.00  0.00    +0.000 NA
ATOM      4  C   UNL     1       5.178   5.978  17.718  0.00  0.00    +0.000 A 
ATOM      5  N   UNL     1       3.948   6.531  17.418  0.00  0.00    +0.000 N 
ATOM      6  C   UNL     1       5.889   5.418  16.599  0.00  0.00    +0.000 A 
ATOM      7  C   UNL     1       5.704   5.234  15.219  0.00  0.00    +0.000 A 
ATOM      8  N   UNL     1       6.748   4.623  14.640  0.00  0.00    +0.000 NA
ATOM      9  N   UNL     1       7.606   4.412  15.664  0.00  0.00    +0.000 N 
ATOM     10  C   UNL     1       7.115   4.870  16.841  0.00  0.00    +0.000 A 
ATOM     11  N   UNL     1       7.675   4.830  18.079  0.00  0.00    +0.000 N 
ATOM     12  H   UNL     1       3.609   6.486  16.466  0.00  0.00    +0.000 HD
ATOM     13  H   UNL     1       8.491   3.953  15.474  0.00  0.00    +0.000 HD
ATOM     14  H   UNL     1       8.575   4.429  18.297  0.00  0.00    +0.000 HD
ENDROOT
BRANCH   5  15
ATOM     15  N   UNL     1       3.147   7.028  18.402  0.00  0.00    +0.000 NA
ATOM     16  C   UNL     1       2.508   8.127  18.180  0.00  0.00    +0.000 C 
BRANCH  16  17
ATOM     17  C   UNL     1       1.593   8.656  19.216  0.00  0.00    +0.000 A 
ATOM     18  C   UNL     1       0.801   9.780  18.940  0.00  0.00    +0.000 A 
ATOM     19  C   UNL     1       0.001  10.338  19.936  0.00  0.00    +0.000 A 
ATOM     20  C   UNL     1      -0.005   9.763  21.202  0.00  0.00    +0.000 A 
ATOM     21  C   UNL     1       0.750   8.624  21.476  0.00  0.00    +0.000 A 
ATOM     22  C   UNL     1       1.555   8.064  20.481  0.00  0.00    +0.000 A 
BRANCH  20  23
ATOM     23  O   UNL     1      -0.736  10.303  22.218  0.00  0.00    +0.000 OA
ATOM     24  H   UNL     1      -1.256   9.594  22.633  0.00  0.00    +0.000 HD
ENDBRANCH  20  23
ENDBRANCH  16  17
ENDBRANCH   5  15
TORSDOF 3
ENDMDL
MODEL 6
REMARK VINA RESULT:      -7.4      6.993      8.082
REMARK  Name = 
REMARK  3 active torsions:
REMARK  status: ('A' for Active; 'I' for Inactive)
REMARK    1  A    between atoms: N_5  and  N_6
REMARK    2  A    between atoms: C_7  and  C_8
REMARK    3  A    between atoms: C_11  and  O_12
REMARK                            x       y       z     vdW  Elec       q    Type
REMARK                         _______ _______ _______ _____ _____    ______ ____
ROOT
ATOM      1  O   UNL     1       8.152   5.160  20.738  0.00  0.00    +0.000 OA
ATOM      2  C   UNL     1       7.565   5.451  19.697  0.00  0.00    +0.000 A 
ATOM      3  N   UNL     1       7.922   6.540  18.932  0.00  0.00    +0.000 NA
ATOM      4  C   UNL     1       7.296   6.856  17.836  0.00  0.00    +0.000 A 
ATOM      5  N   UNL     1       7.602   7.928  17.021  0.00  0.00    +0.000 N 
ATOM      6  C   UNL     1       6.187   6.050  17.398  0.00  0.00    +0.000 A 
ATOM      7  C   UNL     1       5.256   6.020  16.348  0.00  0.00    +0.000 A 
ATOM      8  N   UNL     1       4.406   4.987  16.446  0.00  0.00    +0.000 NA
ATOM      9  N   UNL     1       4.798   4.353  17.575  0.00  0.00    +0.000 N 
ATOM     10  C   UNL     1       5.853   4.970  18.163  0.00  0.00    +0.000 A 
ATOM     11  N   UNL     1       6.513   4.639  19.305  0.00  0.00    +0.000 N 
ATOM     12  H   UNL     1       7.030   8.104  16.205  0.00  0.00    +0.000 HD
ATOM     13  H   UNL     1       4.298   3.521  17.868  0.00  0.00    +0.000 HD
ATOM     14  H   UNL     1       6.291   3.853  19.898  0.00  0.00    +0.000 HD
ENDROOT
BRANCH   5  15
ATOM     15  N   UNL     1       8.583   8.809  17.364  0.00  0.00    +0.000 NA
ATOM     16  C   UNL     1       8.305   9.744  18.209  0.00  0.00    +0.000 C 
BRANCH  16  17
ATOM     17  C   UNL     1       9.371  10.679  18.634  0.00  0.00    +0.000 A 
ATOM     18  C   UNL     1       9.622  10.877  20.000  0.00  0.00    +0.000 A 
ATOM     19  C   UNL     1      10.564  11.819  20.412  0.00  0.00    +0.000 A 
ATOM     20  C   UNL     1      11.252  12.553  19.452  0.00  0.00    +0.000 A 
ATOM     21  C   UNL     1      11.037  12.338  18.093  0.00  0.00    +0.000 A 
ATOM     22  C   UNL     1      10.092  11.396  17.676  0.00  0.00    +0.000 A 
BRANCH  20  23
ATOM     23  O   UNL     1      12.147  13.517  19.811  0.00  0.00    +0.000 OA
ATOM     24  H   UNL     1      12.801  13.122  20.413  0.00  0.00    +0.000 HD
ENDBRANCH  20  23
ENDBRANCH  16  17
ENDBRANCH   5  15
TORSDOF 3
ENDMDL
MODEL 7
REMARK VINA RESULT:      -7.4      2.984      3.269
REMARK  Name = 
REMARK  3 active torsions:
REMARK  status: ('A' for Active; 'I' for Inactive)
REMARK    1  A    between atoms: N_5  and  N_6
REMARK    2  A    between atoms: C_7  and  C_8
REMARK    3  A    between atoms: C_11  and  O_12
REMARK                            x       y       z     vdW  Elec       q    Type
REMARK                         _______ _______ _______ _____ _____    ______ ____
ROOT
ATOM      1  O   UNL     1       1.049   3.272  17.861  0.00  0.00    +0.000 OA
ATOM      2  C   UNL     1       2.065   3.946  18.022  0.00  0.00    +0.000 A 
ATOM      3  N   UNL     1       2.049   5.324  17.976  0.00  0.00    +0.000 NA
ATOM      4  C   UNL     1       3.124   6.038  18.137  0.00  0.00    +0.000 A 
ATOM      5  N   UNL     1       3.179   7.418  18.106  0.00  0.00    +0.000 N 
ATOM      6  C   UNL     1       4.383   5.379  18.366  0.00  0.00    +0.000 A 
ATOM      7  C   UNL     1       5.730   5.720  18.566  0.00  0.00    +0.000 A 
ATOM      8  N   UNL     1       6.511   4.643  18.740  0.00  0.00    +0.000 NA
ATOM      9  N   UNL     1       5.651   3.603  18.646  0.00  0.00    +0.000 N 
ATOM     10  C   UNL     1       4.380   4.015  18.418  0.00  0.00    +0.000 A 
ATOM     11  N   UNL     1       3.253   3.271  18.256  0.00  0.00    +0.000 N 
ATOM     12  H   UNL     1       4.076   7.876  18.211  0.00  0.00    +0.000 HD
ATOM     13  H   UNL     1       6.011   2.660  18.746  0.00  0.00    +0.000 HD
ATOM     14  H   UNL     1       3.213   2.263  18.281  0.00  0.00    +0.000 HD
ENDROOT
BRANCH   5  15
ATOM     15  N   UNL     1       2.069   8.155  17.825  0.00  0.00    +0.000 NA
ATOM     16  C   UNL     1       1.710   9.073  18.658  0.00  0.00    +0.000 C 
BRANCH  16  17
ATOM     17  C   UNL     1       0.537   9.919  18.345  0.00  0.00    +0.000 A 
ATOM     18  C   UNL     1       0.476  11.235  18.828  0.00  0.00    +0.000 A 
ATOM     19  C   UNL     1      -0.662  12.011  18.613  0.00  0.00    +0.000 A 
ATOM     20  C   UNL     1      -1.731  11.466  17.909  0.00  0.00    +0.000 A 
ATOM     21  C   UNL     1      -1.665  10.173  17.394  0.00  0.00    +0.000 A 
ATOM     22  C   UNL     1      -0.527   9.391  17.610  0.00  0.00    +0.000 A 
BRANCH  20  23
ATOM     23  O   UNL     1      -2.880  12.172  17.716  0.00  0.00    +0.000 OA
ATOM     24  H   UNL     1      -3.582  11.772  18.259  0.00  0.00    +0.000 HD
ENDBRANCH  20  23
ENDBRANCH  16  17
ENDBRANCH   5  15
TORSDOF 3
ENDMDL
MODEL 8
REMARK VINA RESULT:      -7.3      7.057      8.117
REMARK  Name = 
REMARK  3 active torsions:
REMARK  status: ('A' for Active; 'I' for Inactive)
REMARK    1  A    between atoms: N_5  and  N_6
REMARK    2  A    between atoms: C_7  and  C_8
REMARK    3  A    between atoms: C_11  and  O_12
REMARK                            x       y       z     vdW  Elec       q    Type
REMARK                         _______ _______ _______ _____ _____    ______ ____
ROOT
ATOM      1  O   UNL     1       8.191   5.166  20.689  0.00  0.00    +0.000 OA
ATOM      2  C   UNL     1       7.626   5.475  19.641  0.00  0.00    +0.000 A 
ATOM      3  N   UNL     1       7.954   6.613  18.936  0.00  0.00    +0.000 NA
ATOM      4  C   UNL     1       7.351   6.947  17.833  0.00  0.00    +0.000 A 
ATOM      5  N   UNL     1       7.631   8.068  17.076  0.00  0.00    +0.000 N 
ATOM      6  C   UNL     1       6.298   6.109  17.322  0.00  0.00    +0.000 A 
ATOM      7  C   UNL     1       5.405   6.081  16.238  0.00  0.00    +0.000 A 
ATOM      8  N   UNL     1       4.604   5.006  16.262  0.00  0.00    +0.000 NA
ATOM      9  N   UNL     1       4.989   4.342  17.376  0.00  0.00    +0.000 N 
ATOM     10  C   UNL     1       5.992   4.981  18.027  0.00  0.00    +0.000 A 
ATOM     11  N   UNL     1       6.629   4.632  19.177  0.00  0.00    +0.000 N 
ATOM     12  H   UNL     1       7.078   8.252  16.248  0.00  0.00    +0.000 HD
ATOM     13  H   UNL     1       4.521   3.474  17.616  0.00  0.00    +0.000 HD
ATOM     14  H   UNL     1       6.426   3.811  19.727  0.00  0.00    +0.000 HD
ENDROOT
BRANCH   5  15
ATOM     15  N   UNL     1       8.555   8.978  17.491  0.00  0.00    +0.000 NA
ATOM     16  C   UNL     1       8.142  10.086  18.008  0.00  0.00    +0.000 C 
BRANCH  16  17
ATOM     17  C   UNL     1       9.130  11.066  18.512  0.00  0.00    +0.000 A 
ATOM     18  C   UNL     1       9.445  12.197  17.745  0.00  0.00    +0.000 A 
ATOM     19  C   UNL     1      10.437  13.080  18.170  0.00  0.00    +0.000 A 
ATOM     20  C   UNL     1      11.103  12.827  19.364  0.00  0.00    +0.000 A 
ATOM     21  C   UNL     1      10.772  11.726  20.151  0.00  0.00    +0.000 A 
ATOM     22  C   UNL     1       9.780  10.837  19.727  0.00  0.00    +0.000 A 
BRANCH  20  23
ATOM     23  O   UNL     1      12.111  13.637  19.793  0.00  0.00    +0.000 OA
ATOM     24  H   UNL     1      12.329  14.262  19.080  0.00  0.00    +0.000 HD
ENDBRANCH  20  23
ENDBRANCH  16  17
ENDBRANCH   5  15
TORSDOF 3
ENDMDL
MODEL 9
REMARK VINA RESULT:      -7.2      7.170      7.662
REMARK  Name = 
REMARK  3 active torsions:
REMARK  status: ('A' for Active; 'I' for Inactive)
REMARK    1  A    between atoms: N_5  and  N_6
REMARK    2  A    between atoms: C_7  and  C_8
REMARK    3  A    between atoms: C_11  and  O_12
REMARK                            x       y       z     vdW  Elec       q    Type
REMARK                         _______ _______ _______ _____ _____    ______ ____
ROOT
ATOM      1  O   UNL     1       7.955   5.185  20.541  0.00  0.00    +0.000 OA
ATOM      2  C   UNL     1       7.690   5.442  19.367  0.00  0.00    +0.000 A 
ATOM      3  N   UNL     1       7.727   6.726  18.868  0.00  0.00    +0.000 NA
ATOM      4  C   UNL     1       7.438   7.000  17.630  0.00  0.00    +0.000 A 
ATOM      5  N   UNL     1       7.458   8.261  17.065  0.00  0.00    +0.000 N 
ATOM      6  C   UNL     1       7.059   5.935  16.740  0.00  0.00    +0.000 A 
ATOM      7  C   UNL     1       6.667   5.768  15.402  0.00  0.00    +0.000 A 
ATOM      8  N   UNL     1       6.426   4.485  15.095  0.00  0.00    +0.000 NA
ATOM      9  N   UNL     1       6.663   3.827  16.252  0.00  0.00    +0.000 N 
ATOM     10  C   UNL     1       7.036   4.668  17.248  0.00  0.00    +0.000 A 
ATOM     11  N   UNL     1       7.345   4.384  18.541  0.00  0.00    +0.000 N 
ATOM     12  H   UNL     1       7.184   8.369  16.097  0.00  0.00    +0.000 HD
ATOM     13  H   UNL     1       6.547   2.819  16.275  0.00  0.00    +0.000 HD
ATOM     14  H   UNL     1       7.333   3.462  18.953  0.00  0.00    +0.000 HD
ENDROOT
BRANCH   5  15
ATOM     15  N   UNL     1       7.730   9.361  17.821  0.00  0.00    +0.000 NA
ATOM     16  C   UNL     1       8.964   9.681  18.025  0.00  0.00    +0.000 C 
BRANCH  16  17
ATOM     17  C   UNL     1       9.279  10.901  18.800  0.00  0.00    +0.000 A 
ATOM     18  C   UNL     1       9.627  10.797  20.155  0.00  0.00    +0.000 A 
ATOM     19  C   UNL     1       9.841  11.946  20.915  0.00  0.00    +0.000 A 
ATOM     20  C   UNL     1       9.710  13.192  20.313  0.00  0.00    +0.000 A 
ATOM     21  C   UNL     1       9.400  13.305  18.959  0.00  0.00    +0.000 A 
ATOM     22  C   UNL     1       9.182  12.156  18.194  0.00  0.00    +0.000 A 
BRANCH  20  23
ATOM     23  O   UNL     1       9.863  14.341  21.029  0.00  0.00    +0.000 OA
ATOM     24  H   UNL     1      10.512  14.179  21.736  0.00  0.00    +0.000 HD
ENDBRANCH  20  23
ENDBRANCH  16  17
ENDBRANCH   5  15
TORSDOF 3
ENDMDL
