MODEL 1
REMARK VINA RESULT:      -8.6      0.000      0.000
REMARK  Name = 
REMARK  9 active torsions:
REMARK  status: ('A' for Active; 'I' for Inactive)
REMARK    1  A    between atoms: C_1  and  C_2
REMARK    2  A    between atoms: C_2  and  O_3
REMARK    3  A    between atoms: O_3  and  C_4
REMARK    4  A    between atoms: C_7  and  N_8
REMARK    5  A    between atoms: C_11  and  C_12
REMARK    6  A    between atoms: C_11  and  N_15
REMARK    7  A    between atoms: C_12  and  C_13
REMARK    8  A    between atoms: C_17  and  C_18
REMARK    9  A    between atoms: N_22  and  C_23
REMARK                            x       y       z     vdW  Elec       q    Type
REMARK                         _______ _______ _______ _____ _____    ______ ____
ROOT
ATOM      1  N   UNL     1       4.107   5.402  18.356  0.00  0.00    +0.000 N 
ATOM      2  C   UNL     1       5.001   5.737  19.335  0.00  0.00    +0.000 A 
ATOM      3  C   UNL     1       6.266   5.473  18.845  0.00  0.00    +0.000 A 
ATOM      4  C   UNL     1       6.038   4.969  17.541  0.00  0.00    +0.000 A 
ATOM      5  N   UNL     1       6.984   4.513  16.689  0.00  0.00    +0.000 N 
ATOM      6  N   UNL     1       4.729   4.976  17.261  0.00  0.00    +0.000 NA
ATOM      7  H   UNL     1       7.786   4.016  17.056  0.00  0.00    +0.000 HD
ENDROOT
BRANCH   5   8
ATOM      8  C   UNL     1       6.912   4.526  15.277  0.00  0.00    +0.000 A 
ATOM      9  C   UNL     1       6.031   3.670  14.592  0.00  0.00    +0.000 A 
ATOM     10  C   UNL     1       6.035   3.589  13.202  0.00  0.00    +0.000 A 
ATOM     11  C   UNL     1       6.927   4.367  12.486  0.00  0.00    +0.000 A 
ATOM     12  F   UNL     1       6.958   4.273  11.150  0.00  0.00    +0.000 F 
ATOM     13  C   UNL     1       7.800   5.238  13.133  0.00  0.00    +0.000 A 
ATOM     14  C   UNL     1       7.791   5.317  14.530  0.00  0.00    +0.000 A 
ENDBRANCH   5   8
BRANCH   1  18
ATOM     15  N   UNL     1       1.840   7.931  19.673  0.00  0.00    +0.000 N 
ATOM     16  C   UNL     1       2.440   8.049  18.345  0.00  0.00    +0.000 C 
ATOM     17  C   UNL     1       2.151   6.767  17.580  0.00  0.00    +0.000 C 
ATOM     18  C   UNL     1       2.624   5.486  18.336  0.00  0.00    +0.000 C 
ATOM     19  C   UNL     1       2.064   5.518  19.784  0.00  0.00    +0.000 C 
ATOM     20  C   UNL     1       2.331   6.845  20.508  0.00  0.00    +0.000 C 
BRANCH  15  24
ATOM     21  C   UNL     1      -0.590  10.935  21.204  0.00  0.00    +0.000 A 
ATOM     22  C   UNL     1      -0.325   9.837  22.001  0.00  0.00    +0.000 A 
ATOM     23  C   UNL     1       0.482   8.821  21.485  0.00  0.00    +0.000 A 
ATOM     24  C   UNL     1       0.990   8.894  20.181  0.00  0.00    +0.000 A 
ATOM     25  C   UNL     1       0.605  10.037  19.471  0.00  0.00    +0.000 A 
ATOM     26  N   UNL     1      -0.153  11.056  19.942  0.00  0.00    +0.000 NA
BRANCH  21  27
ATOM     27  O   UNL     1      -1.400  11.924  21.740  0.00  0.00    +0.000 OA
BRANCH  27  29
ATOM     28  C   UNL     1      -3.029  12.199  23.472  0.00  0.00    +0.000 C 
ATOM     29  C   UNL     1      -1.630  11.718  23.135  0.00  0.00    +0.000 C 
ENDBRANCH  27  29
ENDBRANCH  21  27
ENDBRANCH  15  24
BRANCH  18  30
ATOM     30  C   UNL     1       1.998   4.235  17.600  0.00  0.00    +0.000 C 
BRANCH  30  31
ATOM     31  C   UNL     1       2.020   3.016  18.506  0.00  0.00    +0.000 C 
ATOM     32  N   UNL     1       2.038   2.005  19.260  0.00  0.00    +0.000 NA
ENDBRANCH  30  31
ENDBRANCH  18  30
ENDBRANCH   1  18
BRANCH   3  33
ATOM     33  C   UNL     1       7.520   5.765  19.522  0.00  0.00    +0.000 C 
ATOM     34  N   UNL     1       8.281   6.749  18.951  0.00  0.00    +0.000 N 
ATOM     35  O   UNL     1       7.913   5.182  20.527  0.00  0.00    +0.000 OA
ATOM     36  H   UNL     1       7.928   7.357  18.218  0.00  0.00    +0.000 HD
ATOM     37  H   UNL     1       9.138   6.996  19.423  0.00  0.00    +0.000 HD
ENDBRANCH   3  33
TORSDOF 8
ENDMDL
MODEL 2
REMARK VINA RESULT:      -8.1      0.596      1.242
REMARK  Name = 
REMARK  9 active torsions:
REMARK  status: ('A' for Active; 'I' for Inactive)
REMARK    1  A    between atoms: C_1  and  C_2
REMARK    2  A    between atoms: C_2  and  O_3
REMARK    3  A    between atoms: O_3  and  C_4
REMARK    4  A    between atoms: C_7  and  N_8
REMARK    5  A    between atoms: C_11  and  C_12
REMARK    6  A    between atoms: C_11  and  N_15
REMARK    7  A    between atoms: C_12  and  C_13
REMARK    8  A    between atoms: C_17  and  C_18
REMARK    9  A    between atoms: N_22  and  C_23
REMARK                            x       y       z     vdW  Elec       q    Type
REMARK                         _______ _______ _______ _____ _____    ______ ____
ROOT
ATOM      1  N   UNL     1       4.068   5.347  18.435  0.00  0.00    +0.000 N 
ATOM      2  C   UNL     1       4.962   5.718  19.401  0.00  0.00    +0.000 A 
ATOM      3  C   UNL     1       6.224   5.400  18.939  0.00  0.00    +0.000 A 
ATOM      4  C   UNL     1       5.995   4.826  17.663  0.00  0.00    +0.000 A 
ATOM      5  N   UNL     1       6.938   4.301  16.849  0.00  0.00    +0.000 N 
ATOM      6  N   UNL     1       4.689   4.845  17.372  0.00  0.00    +0.000 NA
ATOM      7  H   UNL     1       7.726   3.809  17.251  0.00  0.00    +0.000 HD
ENDROOT
BRANCH   5   8
ATOM      8  C   UNL     1       6.877   4.234  15.437  0.00  0.00    +0.000 A 
ATOM      9  C   UNL     1       7.708   5.040  14.640  0.00  0.00    +0.000 A 
ATOM     10  C   UNL     1       7.576   5.069  13.253  0.00  0.00    +0.000 A 
ATOM     11  C   UNL     1       6.603   4.287  12.656  0.00  0.00    +0.000 A 
ATOM     12  F   UNL     1       6.449   4.331  11.326  0.00  0.00    +0.000 F 
ATOM     13  C   UNL     1       5.776   3.464  13.416  0.00  0.00    +0.000 A 
ATOM     14  C   UNL     1       5.914   3.438  14.808  0.00  0.00    +0.000 A 
ENDBRANCH   5   8
BRANCH   1  18
ATOM     15  N   UNL     1       1.843   7.963  19.649  0.00  0.00    +0.000 N 
ATOM     16  C   UNL     1       2.458   8.027  18.324  0.00  0.00    +0.000 C 
ATOM     17  C   UNL     1       2.150   6.728  17.596  0.00  0.00    +0.000 C 
ATOM     18  C   UNL     1       2.587   5.462  18.396  0.00  0.00    +0.000 C 
ATOM     19  C   UNL     1       2.014   5.551  19.836  0.00  0.00    +0.000 C 
ATOM     20  C   UNL     1       2.302   6.893  20.522  0.00  0.00    +0.000 C 
BRANCH  15  24
ATOM     21  C   UNL     1      -0.786  10.846  21.080  0.00  0.00    +0.000 A 
ATOM     22  C   UNL     1      -0.401  10.911  19.753  0.00  0.00    +0.000 A 
ATOM     23  C   UNL     1       0.491   9.950  19.273  0.00  0.00    +0.000 A 
ATOM     24  C   UNL     1       1.009   8.959  20.118  0.00  0.00    +0.000 A 
ATOM     25  C   UNL     1       0.570   9.039  21.444  0.00  0.00    +0.000 A 
ATOM     26  N   UNL     1      -0.313   9.937  21.944  0.00  0.00    +0.000 NA
BRANCH  21  27
ATOM     27  O   UNL     1      -1.667  11.817  21.530  0.00  0.00    +0.000 OA
BRANCH  27  29
ATOM     28  C   UNL     1      -1.198  13.431  23.234  0.00  0.00    +0.000 C 
ATOM     29  C   UNL     1      -1.582  11.992  22.945  0.00  0.00    +0.000 C 
ENDBRANCH  27  29
ENDBRANCH  21  27
ENDBRANCH  15  24
BRANCH  18  30
ATOM     30  C   UNL     1       1.943   4.202  17.692  0.00  0.00    +0.000 C 
BRANCH  30  31
ATOM     31  C   UNL     1       1.868   3.031  18.657  0.00  0.00    +0.000 C 
ATOM     32  N   UNL     1       1.807   2.059  19.458  0.00  0.00    +0.000 NA
ENDBRANCH  30  31
ENDBRANCH  18  30
ENDBRANCH   1  18
BRANCH   3  33
ATOM     33  C   UNL     1       7.479   5.703  19.609  0.00  0.00    +0.000 C 
ATOM     34  N   UNL     1       8.262   6.641  18.994  0.00  0.00    +0.000 N 
ATOM     35  O   UNL     1       7.854   5.166  20.646  0.00  0.00    +0.000 OA
ATOM     36  H   UNL     1       7.926   7.217  18.228  0.00  0.00    +0.000 HD
ATOM     37  H   UNL     1       9.120   6.898  19.459  0.00  0.00    +0.000 HD
ENDBRANCH   3  33
TORSDOF 8
ENDMDL
MODEL 3
REMARK VINA RESULT:      -7.6      0.838      1.188
REMARK  Name = 
REMARK  9 active torsions:
REMARK  status: ('A' for Active; 'I' for Inactive)
REMARK    1  A    between atoms: C_1  and  C_2
REMARK    2  A    between atoms: C_2  and  O_3
REMARK    3  A    between atoms: O_3  and  C_4
REMARK    4  A    between atoms: C_7  and  N_8
REMARK    5  A    between atoms: C_11  and  C_12
REMARK    6  A    between atoms: C_11  and  N_15
REMARK    7  A    between atoms: C_12  and  C_13
REMARK    8  A    between atoms: C_17  and  C_18
REMARK    9  A    between atoms: N_22  and  C_23
REMARK                            x       y       z     vdW  Elec       q    Type
REMARK                         _______ _______ _______ _____ _____    ______ ____
ROOT
ATOM      1  N   UNL     1       4.037   5.491  18.404  0.00  0.00    +0.000 N 
ATOM      2  C   UNL     1       4.928   5.844  19.379  0.00  0.00    +0.000 A 
ATOM      3  C   UNL     1       6.186   5.480  18.939  0.00  0.00    +0.000 A 
ATOM      4  C   UNL     1       5.957   4.901  17.667  0.00  0.00    +0.000 A 
ATOM      5  N   UNL     1       6.895   4.338  16.871  0.00  0.00    +0.000 N 
ATOM      6  N   UNL     1       4.657   4.958  17.355  0.00  0.00    +0.000 NA
ATOM      7  H   UNL     1       7.660   3.825  17.290  0.00  0.00    +0.000 HD
ENDROOT
BRANCH   5   8
ATOM      8  C   UNL     1       6.852   4.257  15.460  0.00  0.00    +0.000 A 
ATOM      9  C   UNL     1       7.714   5.036  14.667  0.00  0.00    +0.000 A 
ATOM     10  C   UNL     1       7.602   5.053  13.278  0.00  0.00    +0.000 A 
ATOM     11  C   UNL     1       6.619   4.289  12.674  0.00  0.00    +0.000 A 
ATOM     12  F   UNL     1       6.485   4.323  11.342  0.00  0.00    +0.000 F 
ATOM     13  C   UNL     1       5.762   3.494  13.431  0.00  0.00    +0.000 A 
ATOM     14  C   UNL     1       5.879   3.478  14.825  0.00  0.00    +0.000 A 
ENDBRANCH   5   8
BRANCH   1  18
ATOM     15  N   UNL     1       1.899   8.292  19.328  0.00  0.00    +0.000 N 
ATOM     16  C   UNL     1       2.522   8.199  18.008  0.00  0.00    +0.000 C 
ATOM     17  C   UNL     1       2.172   6.844  17.414  0.00  0.00    +0.000 C 
ATOM     18  C   UNL     1       2.561   5.652  18.342  0.00  0.00    +0.000 C 
ATOM     19  C   UNL     1       1.985   5.907  19.761  0.00  0.00    +0.000 C 
ATOM     20  C   UNL     1       2.317   7.302  20.309  0.00  0.00    +0.000 C 
BRANCH  15  24
ATOM     21  C   UNL     1      -0.382  11.603  20.378  0.00  0.00    +0.000 A 
ATOM     22  C   UNL     1      -0.073  10.682  21.362  0.00  0.00    +0.000 A 
ATOM     23  C   UNL     1       0.684   9.562  21.009  0.00  0.00    +0.000 A 
ATOM     24  C   UNL     1       1.099   9.358  19.686  0.00  0.00    +0.000 A 
ATOM     25  C   UNL     1       0.677  10.344  18.787  0.00  0.00    +0.000 A 
ATOM     26  N   UNL     1      -0.034  11.457  19.092  0.00  0.00    +0.000 NA
BRANCH  21  27
ATOM     27  O   UNL     1      -1.140  12.700  20.757  0.00  0.00    +0.000 OA
BRANCH  27  29
ATOM     28  C   UNL     1      -3.465  12.594  20.197  0.00  0.00    +0.000 C 
ATOM     29  C   UNL     1      -2.419  12.310  21.259  0.00  0.00    +0.000 C 
ENDBRANCH  27  29
ENDBRANCH  21  27
ENDBRANCH  15  24
BRANCH  18  30
ATOM     30  C   UNL     1       1.876   4.350  17.765  0.00  0.00    +0.000 C 
BRANCH  30  31
ATOM     31  C   UNL     1       2.220   3.141  18.620  0.00  0.00    +0.000 C 
ATOM     32  N   UNL     1       2.506   2.137  19.328  0.00  0.00    +0.000 NA
ENDBRANCH  30  31
ENDBRANCH  18  30
ENDBRANCH   1  18
BRANCH   3  33
ATOM     33  C   UNL     1       7.440   5.751  19.625  0.00  0.00    +0.000 C 
ATOM     34  N   UNL     1       8.257   6.665  19.018  0.00  0.00    +0.000 N 
ATOM     35  O   UNL     1       7.786   5.208  20.669  0.00  0.00    +0.000 OA
ATOM     36  H   UNL     1       7.947   7.248  18.246  0.00  0.00    +0.000 HD
ATOM     37  H   UNL     1       9.116   6.899  19.494  0.00  0.00    +0.000 HD
ENDBRANCH   3  33
TORSDOF 8
ENDMDL
MODEL 4
REMARK VINA RESULT:      -7.5      4.719     11.668
REMARK  Name = 
REMARK  9 active torsions:
REMARK  status: ('A' for Active; 'I' for Inactive)
REMARK    1  A    between atoms: C_1  and  C_2
REMARK    2  A    between atoms: C_2  and  O_3
REMARK    3  A    between atoms: O_3  and  C_4
REMARK    4  A    between atoms: C_7  and  N_8
REMARK    5  A    between atoms: C_11  and  C_12
REMARK    6  A    between atoms: C_11  and  N_15
REMARK    7  A    between atoms: C_12  and  C_13
REMARK    8  A    between atoms: C_17  and  C_18
REMARK    9  A    between atoms: N_22  and  C_23
REMARK                            x       y       z     vdW  Elec       q    Type
REMARK                         _______ _______ _______ _____ _____    ______ ____
ROOT
ATOM      1  N   UNL     1      -0.714  11.696  19.760  0.00  0.00    +0.000 N 
ATOM      2  C   UNL     1      -1.487  11.450  18.659  0.00  0.00    +0.000 A 
ATOM      3  C   UNL     1      -2.787  11.788  18.983  0.00  0.00    +0.000 A 
ATOM      4  C   UNL     1      -2.707  12.235  20.325  0.00  0.00    +0.000 A 
ATOM      5  N   UNL     1      -3.750  12.616  21.097  0.00  0.00    +0.000 N 
ATOM      6  N   UNL     1      -1.439  12.205  20.752  0.00  0.00    +0.000 NA
ATOM      7  H   UNL     1      -4.639  12.143  21.001  0.00  0.00    +0.000 HD
ENDROOT
BRANCH   5   8
ATOM      8  C   UNL     1      -3.701  13.540  22.167  0.00  0.00    +0.000 A 
ATOM      9  C   UNL     1      -3.623  13.097  23.499  0.00  0.00    +0.000 A 
ATOM     10  C   UNL     1      -3.693  13.991  24.565  0.00  0.00    +0.000 A 
ATOM     11  C   UNL     1      -3.847  15.340  24.301  0.00  0.00    +0.000 A 
ATOM     12  F   UNL     1      -3.945  16.203  25.320  0.00  0.00    +0.000 F 
ATOM     13  C   UNL     1      -3.910  15.813  22.993  0.00  0.00    +0.000 A 
ATOM     14  C   UNL     1      -3.837  14.911  21.925  0.00  0.00    +0.000 A 
ENDBRANCH   5   8
BRANCH   1  18
ATOM     15  N   UNL     1       1.464   8.837  19.164  0.00  0.00    +0.000 N 
ATOM     16  C   UNL     1       1.147   9.799  18.109  0.00  0.00    +0.000 C 
ATOM     17  C   UNL     1       1.466  11.193  18.627  0.00  0.00    +0.000 C 
ATOM     18  C   UNL     1       0.746  11.523  19.972  0.00  0.00    +0.000 C 
ATOM     19  C   UNL     1       1.014  10.376  20.984  0.00  0.00    +0.000 C 
ATOM     20  C   UNL     1       0.727   8.982  20.410  0.00  0.00    +0.000 C 
BRANCH  15  24
ATOM     21  C   UNL     1       4.012   5.601  18.612  0.00  0.00    +0.000 A 
ATOM     22  C   UNL     1       3.974   6.579  17.635  0.00  0.00    +0.000 A 
ATOM     23  C   UNL     1       3.110   7.662  17.813  0.00  0.00    +0.000 A 
ATOM     24  C   UNL     1       2.279   7.746  18.938  0.00  0.00    +0.000 A 
ATOM     25  C   UNL     1       2.387   6.666  19.822  0.00  0.00    +0.000 A 
ATOM     26  N   UNL     1       3.229   5.612  19.701  0.00  0.00    +0.000 NA
BRANCH  21  27
ATOM     27  O   UNL     1       4.874   4.536  18.405  0.00  0.00    +0.000 OA
BRANCH  27  29
ATOM     28  C   UNL     1       3.703   2.537  17.801  0.00  0.00    +0.000 C 
ATOM     29  C   UNL     1       4.472   3.741  17.288  0.00  0.00    +0.000 C 
ENDBRANCH  27  29
ENDBRANCH  21  27
ENDBRANCH  15  24
BRANCH  18  30
ATOM     30  C   UNL     1       1.391  12.845  20.551  0.00  0.00    +0.000 C 
BRANCH  30  31
ATOM     31  C   UNL     1       1.462  13.919  19.479  0.00  0.00    +0.000 C 
ATOM     32  N   UNL     1       1.520  14.811  18.589  0.00  0.00    +0.000 NA
ENDBRANCH  30  31
ENDBRANCH  18  30
ENDBRANCH   1  18
BRANCH   3  33
ATOM     33  C   UNL     1      -3.923  11.769  18.076  0.00  0.00    +0.000 C 
ATOM     34  N   UNL     1      -3.614  11.808  16.744  0.00  0.00    +0.000 N 
ATOM     35  O   UNL     1      -5.095  11.738  18.439  0.00  0.00    +0.000 OA
ATOM     36  H   UNL     1      -2.667  11.679  16.399  0.00  0.00    +0.000 HD
ATOM     37  H   UNL     1      -4.384  11.757  16.093  0.00  0.00    +0.000 HD
ENDBRANCH   3  33
TORSDOF 8
ENDMDL
MODEL 5
REMARK VINA RESULT:      -7.4      4.789     11.340
REMARK  Name = 
REMARK  9 active torsions:
REMARK  status: ('A' for Active; 'I' for Inactive)
REMARK    1  A    between atoms: C_1  and  C_2
REMARK    2  A    between atoms: C_2  and  O_3
REMARK    3  A    between atoms: O_3  and  C_4
REMARK    4  A    between atoms: C_7  and  N_8
REMARK    5  A    between atoms: C_11  and  C_12
REMARK    6  A    between atoms: C_11  and  N_15
REMARK    7  A    between atoms: C_12  and  C_13
REMARK    8  A    between atoms: C_17  and  C_18
REMARK    9  A    between atoms: N_22  and  C_23
REMARK                            x       y       z     vdW  Elec       q    Type
REMARK                         _______ _______ _______ _____ _____    ______ ____
ROOT
ATOM      1  N   UNL     1      -0.518  11.428  19.304  0.00  0.00    +0.000 N 
ATOM      2  C   UNL     1      -1.163  11.187  18.123  0.00  0.00    +0.000 A 
ATOM      3  C   UNL     1      -2.482  11.565  18.289  0.00  0.00    +0.000 A 
ATOM      4  C   UNL     1      -2.546  12.028  19.627  0.00  0.00    +0.000 A 
ATOM      5  N   UNL     1      -3.661  12.447  20.268  0.00  0.00    +0.000 N 
ATOM      6  N   UNL     1      -1.338  11.970  20.199  0.00  0.00    +0.000 NA
ATOM      7  H   UNL     1      -4.546  11.997  20.074  0.00  0.00    +0.000 HD
ENDROOT
BRANCH   5   8
ATOM      8  C   UNL     1      -3.711  13.384  21.327  0.00  0.00    +0.000 A 
ATOM      9  C   UNL     1      -3.511  14.755  21.087  0.00  0.00    +0.000 A 
ATOM     10  C   UNL     1      -3.442  15.671  22.134  0.00  0.00    +0.000 A 
ATOM     11  C   UNL     1      -3.570  15.216  23.434  0.00  0.00    +0.000 A 
ATOM     12  F   UNL     1      -3.474  16.085  24.448  0.00  0.00    +0.000 F 
ATOM     13  C   UNL     1      -3.786  13.867  23.704  0.00  0.00    +0.000 A 
ATOM     14  C   UNL     1      -3.857  12.951  22.649  0.00  0.00    +0.000 A 
ENDBRANCH   5   8
BRANCH   1  18
ATOM     15  N   UNL     1       1.601   8.471  19.104  0.00  0.00    +0.000 N 
ATOM     16  C   UNL     1       1.439   9.383  17.971  0.00  0.00    +0.000 C 
ATOM     17  C   UNL     1       1.753  10.792  18.450  0.00  0.00    +0.000 C 
ATOM     18  C   UNL     1       0.903  11.219  19.686  0.00  0.00    +0.000 C 
ATOM     19  C   UNL     1       1.013  10.123  20.780  0.00  0.00    +0.000 C 
ATOM     20  C   UNL     1       0.737   8.709  20.250  0.00  0.00    +0.000 C 
BRANCH  15  24
ATOM     21  C   UNL     1       4.066   5.127  19.008  0.00  0.00    +0.000 A 
ATOM     22  C   UNL     1       4.173   6.049  17.984  0.00  0.00    +0.000 A 
ATOM     23  C   UNL     1       3.337   7.168  18.007  0.00  0.00    +0.000 A 
ATOM     24  C   UNL     1       2.393   7.343  19.027  0.00  0.00    +0.000 A 
ATOM     25  C   UNL     1       2.361   6.311  19.972  0.00  0.00    +0.000 A 
ATOM     26  N   UNL     1       3.170   5.224  20.001  0.00  0.00    +0.000 NA
BRANCH  21  27
ATOM     27  O   UNL     1       4.903   4.024  18.954  0.00  0.00    +0.000 OA
BRANCH  27  29
ATOM     28  C   UNL     1       3.563   2.289  17.995  0.00  0.00    +0.000 C 
ATOM     29  C   UNL     1       4.206   2.816  19.264  0.00  0.00    +0.000 C 
ENDBRANCH  27  29
ENDBRANCH  21  27
ENDBRANCH  15  24
BRANCH  18  30
ATOM     30  C   UNL     1       1.531  12.549  20.265  0.00  0.00    +0.000 C 
BRANCH  30  31
ATOM     31  C   UNL     1       1.983  13.462  19.137  0.00  0.00    +0.000 C 
ATOM     32  N   UNL     1       2.357  14.219  18.200  0.00  0.00    +0.000 NA
ENDBRANCH  30  31
ENDBRANCH  18  30
ENDBRANCH   1  18
BRANCH   3  33
ATOM     33  C   UNL     1      -3.506  11.563  17.256  0.00  0.00    +0.000 C 
ATOM     34  N   UNL     1      -3.045  11.458  15.972  0.00  0.00    +0.000 N 
ATOM     35  O   UNL     1      -4.708  11.664  17.477  0.00  0.00    +0.000 OA
ATOM     36  H   UNL     1      -2.083  11.219  15.755  0.00  0.00    +0.000 HD
ATOM     37  H   UNL     1      -3.738  11.416  15.239  0.00  0.00    +0.000 HD
ENDBRANCH   3  33
TORSDOF 8
ENDMDL
MODEL 6
REMARK VINA RESULT:      -7.3      4.545     11.521
REMARK  Name = 
REMARK  9 active torsions:
REMARK  status: ('A' for Active; 'I' for Inactive)
REMARK    1  A    between atoms: C_1  and  C_2
REMARK    2  A    between atoms: C_2  and  O_3
REMARK    3  A    between atoms: O_3  and  C_4
REMARK    4  A    between atoms: C_7  and  N_8
REMARK    5  A    between atoms: C_11  and  C_12
REMARK    6  A    between atoms: C_11  and  N_15
REMARK    7  A    between atoms: C_12  and  C_13
REMARK    8  A    between atoms: C_17  and  C_18
REMARK    9  A    between atoms: N_22  and  C_23
REMARK                            x       y       z     vdW  Elec       q    Type
REMARK                         _______ _______ _______ _____ _____    ______ ____
ROOT
ATOM      1  N   UNL     1      -0.623  11.545  19.297  0.00  0.00    +0.000 N 
ATOM      2  C   UNL     1      -1.254  11.302  18.108  0.00  0.00    +0.000 A 
ATOM      3  C   UNL     1      -2.588  11.622  18.276  0.00  0.00    +0.000 A 
ATOM      4  C   UNL     1      -2.676  12.054  19.622  0.00  0.00    +0.000 A 
ATOM      5  N   UNL     1      -3.809  12.414  20.267  0.00  0.00    +0.000 N 
ATOM      6  N   UNL     1      -1.469  12.034  20.199  0.00  0.00    +0.000 NA
ATOM      7  H   UNL     1      -4.675  11.932  20.059  0.00  0.00    +0.000 HD
ENDROOT
BRANCH   5   8
ATOM      8  C   UNL     1      -3.903  13.326  21.344  0.00  0.00    +0.000 A 
ATOM      9  C   UNL     1      -4.101  12.871  22.659  0.00  0.00    +0.000 A 
ATOM     10  C   UNL     1      -4.312  13.761  23.710  0.00  0.00    +0.000 A 
ATOM     11  C   UNL     1      -4.329  15.119  23.446  0.00  0.00    +0.000 A 
ATOM     12  F   UNL     1      -4.561  15.981  24.445  0.00  0.00    +0.000 F 
ATOM     13  C   UNL     1      -4.118  15.603  22.157  0.00  0.00    +0.000 A 
ATOM     14  C   UNL     1      -3.905  14.705  21.105  0.00  0.00    +0.000 A 
ENDBRANCH   5   8
BRANCH   1  18
ATOM     15  N   UNL     1       1.655   8.727  18.922  0.00  0.00    +0.000 N 
ATOM     16  C   UNL     1       1.454   9.704  17.853  0.00  0.00    +0.000 C 
ATOM     17  C   UNL     1       1.686  11.092  18.430  0.00  0.00    +0.000 C 
ATOM     18  C   UNL     1       0.803  11.388  19.682  0.00  0.00    +0.000 C 
ATOM     19  C   UNL     1       0.963  10.226  20.700  0.00  0.00    +0.000 C 
ATOM     20  C   UNL     1       0.769   8.839  20.072  0.00  0.00    +0.000 C 
BRANCH  15  24
ATOM     21  C   UNL     1       4.306   5.541  18.624  0.00  0.00    +0.000 A 
ATOM     22  C   UNL     1       4.311   6.493  17.621  0.00  0.00    +0.000 A 
ATOM     23  C   UNL     1       3.412   7.558  17.713  0.00  0.00    +0.000 A 
ATOM     24  C   UNL     1       2.507   7.651  18.780  0.00  0.00    +0.000 A 
ATOM     25  C   UNL     1       2.582   6.596  19.697  0.00  0.00    +0.000 A 
ATOM     26  N   UNL     1       3.454   5.560  19.659  0.00  0.00    +0.000 NA
BRANCH  21  27
ATOM     27  O   UNL     1       5.204   4.492  18.502  0.00  0.00    +0.000 OA
BRANCH  27  29
ATOM     28  C   UNL     1       7.314   4.565  17.375  0.00  0.00    +0.000 C 
ATOM     29  C   UNL     1       5.810   4.463  17.208  0.00  0.00    +0.000 C 
ENDBRANCH  27  29
ENDBRANCH  21  27
ENDBRANCH  15  24
BRANCH  18  30
ATOM     30  C   UNL     1       1.353  12.706  20.357  0.00  0.00    +0.000 C 
BRANCH  30  31
ATOM     31  C   UNL     1       2.116  13.547  19.346  0.00  0.00    +0.000 C 
ATOM     32  N   UNL     1       2.750  14.243  18.507  0.00  0.00    +0.000 NA
ENDBRANCH  30  31
ENDBRANCH  18  30
ENDBRANCH   1  18
BRANCH   3  33
ATOM     33  C   UNL     1      -3.606  11.599  17.238  0.00  0.00    +0.000 C 
ATOM     34  N   UNL     1      -3.155  11.315  15.978  0.00  0.00    +0.000 N 
ATOM     35  O   UNL     1      -4.795  11.829  17.434  0.00  0.00    +0.000 OA
ATOM     36  H   UNL     1      -2.218  10.970  15.798  0.00  0.00    +0.000 HD
ATOM     37  H   UNL     1      -3.849  11.256  15.247  0.00  0.00    +0.000 HD
ENDBRANCH   3  33
TORSDOF 8
ENDMDL
MODEL 7
REMARK VINA RESULT:      -7.3      4.974     10.592
REMARK  Name = 
REMARK  9 active torsions:
REMARK  status: ('A' for Active; 'I' for Inactive)
REMARK    1  A    between atoms: C_1  and  C_2
REMARK    2  A    between atoms: C_2  and  O_3
REMARK    3  A    between atoms: O_3  and  C_4
REMARK    4  A    between atoms: C_7  and  N_8
REMARK    5  A    between atoms: C_11  and  C_12
REMARK    6  A    between atoms: C_11  and  N_15
REMARK    7  A    between atoms: C_12  and  C_13
REMARK    8  A    between atoms: C_17  and  C_18
REMARK    9  A    between atoms: N_22  and  C_23
REMARK                            x       y       z     vdW  Elec       q    Type
REMARK                         _______ _______ _______ _____ _____    ______ ____
ROOT
ATOM      1  N   UNL     1       0.237  11.670  19.191  0.00  0.00    +0.000 N 
ATOM      2  C   UNL     1       1.422  12.169  18.727  0.00  0.00    +0.000 A 
ATOM      3  C   UNL     1       1.517  13.477  19.162  0.00  0.00    +0.000 A 
ATOM      4  C   UNL     1       0.322  13.690  19.893  0.00  0.00    +0.000 A 
ATOM      5  N   UNL     1      -0.063  14.854  20.463  0.00  0.00    +0.000 N 
ATOM      6  N   UNL     1      -0.410  12.569  19.926  0.00  0.00    +0.000 NA
ATOM      7  H   UNL     1       0.155  15.729  20.003  0.00  0.00    +0.000 HD
ENDROOT
BRANCH   5   8
ATOM      8  C   UNL     1      -0.893  14.992  21.599  0.00  0.00    +0.000 A 
ATOM      9  C   UNL     1      -0.477  14.526  22.858  0.00  0.00    +0.000 A 
ATOM     10  C   UNL     1      -1.331  14.550  23.959  0.00  0.00    +0.000 A 
ATOM     11  C   UNL     1      -2.614  15.041  23.802  0.00  0.00    +0.000 A 
ATOM     12  F   UNL     1      -3.452  15.040  24.847  0.00  0.00    +0.000 F 
ATOM     13  C   UNL     1      -3.052  15.526  22.572  0.00  0.00    +0.000 A 
ATOM     14  C   UNL     1      -2.190  15.502  21.470  0.00  0.00    +0.000 A 
ENDBRANCH   5   8
BRANCH   1  18
ATOM     15  N   UNL     1       1.706   8.344  19.432  0.00  0.00    +0.000 N 
ATOM     16  C   UNL     1       1.216   9.059  20.611  0.00  0.00    +0.000 C 
ATOM     17  C   UNL     1      -0.218   9.488  20.342  0.00  0.00    +0.000 C 
ATOM     18  C   UNL     1      -0.370  10.323  19.032  0.00  0.00    +0.000 C 
ATOM     19  C   UNL     1       0.309   9.558  17.863  0.00  0.00    +0.000 C 
ATOM     20  C   UNL     1       1.737   9.099  18.188  0.00  0.00    +0.000 C 
BRANCH  15  24
ATOM     21  C   UNL     1       3.343   4.527  19.557  0.00  0.00    +0.000 A 
ATOM     22  C   UNL     1       2.401   4.867  20.511  0.00  0.00    +0.000 A 
ATOM     23  C   UNL     1       1.858   6.154  20.478  0.00  0.00    +0.000 A 
ATOM     24  C   UNL     1       2.274   7.090  19.521  0.00  0.00    +0.000 A 
ATOM     25  C   UNL     1       3.265   6.626  18.648  0.00  0.00    +0.000 A 
ATOM     26  N   UNL     1       3.799   5.381  18.630  0.00  0.00    +0.000 NA
BRANCH  21  27
ATOM     27  O   UNL     1       3.870   3.247  19.619  0.00  0.00    +0.000 OA
BRANCH  27  29
ATOM     28  C   UNL     1       2.651   2.143  17.880  0.00  0.00    +0.000 C 
ATOM     29  C   UNL     1       2.871   2.253  19.377  0.00  0.00    +0.000 C 
ENDBRANCH  27  29
ENDBRANCH  21  27
ENDBRANCH  15  24
BRANCH  18  30
ATOM     30  C   UNL     1      -1.913  10.435  18.710  0.00  0.00    +0.000 C 
BRANCH  30  31
ATOM     31  C   UNL     1      -2.146  10.447  17.208  0.00  0.00    +0.000 C 
ATOM     32  N   UNL     1      -2.337  10.457  15.962  0.00  0.00    +0.000 NA
ENDBRANCH  30  31
ENDBRANCH  18  30
ENDBRANCH   1  18
BRANCH   3  33
ATOM     33  C   UNL     1       2.659  14.358  18.971  0.00  0.00    +0.000 C 
ATOM     34  N   UNL     1       3.524  13.992  17.977  0.00  0.00    +0.000 N 
ATOM     35  O   UNL     1       2.877  15.360  19.644  0.00  0.00    +0.000 OA
ATOM     36  H   UNL     1       3.304  13.267  17.301  0.00  0.00    +0.000 HD
ATOM     37  H   UNL     1       4.304  14.608  17.799  0.00  0.00    +0.000 HD
ENDBRANCH   3  33
TORSDOF 8
ENDMDL
MODEL 8
REMARK VINA RESULT:      -7.2      4.887     11.188
REMARK  Name = 
REMARK  9 active torsions:
REMARK  status: ('A' for Active; 'I' for Inactive)
REMARK    1  A    between atoms: C_1  and  C_2
REMARK    2  A    between atoms: C_2  and  O_3
REMARK    3  A    between atoms: O_3  and  C_4
REMARK    4  A    between atoms: C_7  and  N_8
REMARK    5  A    between atoms: C_11  and  C_12
REMARK    6  A    between atoms: C_11  and  N_15
REMARK    7  A    between atoms: C_12  and  C_13
REMARK    8  A    between atoms: C_17  and  C_18
REMARK    9  A    between atoms: N_22  and  C_23
REMARK                            x       y       z     vdW  Elec       q    Type
REMARK                         _______ _______ _______ _____ _____    ______ ____
ROOT
ATOM      1  N   UNL     1      -0.442  11.356  18.862  0.00  0.00    +0.000 N 
ATOM      2  C   UNL     1      -1.146  11.152  17.708  0.00  0.00    +0.000 A 
ATOM      3  C   UNL     1      -2.464  11.475  17.967  0.00  0.00    +0.000 A 
ATOM      4  C   UNL     1      -2.466  11.868  19.328  0.00  0.00    +0.000 A 
ATOM      5  N   UNL     1      -3.555  12.216  20.052  0.00  0.00    +0.000 N 
ATOM      6  N   UNL     1      -1.226  11.824  19.828  0.00  0.00    +0.000 NA
ATOM      7  H   UNL     1      -4.435  11.746  19.885  0.00  0.00    +0.000 HD
ENDROOT
BRANCH   5   8
ATOM      8  C   UNL     1      -3.574  13.097  21.158  0.00  0.00    +0.000 A 
ATOM      9  C   UNL     1      -3.429  12.611  22.469  0.00  0.00    +0.000 A 
ATOM     10  C   UNL     1      -3.564  13.451  23.572  0.00  0.00    +0.000 A 
ATOM     11  C   UNL     1      -3.849  14.789  23.366  0.00  0.00    +0.000 A 
ATOM     12  F   UNL     1      -4.010  15.598  24.422  0.00  0.00    +0.000 F 
ATOM     13  C   UNL     1      -3.981  15.305  22.079  0.00  0.00    +0.000 A 
ATOM     14  C   UNL     1      -3.843  14.458  20.975  0.00  0.00    +0.000 A 
ENDBRANCH   5   8
BRANCH   1  18
ATOM     15  N   UNL     1       1.575   8.340  19.196  0.00  0.00    +0.000 N 
ATOM     16  C   UNL     1       1.323   8.960  17.895  0.00  0.00    +0.000 C 
ATOM     17  C   UNL     1       1.717  10.426  17.986  0.00  0.00    +0.000 C 
ATOM     18  C   UNL     1       1.005  11.178  19.153  0.00  0.00    +0.000 C 
ATOM     19  C   UNL     1       1.196  10.372  20.466  0.00  0.00    +0.000 C 
ATOM     20  C   UNL     1       0.835   8.887  20.324  0.00  0.00    +0.000 C 
BRANCH  15  24
ATOM     21  C   UNL     1       3.777   4.825  19.441  0.00  0.00    +0.000 A 
ATOM     22  C   UNL     1       2.776   5.037  20.371  0.00  0.00    +0.000 A 
ATOM     23  C   UNL     1       2.042   6.223  20.298  0.00  0.00    +0.000 A 
ATOM     24  C   UNL     1       2.328   7.190  19.325  0.00  0.00    +0.000 A 
ATOM     25  C   UNL     1       3.395   6.866  18.479  0.00  0.00    +0.000 A 
ATOM     26  N   UNL     1       4.114   5.718  18.500  0.00  0.00    +0.000 NA
BRANCH  21  27
ATOM     27  O   UNL     1       4.493   3.642  19.543  0.00  0.00    +0.000 OA
BRANCH  27  29
ATOM     28  C   UNL     1       3.453   2.036  18.105  0.00  0.00    +0.000 C 
ATOM     29  C   UNL     1       3.632   2.502  19.538  0.00  0.00    +0.000 C 
ENDBRANCH  27  29
ENDBRANCH  21  27
ENDBRANCH  15  24
BRANCH  18  30
ATOM     30  C   UNL     1       1.719  12.576  19.331  0.00  0.00    +0.000 C 
BRANCH  30  31
ATOM     31  C   UNL     1       1.471  13.130  20.725  0.00  0.00    +0.000 C 
ATOM     32  N   UNL     1       1.264  13.587  21.882  0.00  0.00    +0.000 NA
ENDBRANCH  30  31
ENDBRANCH  18  30
ENDBRANCH   1  18
BRANCH   3  33
ATOM     33  C   UNL     1      -3.545  11.489  16.994  0.00  0.00    +0.000 C 
ATOM     34  N   UNL     1      -3.159  11.399  15.685  0.00  0.00    +0.000 N 
ATOM     35  O   UNL     1      -4.733  11.590  17.285  0.00  0.00    +0.000 OA
ATOM     36  H   UNL     1      -2.211  11.160  15.410  0.00  0.00    +0.000 HD
ATOM     37  H   UNL     1      -3.893  11.368  14.992  0.00  0.00    +0.000 HD
ENDBRANCH   3  33
TORSDOF 8
ENDMDL
MODEL 9
REMARK VINA RESULT:      -7.1      3.761      9.972
REMARK  Name = 
REMARK  9 active torsions:
REMARK  status: ('A' for Active; 'I' for Inactive)
REMARK    1  A    between atoms: C_1  and  C_2
REMARK    2  A    between atoms: C_2  and  O_3
REMARK    3  A    between atoms: O_3  and  C_4
REMARK    4  A    between atoms: C_7  and  N_8
REMARK    5  A    between atoms: C_11  and  C_12
REMARK    6  A    between atoms: C_11  and  N_15
REMARK    7  A    between atoms: C_12  and  C_13
REMARK    8  A    between atoms: C_17  and  C_18
REMARK    9  A    between atoms: N_22  and  C_23
REMARK                            x       y       z     vdW  Elec       q    Type
REMARK                         _______ _______ _______ _____ _____    ______ ____
ROOT
ATOM      1  N   UNL     1      -0.573  11.921  20.562  0.00  0.00    +0.000 N 
ATOM      2  C   UNL     1      -1.423  12.266  21.576  0.00  0.00    +0.000 A 
ATOM      3  C   UNL     1      -2.680  12.421  21.025  0.00  0.00    +0.000 A 
ATOM      4  C   UNL     1      -2.494  12.148  19.647  0.00  0.00    +0.000 A 
ATOM      5  N   UNL     1      -3.441  12.236  18.686  0.00  0.00    +0.000 N 
ATOM      6  N   UNL     1      -1.221  11.811  19.406  0.00  0.00    +0.000 NA
ATOM      7  H   UNL     1      -4.145  12.960  18.745  0.00  0.00    +0.000 HD
ENDROOT
BRANCH   5   8
ATOM      8  C   UNL     1      -3.480  11.493  17.483  0.00  0.00    +0.000 A 
ATOM      9  C   UNL     1      -2.413  10.653  17.119  0.00  0.00    +0.000 A 
ATOM     10  C   UNL     1      -2.387  10.008  15.884  0.00  0.00    +0.000 A 
ATOM     11  C   UNL     1      -3.433  10.206  15.002  0.00  0.00    +0.000 A 
ATOM     12  F   UNL     1      -3.402   9.614  13.800  0.00  0.00    +0.000 F 
ATOM     13  C   UNL     1      -4.514  11.018  15.339  0.00  0.00    +0.000 A 
ATOM     14  C   UNL     1      -4.537  11.661  16.581  0.00  0.00    +0.000 A 
ENDBRANCH   5   8
BRANCH   1  18
ATOM     15  N   UNL     1       1.249   8.838  19.892  0.00  0.00    +0.000 N 
ATOM     16  C   UNL     1       0.865   9.756  18.820  0.00  0.00    +0.000 C 
ATOM     17  C   UNL     1       1.371  11.144  19.182  0.00  0.00    +0.000 C 
ATOM     18  C   UNL     1       0.883  11.625  20.583  0.00  0.00    +0.000 C 
ATOM     19  C   UNL     1       1.197  10.526  21.634  0.00  0.00    +0.000 C 
ATOM     20  C   UNL     1       0.714   9.131  21.213  0.00  0.00    +0.000 C 
BRANCH  15  24
ATOM     21  C   UNL     1       3.186   5.269  19.012  0.00  0.00    +0.000 A 
ATOM     22  C   UNL     1       2.517   5.370  20.217  0.00  0.00    +0.000 A 
ATOM     23  C   UNL     1       1.875   6.573  20.521  0.00  0.00    +0.000 A 
ATOM     24  C   UNL     1       1.928   7.662  19.641  0.00  0.00    +0.000 A 
ATOM     25  C   UNL     1       2.677   7.436  18.481  0.00  0.00    +0.000 A 
ATOM     26  N   UNL     1       3.293   6.279  18.137  0.00  0.00    +0.000 NA
BRANCH  21  27
ATOM     27  O   UNL     1       3.820   4.066  18.742  0.00  0.00    +0.000 OA
BRANCH  27  29
ATOM     28  C   UNL     1       2.422   2.445  17.671  0.00  0.00    +0.000 C 
ATOM     29  C   UNL     1       3.444   3.547  17.465  0.00  0.00    +0.000 C 
ENDBRANCH  27  29
ENDBRANCH  21  27
ENDBRANCH  15  24
BRANCH  18  30
ATOM     30  C   UNL     1       1.714  12.914  20.965  0.00  0.00    +0.000 C 
BRANCH  30  31
ATOM     31  C   UNL     1       1.653  13.941  19.845  0.00  0.00    +0.000 C 
ATOM     32  N   UNL     1       1.603  14.791  18.916  0.00  0.00    +0.000 NA
ENDBRANCH  30  31
ENDBRANCH  18  30
ENDBRANCH   1  18
BRANCH   3  33
ATOM     33  C   UNL     1      -3.904  12.700  21.759  0.00  0.00    +0.000 C 
ATOM     34  N   UNL     1      -3.907  12.305  23.069  0.00  0.00    +0.000 N 
ATOM     35  O   UNL     1      -4.894  13.236  21.271  0.00  0.00    +0.000 OA
ATOM     36  H   UNL     1      -3.065  12.003  23.550  0.00  0.00    +0.000 HD
ATOM     37  H   UNL     1      -4.730  12.521  23.611  0.00  0.00    +0.000 HD
ENDBRANCH   3  33
TORSDOF 8
ENDMDL
