MODEL 1
REMARK VINA RESULT:      -7.6      0.000      0.000
REMARK  Name = 
REMARK  9 active torsions:
REMARK  status: ('A' for Active; 'I' for Inactive)
REMARK    1  A    between atoms: C_1  and  C_2
REMARK    2  A    between atoms: C_2  and  O_3
REMARK    3  A    between atoms: O_3  and  C_4
REMARK    4  A    between atoms: C_4  and  C_6
REMARK    5  A    between atoms: C_6  and  C_7
REMARK    6  A    between atoms: C_13  and  C_15
REMARK    7  A    between atoms: C_15  and  C_16
REMARK    8  A    between atoms: C_16  and  C_17
REMARK    9  A    between atoms: C_20  and  C_21
REMARK                            x       y       z     vdW  Elec       q    Type
REMARK                         _______ _______ _______ _____ _____    ______ ____
ROOT
ATOM      1  C   UNL     1       5.098   4.735  18.161  0.00  0.00    +0.000 C 
ATOM      2  C   UNL     1       4.869   3.222  18.481  0.00  0.00    +0.000 C 
ATOM      3  O   UNL     1       4.302   3.009  19.780  0.00  0.00    +0.000 OA
ATOM      4  C   UNL     1       3.042   3.679  19.868  0.00  0.00    +0.000 C 
ATOM      5  C   UNL     1       3.265   5.182  19.763  0.00  0.00    +0.000 C 
ATOM      6  N   UNL     1       3.884   5.550  18.473  0.00  0.00    +0.000 N 
ATOM      7  C   UNL     1       3.618   6.789  17.866  0.00  0.00    +0.000 C 
ATOM      8  O   UNL     1       4.225   7.220  16.891  0.00  0.00    +0.000 OA
ENDROOT
BRANCH   1   9
ATOM      9  C   UNL     1       5.764   4.867  16.782  0.00  0.00    +0.000 C 
BRANCH   9  10
ATOM     10  C   UNL     1       7.252   5.085  16.844  0.00  0.00    +0.000 C 
ATOM     11  O   UNL     1       8.094   4.218  17.036  0.00  0.00    +0.000 OA
BRANCH  10  12
ATOM     12  O   UNL     1       7.515   6.422  16.776  0.00  0.00    +0.000 OA
BRANCH  12  14
ATOM     13  C   UNL     1       7.926   8.561  17.755  0.00  0.00    +0.000 C 
ATOM     14  C   UNL     1       7.674   7.090  18.037  0.00  0.00    +0.000 C 
ENDBRANCH  12  14
ENDBRANCH  10  12
ENDBRANCH   9  10
ENDBRANCH   1   9
BRANCH   7  15
ATOM     15  C   UNL     1       2.509   7.608  18.510  0.00  0.00    +0.000 C 
BRANCH  15  16
ATOM     16  C   UNL     1       2.402   9.068  18.068  0.00  0.00    +0.000 C 
BRANCH  16  17
ATOM     17  C   UNL     1       1.064   9.607  18.450  0.00  0.00    +0.000 A 
ATOM     18  N   UNL     1       0.676  10.114  19.602  0.00  0.00    +0.000 NA
ATOM     19  N   UNL     1      -0.617  10.547  19.423  0.00  0.00    +0.000 NA
ATOM     20  C   UNL     1      -0.949  10.273  18.174  0.00  0.00    +0.000 A 
ATOM     21  O   UNL     1       0.082   9.651  17.496  0.00  0.00    +0.000 OA
BRANCH  20  22
ATOM     22  C   UNL     1      -2.263  10.642  17.570  0.00  0.00    +0.000 A 
ATOM     23  C   UNL     1      -2.661  10.351  16.230  0.00  0.00    +0.000 A 
ATOM     24  C   UNL     1      -3.951  10.763  15.971  0.00  0.00    +0.000 A 
ATOM     25  S   UNL     1      -4.661  11.532  17.324  0.00  0.00    +0.000 S 
ATOM     26  C   UNL     1      -3.252  11.296  18.272  0.00  0.00    +0.000 A 
ENDBRANCH  20  22
ENDBRANCH  16  17
ENDBRANCH  15  16
ENDBRANCH   7  15
TORSDOF 8
ENDMDL
MODEL 2
REMARK VINA RESULT:      -7.3      1.468      1.861
REMARK  Name = 
REMARK  9 active torsions:
REMARK  status: ('A' for Active; 'I' for Inactive)
REMARK    1  A    between atoms: C_1  and  C_2
REMARK    2  A    between atoms: C_2  and  O_3
REMARK    3  A    between atoms: O_3  and  C_4
REMARK    4  A    between atoms: C_4  and  C_6
REMARK    5  A    between atoms: C_6  and  C_7
REMARK    6  A    between atoms: C_13  and  C_15
REMARK    7  A    between atoms: C_15  and  C_16
REMARK    8  A    between atoms: C_16  and  C_17
REMARK    9  A    between atoms: C_20  and  C_21
REMARK                            x       y       z     vdW  Elec       q    Type
REMARK                         _______ _______ _______ _____ _____    ______ ____
ROOT
ATOM      1  C   UNL     1       3.886   4.314  19.249  0.00  0.00    +0.000 C 
ATOM      2  C   UNL     1       3.195   2.980  19.683  0.00  0.00    +0.000 C 
ATOM      3  O   UNL     1       2.456   3.109  20.905  0.00  0.00    +0.000 OA
ATOM      4  C   UNL     1       1.443   4.106  20.747  0.00  0.00    +0.000 C 
ATOM      5  C   UNL     1       2.102   5.460  20.525  0.00  0.00    +0.000 C 
ATOM      6  N   UNL     1       2.934   5.466  19.305  0.00  0.00    +0.000 N 
ATOM      7  C   UNL     1       3.105   6.635  18.546  0.00  0.00    +0.000 C 
ATOM      8  O   UNL     1       3.911   6.746  17.628  0.00  0.00    +0.000 OA
ENDROOT
BRANCH   1   9
ATOM      9  C   UNL     1       4.703   4.069  17.971  0.00  0.00    +0.000 C 
BRANCH   9  10
ATOM     10  C   UNL     1       6.157   4.438  18.100  0.00  0.00    +0.000 C 
ATOM     11  O   UNL     1       6.715   4.797  19.129  0.00  0.00    +0.000 OA
BRANCH  10  12
ATOM     12  O   UNL     1       6.736   4.431  16.864  0.00  0.00    +0.000 OA
BRANCH  12  14
ATOM     13  C   UNL     1       6.539   4.347  14.486  0.00  0.00    +0.000 C 
ATOM     14  C   UNL     1       5.930   3.897  15.802  0.00  0.00    +0.000 C 
ENDBRANCH  12  14
ENDBRANCH  10  12
ENDBRANCH   9  10
ENDBRANCH   1   9
BRANCH   7  15
ATOM     15  C   UNL     1       2.219   7.808  18.943  0.00  0.00    +0.000 C 
BRANCH  15  16
ATOM     16  C   UNL     1       2.095   8.938  17.921  0.00  0.00    +0.000 C 
BRANCH  16  17
ATOM     17  C   UNL     1       0.936   9.807  18.279  0.00  0.00    +0.000 A 
ATOM     18  N   UNL     1       0.878  10.786  19.158  0.00  0.00    +0.000 NA
ATOM     19  N   UNL     1      -0.381  11.331  19.055  0.00  0.00    +0.000 NA
ATOM     20  C   UNL     1      -1.024  10.648  18.125  0.00  0.00    +0.000 A 
ATOM     21  O   UNL     1      -0.240   9.641  17.597  0.00  0.00    +0.000 OA
BRANCH  20  22
ATOM     22  C   UNL     1      -2.411  10.970  17.678  0.00  0.00    +0.000 A 
ATOM     23  C   UNL     1      -2.913  10.772  16.355  0.00  0.00    +0.000 A 
ATOM     24  C   UNL     1      -4.246  11.109  16.252  0.00  0.00    +0.000 A 
ATOM     25  S   UNL     1      -4.875  11.698  17.730  0.00  0.00    +0.000 S 
ATOM     26  C   UNL     1      -3.371  11.483  18.523  0.00  0.00    +0.000 A 
ENDBRANCH  20  22
ENDBRANCH  16  17
ENDBRANCH  15  16
ENDBRANCH   7  15
TORSDOF 8
ENDMDL
MODEL 3
REMARK VINA RESULT:      -6.8      2.774      3.378
REMARK  Name = 
REMARK  9 active torsions:
REMARK  status: ('A' for Active; 'I' for Inactive)
REMARK    1  A    between atoms: C_1  and  C_2
REMARK    2  A    between atoms: C_2  and  O_3
REMARK    3  A    between atoms: O_3  and  C_4
REMARK    4  A    between atoms: C_4  and  C_6
REMARK    5  A    between atoms: C_6  and  C_7
REMARK    6  A    between atoms: C_13  and  C_15
REMARK    7  A    between atoms: C_15  and  C_16
REMARK    8  A    between atoms: C_16  and  C_17
REMARK    9  A    between atoms: C_20  and  C_21
REMARK                            x       y       z     vdW  Elec       q    Type
REMARK                         _______ _______ _______ _____ _____    ______ ____
ROOT
ATOM      1  C   UNL     1       4.630   4.499  17.823  0.00  0.00    +0.000 C 
ATOM      2  C   UNL     1       4.138   3.044  17.531  0.00  0.00    +0.000 C 
ATOM      3  O   UNL     1       3.199   2.568  18.504  0.00  0.00    +0.000 OA
ATOM      4  C   UNL     1       2.058   3.429  18.526  0.00  0.00    +0.000 C 
ATOM      5  C   UNL     1       2.480   4.810  19.009  0.00  0.00    +0.000 C 
ATOM      6  N   UNL     1       3.484   5.416  18.110  0.00  0.00    +0.000 N 
ATOM      7  C   UNL     1       3.556   6.807  17.931  0.00  0.00    +0.000 C 
ATOM      8  O   UNL     1       4.465   7.377  17.338  0.00  0.00    +0.000 OA
ENDROOT
BRANCH   1   9
ATOM      9  C   UNL     1       5.676   4.902  16.771  0.00  0.00    +0.000 C 
BRANCH   9  10
ATOM     10  C   UNL     1       7.068   5.049  17.325  0.00  0.00    +0.000 C 
ATOM     11  O   UNL     1       7.650   4.229  18.023  0.00  0.00    +0.000 OA
BRANCH  10  12
ATOM     12  O   UNL     1       7.541   6.295  17.031  0.00  0.00    +0.000 OA
BRANCH  12  14
ATOM     13  C   UNL     1       7.920   8.560  17.683  0.00  0.00    +0.000 C 
ATOM     14  C   UNL     1       7.864   7.121  18.161  0.00  0.00    +0.000 C 
ENDBRANCH  12  14
ENDBRANCH  10  12
ENDBRANCH   9  10
ENDBRANCH   1   9
BRANCH   7  15
ATOM     15  C   UNL     1       2.414   7.605  18.546  0.00  0.00    +0.000 C 
BRANCH  15  16
ATOM     16  C   UNL     1       1.764   8.657  17.648  0.00  0.00    +0.000 C 
BRANCH  16  17
ATOM     17  C   UNL     1       1.481   9.886  18.446  0.00  0.00    +0.000 A 
ATOM     18  N   UNL     1       0.755  10.013  19.538  0.00  0.00    +0.000 NA
ATOM     19  N   UNL     1       0.874  11.324  19.936  0.00  0.00    +0.000 NA
ATOM     20  C   UNL     1       1.659  11.926  19.061  0.00  0.00    +0.000 A 
ATOM     21  O   UNL     1       2.071  11.062  18.065  0.00  0.00    +0.000 OA
BRANCH  20  22
ATOM     22  C   UNL     1       2.079  13.354  19.176  0.00  0.00    +0.000 A 
ATOM     23  C   UNL     1       2.902  14.045  18.236  0.00  0.00    +0.000 A 
ATOM     24  C   UNL     1       3.077  15.370  18.576  0.00  0.00    +0.000 A 
ATOM     25  S   UNL     1       2.286  15.765  20.041  0.00  0.00    +0.000 S 
ATOM     26  C   UNL     1       1.685  14.169  20.215  0.00  0.00    +0.000 A 
ENDBRANCH  20  22
ENDBRANCH  16  17
ENDBRANCH  15  16
ENDBRANCH   7  15
TORSDOF 8
ENDMDL
MODEL 4
REMARK VINA RESULT:      -6.8      2.487      4.371
REMARK  Name = 
REMARK  9 active torsions:
REMARK  status: ('A' for Active; 'I' for Inactive)
REMARK    1  A    between atoms: C_1  and  C_2
REMARK    2  A    between atoms: C_2  and  O_3
REMARK    3  A    between atoms: O_3  and  C_4
REMARK    4  A    between atoms: C_4  and  C_6
REMARK    5  A    between atoms: C_6  and  C_7
REMARK    6  A    between atoms: C_13  and  C_15
REMARK    7  A    between atoms: C_15  and  C_16
REMARK    8  A    between atoms: C_16  and  C_17
REMARK    9  A    between atoms: C_20  and  C_21
REMARK                            x       y       z     vdW  Elec       q    Type
REMARK                         _______ _______ _______ _____ _____    ______ ____
ROOT
ATOM      1  C   UNL     1       5.236   4.685  18.146  0.00  0.00    +0.000 C 
ATOM      2  C   UNL     1       6.795   4.575  18.153  0.00  0.00    +0.000 C 
ATOM      3  O   UNL     1       7.405   5.255  17.048  0.00  0.00    +0.000 OA
ATOM      4  C   UNL     1       7.055   6.640  17.087  0.00  0.00    +0.000 C 
ATOM      5  C   UNL     1       5.554   6.785  16.876  0.00  0.00    +0.000 C 
ATOM      6  N   UNL     1       4.788   6.096  17.934  0.00  0.00    +0.000 N 
ATOM      7  C   UNL     1       3.533   6.570  18.349  0.00  0.00    +0.000 C 
ATOM      8  O   UNL     1       2.778   5.954  19.095  0.00  0.00    +0.000 OA
ENDROOT
BRANCH   1   9
ATOM      9  C   UNL     1       4.665   3.879  19.324  0.00  0.00    +0.000 C 
BRANCH   9  10
ATOM     10  C   UNL     1       3.842   2.690  18.904  0.00  0.00    +0.000 C 
ATOM     11  O   UNL     1       3.628   2.341  17.750  0.00  0.00    +0.000 OA
BRANCH  10  12
ATOM     12  O   UNL     1       3.267   2.128  20.006  0.00  0.00    +0.000 OA
BRANCH  12  14
ATOM     13  C   UNL     1       1.131   3.100  20.447  0.00  0.00    +0.000 C 
ATOM     14  C   UNL     1       2.584   3.037  20.884  0.00  0.00    +0.000 C 
ENDBRANCH  12  14
ENDBRANCH  10  12
ENDBRANCH   9  10
ENDBRANCH   1   9
BRANCH   7  15
ATOM     15  C   UNL     1       3.131   7.930  17.796  0.00  0.00    +0.000 C 
BRANCH  15  16
ATOM     16  C   UNL     1       1.632   8.227  17.752  0.00  0.00    +0.000 C 
BRANCH  16  17
ATOM     17  C   UNL     1       1.351   9.481  18.511  0.00  0.00    +0.000 A 
ATOM     18  N   UNL     1       1.830  10.692  18.312  0.00  0.00    +0.000 NA
ATOM     19  N   UNL     1       1.202  11.514  19.219  0.00  0.00    +0.000 NA
ATOM     20  C   UNL     1       0.382  10.758  19.926  0.00  0.00    +0.000 A 
ATOM     21  O   UNL     1       0.441   9.435  19.534  0.00  0.00    +0.000 OA
BRANCH  20  22
ATOM     22  C   UNL     1      -0.527  11.293  20.982  0.00  0.00    +0.000 A 
ATOM     23  C   UNL     1      -0.649  10.764  22.304  0.00  0.00    +0.000 A 
ATOM     24  C   UNL     1      -1.526  11.497  23.075  0.00  0.00    +0.000 A 
ATOM     25  S   UNL     1      -2.225  12.789  22.199  0.00  0.00    +0.000 S 
ATOM     26  C   UNL     1      -1.340  12.387  20.787  0.00  0.00    +0.000 A 
ENDBRANCH  20  22
ENDBRANCH  16  17
ENDBRANCH  15  16
ENDBRANCH   7  15
TORSDOF 8
ENDMDL
MODEL 5
REMARK VINA RESULT:      -6.8      3.055      3.430
REMARK  Name = 
REMARK  9 active torsions:
REMARK  status: ('A' for Active; 'I' for Inactive)
REMARK    1  A    between atoms: C_1  and  C_2
REMARK    2  A    between atoms: C_2  and  O_3
REMARK    3  A    between atoms: O_3  and  C_4
REMARK    4  A    between atoms: C_4  and  C_6
REMARK    5  A    between atoms: C_6  and  C_7
REMARK    6  A    between atoms: C_13  and  C_15
REMARK    7  A    between atoms: C_15  and  C_16
REMARK    8  A    between atoms: C_16  and  C_17
REMARK    9  A    between atoms: C_20  and  C_21
REMARK                            x       y       z     vdW  Elec       q    Type
REMARK                         _______ _______ _______ _____ _____    ______ ____
ROOT
ATOM      1  C   UNL     1       3.024   3.977  18.863  0.00  0.00    +0.000 C 
ATOM      2  C   UNL     1       2.266   2.612  18.954  0.00  0.00    +0.000 C 
ATOM      3  O   UNL     1       1.908   2.264  20.298  0.00  0.00    +0.000 OA
ATOM      4  C   UNL     1       1.065   3.280  20.846  0.00  0.00    +0.000 C 
ATOM      5  C   UNL     1       1.852   4.579  20.958  0.00  0.00    +0.000 C 
ATOM      6  N   UNL     1       2.321   5.046  19.637  0.00  0.00    +0.000 N 
ATOM      7  C   UNL     1       2.472   6.414  19.360  0.00  0.00    +0.000 C 
ATOM      8  O   UNL     1       3.012   6.855  18.351  0.00  0.00    +0.000 OA
ENDROOT
BRANCH   1   9
ATOM      9  C   UNL     1       3.424   4.239  17.402  0.00  0.00    +0.000 C 
BRANCH   9  10
ATOM     10  C   UNL     1       4.910   4.205  17.163  0.00  0.00    +0.000 C 
ATOM     11  O   UNL     1       5.456   4.037  16.081  0.00  0.00    +0.000 OA
BRANCH  10  12
ATOM     12  O   UNL     1       5.561   4.268  18.361  0.00  0.00    +0.000 OA
BRANCH  12  14
ATOM     13  C   UNL     1       7.724   5.277  18.402  0.00  0.00    +0.000 C 
ATOM     14  C   UNL     1       6.241   5.503  18.635  0.00  0.00    +0.000 C 
ENDBRANCH  12  14
ENDBRANCH  10  12
ENDBRANCH   9  10
ENDBRANCH   1   9
BRANCH   7  15
ATOM     15  C   UNL     1       1.924   7.360  20.420  0.00  0.00    +0.000 C 
BRANCH  15  16
ATOM     16  C   UNL     1       1.489   8.743  19.933  0.00  0.00    +0.000 C 
BRANCH  16  17
ATOM     17  C   UNL     1       0.778   9.457  21.033  0.00  0.00    +0.000 A 
ATOM     18  N   UNL     1       1.088   9.522  22.311  0.00  0.00    +0.000 NA
ATOM     19  N   UNL     1       0.173  10.369  22.893  0.00  0.00    +0.000 NA
ATOM     20  C   UNL     1      -0.649  10.766  21.939  0.00  0.00    +0.000 A 
ATOM     21  O   UNL     1      -0.328  10.202  20.720  0.00  0.00    +0.000 OA
BRANCH  20  22
ATOM     22  C   UNL     1      -1.756  11.743  22.159  0.00  0.00    +0.000 A 
ATOM     23  C   UNL     1      -2.294  12.612  21.161  0.00  0.00    +0.000 A 
ATOM     24  C   UNL     1      -3.345  13.364  21.641  0.00  0.00    +0.000 A 
ATOM     25  S   UNL     1      -3.654  13.051  23.295  0.00  0.00    +0.000 S 
ATOM     26  C   UNL     1      -2.395  11.890  23.371  0.00  0.00    +0.000 A 
ENDBRANCH  20  22
ENDBRANCH  16  17
ENDBRANCH  15  16
ENDBRANCH   7  15
TORSDOF 8
ENDMDL
MODEL 6
REMARK VINA RESULT:      -6.7      2.811      4.710
REMARK  Name = 
REMARK  9 active torsions:
REMARK  status: ('A' for Active; 'I' for Inactive)
REMARK    1  A    between atoms: C_1  and  C_2
REMARK    2  A    between atoms: C_2  and  O_3
REMARK    3  A    between atoms: O_3  and  C_4
REMARK    4  A    between atoms: C_4  and  C_6
REMARK    5  A    between atoms: C_6  and  C_7
REMARK    6  A    between atoms: C_13  and  C_15
REMARK    7  A    between atoms: C_15  and  C_16
REMARK    8  A    between atoms: C_16  and  C_17
REMARK    9  A    between atoms: C_20  and  C_21
REMARK                            x       y       z     vdW  Elec       q    Type
REMARK                         _______ _______ _______ _____ _____    ______ ____
ROOT
ATOM      1  C   UNL     1       5.391   4.633  18.105  0.00  0.00    +0.000 C 
ATOM      2  C   UNL     1       6.951   4.528  18.083  0.00  0.00    +0.000 C 
ATOM      3  O   UNL     1       7.539   5.232  16.982  0.00  0.00    +0.000 OA
ATOM      4  C   UNL     1       7.186   6.616  17.055  0.00  0.00    +0.000 C 
ATOM      5  C   UNL     1       5.681   6.759  16.873  0.00  0.00    +0.000 C 
ATOM      6  N   UNL     1       4.935   6.046  17.930  0.00  0.00    +0.000 N 
ATOM      7  C   UNL     1       3.685   6.506  18.376  0.00  0.00    +0.000 C 
ATOM      8  O   UNL     1       2.946   5.872  19.121  0.00  0.00    +0.000 OA
ENDROOT
BRANCH   1   9
ATOM      9  C   UNL     1       4.843   3.800  19.275  0.00  0.00    +0.000 C 
BRANCH   9  10
ATOM     10  C   UNL     1       3.922   2.687  18.850  0.00  0.00    +0.000 C 
ATOM     11  O   UNL     1       3.759   2.295  17.702  0.00  0.00    +0.000 OA
BRANCH  10  12
ATOM     12  O   UNL     1       3.203   2.260  19.928  0.00  0.00    +0.000 OA
BRANCH  12  14
ATOM     13  C   UNL     1       1.384   2.783  21.384  0.00  0.00    +0.000 C 
ATOM     14  C   UNL     1       1.815   2.630  19.936  0.00  0.00    +0.000 C 
ENDBRANCH  12  14
ENDBRANCH  10  12
ENDBRANCH   9  10
ENDBRANCH   1   9
BRANCH   7  15
ATOM     15  C   UNL     1       3.270   7.876  17.858  0.00  0.00    +0.000 C 
BRANCH  15  16
ATOM     16  C   UNL     1       1.767   8.144  17.782  0.00  0.00    +0.000 C 
BRANCH  16  17
ATOM     17  C   UNL     1       1.455   9.430  18.472  0.00  0.00    +0.000 A 
ATOM     18  N   UNL     1       0.826   9.624  19.613  0.00  0.00    +0.000 NA
ATOM     19  N   UNL     1       0.868  10.977  19.857  0.00  0.00    +0.000 NA
ATOM     20  C   UNL     1       1.512  11.534  18.847  0.00  0.00    +0.000 A 
ATOM     21  O   UNL     1       1.902  10.596  17.911  0.00  0.00    +0.000 OA
BRANCH  20  22
ATOM     22  C   UNL     1       1.816  12.993  18.768  0.00  0.00    +0.000 A 
ATOM     23  C   UNL     1       3.010  13.554  18.221  0.00  0.00    +0.000 A 
ATOM     24  C   UNL     1       2.987  14.932  18.233  0.00  0.00    +0.000 A 
ATOM     25  S   UNL     1       1.552  15.544  18.934  0.00  0.00    +0.000 S 
ATOM     26  C   UNL     1       0.943  13.965  19.207  0.00  0.00    +0.000 A 
ENDBRANCH  20  22
ENDBRANCH  16  17
ENDBRANCH  15  16
ENDBRANCH   7  15
TORSDOF 8
ENDMDL
MODEL 7
REMARK VINA RESULT:      -6.7      3.370      3.834
REMARK  Name = 
REMARK  9 active torsions:
REMARK  status: ('A' for Active; 'I' for Inactive)
REMARK    1  A    between atoms: C_1  and  C_2
REMARK    2  A    between atoms: C_2  and  O_3
REMARK    3  A    between atoms: O_3  and  C_4
REMARK    4  A    between atoms: C_4  and  C_6
REMARK    5  A    between atoms: C_6  and  C_7
REMARK    6  A    between atoms: C_13  and  C_15
REMARK    7  A    between atoms: C_15  and  C_16
REMARK    8  A    between atoms: C_16  and  C_17
REMARK    9  A    between atoms: C_20  and  C_21
REMARK                            x       y       z     vdW  Elec       q    Type
REMARK                         _______ _______ _______ _____ _____    ______ ____
ROOT
ATOM      1  C   UNL     1       3.514   5.007  18.833  0.00  0.00    +0.000 C 
ATOM      2  C   UNL     1       3.182   3.480  18.851  0.00  0.00    +0.000 C 
ATOM      3  O   UNL     1       2.972   2.972  20.175  0.00  0.00    +0.000 OA
ATOM      4  C   UNL     1       1.887   3.672  20.789  0.00  0.00    +0.000 C 
ATOM      5  C   UNL     1       2.272   5.134  20.970  0.00  0.00    +0.000 C 
ATOM      6  N   UNL     1       2.554   5.786  19.675  0.00  0.00    +0.000 N 
ATOM      7  C   UNL     1       2.300   7.153  19.477  0.00  0.00    +0.000 C 
ATOM      8  O   UNL     1       2.666   7.784  18.492  0.00  0.00    +0.000 OA
ENDROOT
BRANCH   1   9
ATOM      9  C   UNL     1       3.785   5.451  17.387  0.00  0.00    +0.000 C 
BRANCH   9  10
ATOM     10  C   UNL     1       5.080   4.930  16.823  0.00  0.00    +0.000 C 
ATOM     11  O   UNL     1       5.351   3.752  16.628  0.00  0.00    +0.000 OA
BRANCH  10  12
ATOM     12  O   UNL     1       5.957   5.964  16.677  0.00  0.00    +0.000 OA
BRANCH  12  14
ATOM     13  C   UNL     1       7.553   7.502  17.565  0.00  0.00    +0.000 C 
ATOM     14  C   UNL     1       6.883   6.154  17.758  0.00  0.00    +0.000 C 
ENDBRANCH  12  14
ENDBRANCH  10  12
ENDBRANCH   9  10
ENDBRANCH   1   9
BRANCH   7  15
ATOM     15  C   UNL     1       1.532   7.843  20.596  0.00  0.00    +0.000 C 
BRANCH  15  16
ATOM     16  C   UNL     1       0.987   9.237  20.282  0.00  0.00    +0.000 C 
BRANCH  16  17
ATOM     17  C   UNL     1       0.375   9.820  21.512  0.00  0.00    +0.000 A 
ATOM     18  N   UNL     1       0.637   9.548  22.774  0.00  0.00    +0.000 NA
ATOM     19  N   UNL     1      -0.128  10.409  23.527  0.00  0.00    +0.000 NA
ATOM     20  C   UNL     1      -0.819  11.153  22.682  0.00  0.00    +0.000 A 
ATOM     21  O   UNL     1      -0.556  10.815  21.369  0.00  0.00    +0.000 OA
BRANCH  20  22
ATOM     22  C   UNL     1      -1.731  12.255  23.111  0.00  0.00    +0.000 A 
ATOM     23  C   UNL     1      -3.133  12.114  23.343  0.00  0.00    +0.000 A 
ATOM     24  C   UNL     1      -3.705  13.289  23.784  0.00  0.00    +0.000 A 
ATOM     25  S   UNL     1      -2.564  14.561  23.877  0.00  0.00    +0.000 S 
ATOM     26  C   UNL     1      -1.293  13.539  23.350  0.00  0.00    +0.000 A 
ENDBRANCH  20  22
ENDBRANCH  16  17
ENDBRANCH  15  16
ENDBRANCH   7  15
TORSDOF 8
ENDMDL
MODEL 8
REMARK VINA RESULT:      -6.7      2.034      2.436
REMARK  Name = 
REMARK  9 active torsions:
REMARK  status: ('A' for Active; 'I' for Inactive)
REMARK    1  A    between atoms: C_1  and  C_2
REMARK    2  A    between atoms: C_2  and  O_3
REMARK    3  A    between atoms: O_3  and  C_4
REMARK    4  A    between atoms: C_4  and  C_6
REMARK    5  A    between atoms: C_6  and  C_7
REMARK    6  A    between atoms: C_13  and  C_15
REMARK    7  A    between atoms: C_15  and  C_16
REMARK    8  A    between atoms: C_16  and  C_17
REMARK    9  A    between atoms: C_20  and  C_21
REMARK                            x       y       z     vdW  Elec       q    Type
REMARK                         _______ _______ _______ _____ _____    ______ ____
ROOT
ATOM      1  C   UNL     1       3.782   4.691  19.589  0.00  0.00    +0.000 C 
ATOM      2  C   UNL     1       3.615   3.138  19.519  0.00  0.00    +0.000 C 
ATOM      3  O   UNL     1       3.133   2.575  20.746  0.00  0.00    +0.000 OA
ATOM      4  C   UNL     1       1.863   3.146  21.067  0.00  0.00    +0.000 C 
ATOM      5  C   UNL     1       2.037   4.634  21.342  0.00  0.00    +0.000 C 
ATOM      6  N   UNL     1       2.567   5.346  20.162  0.00  0.00    +0.000 N 
ATOM      7  C   UNL     1       2.230   6.686  19.909  0.00  0.00    +0.000 C 
ATOM      8  O   UNL     1       2.765   7.378  19.049  0.00  0.00    +0.000 OA
ENDROOT
BRANCH   1   9
ATOM      9  C   UNL     1       4.360   5.200  18.258  0.00  0.00    +0.000 C 
BRANCH   9  10
ATOM     10  C   UNL     1       5.560   4.425  17.781  0.00  0.00    +0.000 C 
ATOM     11  O   UNL     1       6.677   4.460  18.281  0.00  0.00    +0.000 OA
BRANCH  10  12
ATOM     12  O   UNL     1       5.244   3.769  16.627  0.00  0.00    +0.000 OA
BRANCH  12  14
ATOM     13  C   UNL     1       5.931   5.209  14.851  0.00  0.00    +0.000 C 
ATOM     14  C   UNL     1       6.197   3.894  15.560  0.00  0.00    +0.000 C 
ENDBRANCH  12  14
ENDBRANCH  10  12
ENDBRANCH   9  10
ENDBRANCH   1   9
BRANCH   7  15
ATOM     15  C   UNL     1       1.139   7.265  20.799  0.00  0.00    +0.000 C 
BRANCH  15  16
ATOM     16  C   UNL     1       1.420   8.640  21.407  0.00  0.00    +0.000 C 
BRANCH  16  17
ATOM     17  C   UNL     1       0.697   9.687  20.626  0.00  0.00    +0.000 A 
ATOM     18  N   UNL     1       0.985  10.965  20.494  0.00  0.00    +0.000 NA
ATOM     19  N   UNL     1       0.069  11.483  19.608  0.00  0.00    +0.000 NA
ATOM     20  C   UNL     1      -0.733  10.493  19.257  0.00  0.00    +0.000 A 
ATOM     21  O   UNL     1      -0.395   9.313  19.889  0.00  0.00    +0.000 OA
BRANCH  20  22
ATOM     22  C   UNL     1      -1.833  10.640  18.258  0.00  0.00    +0.000 A 
ATOM     23  C   UNL     1      -2.973  11.486  18.412  0.00  0.00    +0.000 A 
ATOM     24  C   UNL     1      -3.792  11.458  17.304  0.00  0.00    +0.000 A 
ATOM     25  S   UNL     1      -3.210  10.387  16.104  0.00  0.00    +0.000 S 
ATOM     26  C   UNL     1      -1.844   9.972  17.053  0.00  0.00    +0.000 A 
ENDBRANCH  20  22
ENDBRANCH  16  17
ENDBRANCH  15  16
ENDBRANCH   7  15
TORSDOF 8
ENDMDL
MODEL 9
REMARK VINA RESULT:      -6.7      1.786      2.278
REMARK  Name = 
REMARK  9 active torsions:
REMARK  status: ('A' for Active; 'I' for Inactive)
REMARK    1  A    between atoms: C_1  and  C_2
REMARK    2  A    between atoms: C_2  and  O_3
REMARK    3  A    between atoms: O_3  and  C_4
REMARK    4  A    between atoms: C_4  and  C_6
REMARK    5  A    between atoms: C_6  and  C_7
REMARK    6  A    between atoms: C_13  and  C_15
REMARK    7  A    between atoms: C_15  and  C_16
REMARK    8  A    between atoms: C_16  and  C_17
REMARK    9  A    between atoms: C_20  and  C_21
REMARK                            x       y       z     vdW  Elec       q    Type
REMARK                         _______ _______ _______ _____ _____    ______ ____
ROOT
ATOM      1  C   UNL     1       3.467   4.698  18.897  0.00  0.00    +0.000 C 
ATOM      2  C   UNL     1       3.090   3.183  18.827  0.00  0.00    +0.000 C 
ATOM      3  O   UNL     1       2.804   2.621  20.114  0.00  0.00    +0.000 OA
ATOM      4  C   UNL     1       1.712   3.326  20.711  0.00  0.00    +0.000 C 
ATOM      5  C   UNL     1       2.130   4.766  20.978  0.00  0.00    +0.000 C 
ATOM      6  N   UNL     1       2.492   5.467  19.729  0.00  0.00    +0.000 N 
ATOM      7  C   UNL     1       2.287   6.849  19.585  0.00  0.00    +0.000 C 
ATOM      8  O   UNL     1       2.717   7.513  18.649  0.00  0.00    +0.000 OA
ENDROOT
BRANCH   1   9
ATOM      9  C   UNL     1       3.818   5.199  17.487  0.00  0.00    +0.000 C 
BRANCH   9  10
ATOM     10  C   UNL     1       5.296   5.373  17.254  0.00  0.00    +0.000 C 
ATOM     11  O   UNL     1       5.917   6.422  17.363  0.00  0.00    +0.000 OA
BRANCH  10  12
ATOM     12  O   UNL     1       5.819   4.205  16.783  0.00  0.00    +0.000 OA
BRANCH  12  14
ATOM     13  C   UNL     1       5.793   4.282  14.397  0.00  0.00    +0.000 C 
ATOM     14  C   UNL     1       6.672   4.324  15.634  0.00  0.00    +0.000 C 
ENDBRANCH  12  14
ENDBRANCH  10  12
ENDBRANCH   9  10
ENDBRANCH   1   9
BRANCH   7  15
ATOM     15  C   UNL     1       1.487   7.511  20.699  0.00  0.00    +0.000 C 
BRANCH  15  16
ATOM     16  C   UNL     1       1.732   9.005  20.912  0.00  0.00    +0.000 C 
BRANCH  16  17
ATOM     17  C   UNL     1       0.510   9.769  20.527  0.00  0.00    +0.000 A 
ATOM     18  N   UNL     1      -0.074  10.766  21.159  0.00  0.00    +0.000 NA
ATOM     19  N   UNL     1      -1.112  11.183  20.358  0.00  0.00    +0.000 NA
ATOM     20  C   UNL     1      -1.109  10.412  19.286  0.00  0.00    +0.000 A 
ATOM     21  O   UNL     1      -0.101   9.468  19.338  0.00  0.00    +0.000 OA
BRANCH  20  22
ATOM     22  C   UNL     1      -2.055  10.584  18.144  0.00  0.00    +0.000 A 
ATOM     23  C   UNL     1      -1.969   9.893  16.897  0.00  0.00    +0.000 A 
ATOM     24  C   UNL     1      -3.012  10.215  16.054  0.00  0.00    +0.000 A 
ATOM     25  S   UNL     1      -4.064  11.371  16.749  0.00  0.00    +0.000 S 
ATOM     26  C   UNL     1      -3.140  11.431  18.192  0.00  0.00    +0.000 A 
ENDBRANCH  20  22
ENDBRANCH  16  17
ENDBRANCH  15  16
ENDBRANCH   7  15
TORSDOF 8
ENDMDL
