MODEL 1
REMARK VINA RESULT:      -6.7      0.000      0.000
REMARK  Name = 
REMARK  5 active torsions:
REMARK  status: ('A' for Active; 'I' for Inactive)
REMARK    1  A    between atoms: C_1  and  O_2
REMARK    2  A    between atoms: O_2  and  C_3
REMARK    3  A    between atoms: C_8  and  O_9
REMARK    4  A    between atoms: O_9  and  C_10
REMARK    5  A    between atoms: C_29  and  O_30
REMARK                            x       y       z     vdW  Elec       q    Type
REMARK                         _______ _______ _______ _____ _____    ______ ____
ROOT
ATOM      1  C   UNL     1      -1.953  10.847  17.919  0.00  0.00    +0.000 A 
ATOM      2  C   UNL     1      -3.152  11.280  18.512  0.00  0.00    +0.000 A 
ATOM      3  C   UNL     1      -3.097  11.969  19.715  0.00  0.00    +0.000 A 
ATOM      4  C   UNL     1      -1.893  12.255  20.368  0.00  0.00    +0.000 A 
ATOM      5  C   UNL     1      -0.718  11.759  19.822  0.00  0.00    +0.000 A 
ATOM      6  C   UNL     1      -0.731  11.073  18.593  0.00  0.00    +0.000 A 
ATOM      7  C   UNL     1      -2.076  13.262  21.512  0.00  0.00    +0.000 C 
ATOM      8  C   UNL     1      -1.048  14.422  21.439  0.00  0.00    +0.000 C 
ATOM      9  C   UNL     1      -0.419  14.539  22.824  0.00  0.00    +0.000 C 
ATOM     10  N   UNL     1      -1.372  13.942  23.739  0.00  0.00    +0.000 NA
ATOM     11  C   UNL     1      -2.209  14.871  24.535  0.00  0.00    +0.000 C 
ATOM     12  C   UNL     1      -3.700  14.867  24.269  0.00  0.00    +0.000 C 
ATOM     13  C   UNL     1      -4.571  15.915  24.324  0.00  0.00    +0.000 C 
ATOM     14  C   UNL     1      -6.026  15.970  23.760  0.00  0.00    +0.000 C 
ATOM     15  O   UNL     1      -6.309  15.514  22.394  0.00  0.00    +0.000 OA
ATOM     16  C   UNL     1      -5.923  14.161  22.067  0.00  0.00    +0.000 C 
ATOM     17  C   UNL     1      -6.377  13.644  20.705  0.00  0.00    +0.000 C 
ATOM     18  C   UNL     1      -5.504  12.512  20.143  0.00  0.00    +0.000 C 
ATOM     19  O   UNL     1      -6.016  11.579  19.530  0.00  0.00    +0.000 OA
ATOM     20  N   UNL     1      -4.147  12.631  20.364  0.00  0.00    +0.000 N 
ATOM     21  C   UNL     1      -3.534  13.703  21.113  0.00  0.00    +0.000 C 
ATOM     22  C   UNL     1      -4.421  14.166  22.216  0.00  0.00    +0.000 C 
ATOM     23  C   UNL     1      -4.182  13.624  23.617  0.00  0.00    +0.000 C 
ATOM     24  C   UNL     1      -3.249  12.440  23.691  0.00  0.00    +0.000 C 
ATOM     25  C   UNL     1      -1.956  12.807  23.010  0.00  0.00    +0.000 C 
ENDROOT
BRANCH   1  27
ATOM     26  C   UNL     1      -2.706  10.694  15.643  0.00  0.00    +0.000 C 
ATOM     27  O   UNL     1      -1.918  10.191  16.716  0.00  0.00    +0.000 OA
ENDBRANCH   1  27
BRANCH   6  28
ATOM     28  O   UNL     1       0.539  10.735  18.189  0.00  0.00    +0.000 OA
ATOM     29  C   UNL     1       1.160   9.594  18.764  0.00  0.00    +0.000 C 
ENDBRANCH   6  28
BRANCH  25  30
ATOM     30  O   UNL     1      -1.070  11.700  23.114  0.00  0.00    +0.000 OA
ATOM     31  H   UNL     1      -0.588  11.629  22.271  0.00  0.00    +0.000 HD
ENDBRANCH  25  30
TORSDOF 3
ENDMDL
MODEL 2
REMARK VINA RESULT:      -6.5      2.057      6.121
REMARK  Name = 
REMARK  5 active torsions:
REMARK  status: ('A' for Active; 'I' for Inactive)
REMARK    1  A    between atoms: C_1  and  O_2
REMARK    2  A    between atoms: O_2  and  C_3
REMARK    3  A    between atoms: C_8  and  O_9
REMARK    4  A    between atoms: O_9  and  C_10
REMARK    5  A    between atoms: C_29  and  O_30
REMARK                            x       y       z     vdW  Elec       q    Type
REMARK                         _______ _______ _______ _____ _____    ______ ____
ROOT
ATOM      1  C   UNL     1      -3.012  15.233  24.065  0.00  0.00    +0.000 A 
ATOM      2  C   UNL     1      -3.653  14.811  22.887  0.00  0.00    +0.000 A 
ATOM      3  C   UNL     1      -2.948  14.036  21.978  0.00  0.00    +0.000 A 
ATOM      4  C   UNL     1      -1.618  13.653  22.183  0.00  0.00    +0.000 A 
ATOM      5  C   UNL     1      -0.962  14.137  23.307  0.00  0.00    +0.000 A 
ATOM      6  C   UNL     1      -1.650  14.908  24.262  0.00  0.00    +0.000 A 
ATOM      7  C   UNL     1      -1.161  12.576  21.188  0.00  0.00    +0.000 C 
ATOM      8  C   UNL     1      -0.470  11.382  21.897  0.00  0.00    +0.000 C 
ATOM      9  C   UNL     1       0.847  11.140  21.166  0.00  0.00    +0.000 C 
ATOM     10  N   UNL     1       0.672  11.711  19.845  0.00  0.00    +0.000 NA
ATOM     11  C   UNL     1       0.403  10.764  18.737  0.00  0.00    +0.000 C 
ATOM     12  C   UNL     1      -0.948  10.851  18.059  0.00  0.00    +0.000 C 
ATOM     13  C   UNL     1      -1.693   9.839  17.528  0.00  0.00    +0.000 C 
ATOM     14  C   UNL     1      -3.199   9.886  17.113  0.00  0.00    +0.000 C 
ATOM     15  O   UNL     1      -4.201  10.450  18.025  0.00  0.00    +0.000 OA
ATOM     16  C   UNL     1      -3.983  11.805  18.475  0.00  0.00    +0.000 C 
ATOM     17  C   UNL     1      -5.116  12.436  19.279  0.00  0.00    +0.000 C 
ATOM     18  C   UNL     1      -4.663  13.567  20.215  0.00  0.00    +0.000 C 
ATOM     19  O   UNL     1      -5.366  14.563  20.371  0.00  0.00    +0.000 OA
ATOM     20  N   UNL     1      -3.454  13.375  20.852  0.00  0.00    +0.000 N 
ATOM     21  C   UNL     1      -2.600  12.228  20.651  0.00  0.00    +0.000 C 
ATOM     22  C   UNL     1      -2.692  11.726  19.252  0.00  0.00    +0.000 C 
ATOM     23  C   UNL     1      -1.626  12.157  18.255  0.00  0.00    +0.000 C 
ATOM     24  C   UNL     1      -0.744  13.291  18.715  0.00  0.00    +0.000 C 
ATOM     25  C   UNL     1      -0.141  12.918  20.044  0.00  0.00    +0.000 C 
ENDROOT
BRANCH   1  27
ATOM     26  C   UNL     1      -4.858  16.637  24.691  0.00  0.00    +0.000 C 
ATOM     27  O   UNL     1      -3.647  15.971  25.030  0.00  0.00    +0.000 OA
ENDBRANCH   1  27
BRANCH   6  28
ATOM     28  O   UNL     1      -0.846  15.220  25.333  0.00  0.00    +0.000 OA
ATOM     29  C   UNL     1      -0.302  16.528  25.424  0.00  0.00    +0.000 C 
ENDBRANCH   6  28
BRANCH  25  30
ATOM     30  O   UNL     1       0.714  13.976  20.455  0.00  0.00    +0.000 OA
ATOM     31  H   UNL     1       0.155  14.677  20.837  0.00  0.00    +0.000 HD
ENDBRANCH  25  30
TORSDOF 3
ENDMDL
MODEL 3
REMARK VINA RESULT:      -6.4     11.101     13.905
REMARK  Name = 
REMARK  5 active torsions:
REMARK  status: ('A' for Active; 'I' for Inactive)
REMARK    1  A    between atoms: C_1  and  O_2
REMARK    2  A    between atoms: O_2  and  C_3
REMARK    3  A    between atoms: C_8  and  O_9
REMARK    4  A    between atoms: O_9  and  C_10
REMARK    5  A    between atoms: C_29  and  O_30
REMARK                            x       y       z     vdW  Elec       q    Type
REMARK                         _______ _______ _______ _____ _____    ______ ____
ROOT
ATOM      1  C   UNL     1       8.039  12.625  24.394  0.00  0.00    +0.000 A 
ATOM      2  C   UNL     1       8.503  12.094  23.178  0.00  0.00    +0.000 A 
ATOM      3  C   UNL     1       8.906  12.962  22.175  0.00  0.00    +0.000 A 
ATOM      4  C   UNL     1       8.872  14.353  22.320  0.00  0.00    +0.000 A 
ATOM      5  C   UNL     1       8.339  14.877  23.490  0.00  0.00    +0.000 A 
ATOM      6  C   UNL     1       7.939  14.028  24.539  0.00  0.00    +0.000 A 
ATOM      7  C   UNL     1       9.628  15.076  21.196  0.00  0.00    +0.000 C 
ATOM      8  C   UNL     1      10.617  16.136  21.746  0.00  0.00    +0.000 C 
ATOM      9  C   UNL     1      10.346  17.428  20.981  0.00  0.00    +0.000 C 
ATOM     10  N   UNL     1       9.711  17.024  19.742  0.00  0.00    +0.000 NA
ATOM     11  C   UNL     1      10.560  17.012  18.527  0.00  0.00    +0.000 C 
ATOM     12  C   UNL     1      10.825  15.671  17.876  0.00  0.00    +0.000 C 
ATOM     13  C   UNL     1      11.952  15.254  17.229  0.00  0.00    +0.000 C 
ATOM     14  C   UNL     1      12.333  13.791  16.835  0.00  0.00    +0.000 C 
ATOM     15  O   UNL     1      12.223  12.706  17.816  0.00  0.00    +0.000 OA
ATOM     16  C   UNL     1      10.930  12.513  18.430  0.00  0.00    +0.000 C 
ATOM     17  C   UNL     1      10.784  11.278  19.314  0.00  0.00    +0.000 C 
ATOM     18  C   UNL     1       9.684  11.399  20.380  0.00  0.00    +0.000 C 
ATOM     19  O   UNL     1       8.986  10.429  20.664  0.00  0.00    +0.000 OA
ATOM     20  N   UNL     1       9.558  12.636  20.979  0.00  0.00    +0.000 N 
ATOM     21  C   UNL     1      10.347  13.794  20.631  0.00  0.00    +0.000 C 
ATOM     22  C   UNL     1      10.688  13.799  19.181  0.00  0.00    +0.000 C 
ATOM     23  C   UNL     1       9.831  14.630  18.237  0.00  0.00    +0.000 C 
ATOM     24  C   UNL     1       8.538  15.135  18.828  0.00  0.00    +0.000 C 
ATOM     25  C   UNL     1       8.852  15.884  20.096  0.00  0.00    +0.000 C 
ENDROOT
BRANCH   1  27
ATOM     26  C   UNL     1       6.293  11.433  25.537  0.00  0.00    +0.000 C 
ATOM     27  O   UNL     1       7.655  11.837  25.448  0.00  0.00    +0.000 OA
ENDBRANCH   1  27
BRANCH   6  28
ATOM     28  O   UNL     1       7.516  14.743  25.634  0.00  0.00    +0.000 OA
ATOM     29  C   UNL     1       6.706  15.891  25.432  0.00  0.00    +0.000 C 
ENDBRANCH   6  28
BRANCH  25  30
ATOM     30  O   UNL     1       7.634  16.386  20.628  0.00  0.00    +0.000 OA
ATOM     31  H   UNL     1       7.708  16.371  21.600  0.00  0.00    +0.000 HD
ENDBRANCH  25  30
TORSDOF 3
ENDMDL
MODEL 4
REMARK VINA RESULT:      -6.4      3.296      7.175
REMARK  Name = 
REMARK  5 active torsions:
REMARK  status: ('A' for Active; 'I' for Inactive)
REMARK    1  A    between atoms: C_1  and  O_2
REMARK    2  A    between atoms: O_2  and  C_3
REMARK    3  A    between atoms: C_8  and  O_9
REMARK    4  A    between atoms: O_9  and  C_10
REMARK    5  A    between atoms: C_29  and  O_30
REMARK                            x       y       z     vdW  Elec       q    Type
REMARK                         _______ _______ _______ _____ _____    ______ ____
ROOT
ATOM      1  C   UNL     1      -1.046  15.395  23.311  0.00  0.00    +0.000 A 
ATOM      2  C   UNL     1      -1.170  13.994  23.304  0.00  0.00    +0.000 A 
ATOM      3  C   UNL     1      -0.604  13.274  22.262  0.00  0.00    +0.000 A 
ATOM      4  C   UNL     1       0.091  13.883  21.212  0.00  0.00    +0.000 A 
ATOM      5  C   UNL     1       0.144  15.270  21.179  0.00  0.00    +0.000 A 
ATOM      6  C   UNL     1      -0.400  16.034  22.228  0.00  0.00    +0.000 A 
ATOM      7  C   UNL     1       0.857  12.868  20.353  0.00  0.00    +0.000 C 
ATOM      8  C   UNL     1       2.332  13.290  20.125  0.00  0.00    +0.000 C 
ATOM      9  C   UNL     1       2.591  13.191  18.625  0.00  0.00    +0.000 C 
ATOM     10  N   UNL     1       1.600  12.263  18.117  0.00  0.00    +0.000 NA
ATOM     11  C   UNL     1       2.059  10.883  17.832  0.00  0.00    +0.000 C 
ATOM     12  C   UNL     1       1.480   9.767  18.676  0.00  0.00    +0.000 C 
ATOM     13  C   UNL     1       2.088   8.618  19.090  0.00  0.00    +0.000 C 
ATOM     14  C   UNL     1       1.599   7.631  20.198  0.00  0.00    +0.000 C 
ATOM     15  O   UNL     1       1.167   8.140  21.505  0.00  0.00    +0.000 OA
ATOM     16  C   UNL     1       0.107   9.122  21.503  0.00  0.00    +0.000 C 
ATOM     17  C   UNL     1      -0.450   9.512  22.869  0.00  0.00    +0.000 C 
ATOM     18  C   UNL     1      -1.097  10.905  22.906  0.00  0.00    +0.000 C 
ATOM     19  O   UNL     1      -2.110  11.101  23.571  0.00  0.00    +0.000 OA
ATOM     20  N   UNL     1      -0.463  11.884  22.168  0.00  0.00    +0.000 N 
ATOM     21  C   UNL     1       0.707  11.660  21.353  0.00  0.00    +0.000 C 
ATOM     22  C   UNL     1       0.699  10.294  20.760  0.00  0.00    +0.000 C 
ATOM     23  C   UNL     1       0.198  10.126  19.333  0.00  0.00    +0.000 C 
ATOM     24  C   UNL     1      -0.517  11.325  18.762  0.00  0.00    +0.000 C 
ATOM     25  C   UNL     1       0.382  12.526  18.896  0.00  0.00    +0.000 C 
ENDROOT
BRANCH   1  27
ATOM     26  C   UNL     1      -1.613  15.633  25.634  0.00  0.00    +0.000 C 
ATOM     27  O   UNL     1      -1.546  16.176  24.320  0.00  0.00    +0.000 OA
ENDBRANCH   1  27
BRANCH   6  28
ATOM     28  O   UNL     1      -0.175  17.378  22.044  0.00  0.00    +0.000 OA
ATOM     29  C   UNL     1      -0.174  17.898  20.723  0.00  0.00    +0.000 C 
ENDBRANCH   6  28
BRANCH  25  30
ATOM     30  O   UNL     1      -0.285  13.645  18.326  0.00  0.00    +0.000 OA
ATOM     31  H   UNL     1      -1.213  13.390  18.176  0.00  0.00    +0.000 HD
ENDBRANCH  25  30
TORSDOF 3
ENDMDL
MODEL 5
REMARK VINA RESULT:      -6.3      3.622      6.011
REMARK  Name = 
REMARK  5 active torsions:
REMARK  status: ('A' for Active; 'I' for Inactive)
REMARK    1  A    between atoms: C_1  and  O_2
REMARK    2  A    between atoms: O_2  and  C_3
REMARK    3  A    between atoms: C_8  and  O_9
REMARK    4  A    between atoms: O_9  and  C_10
REMARK    5  A    between atoms: C_29  and  O_30
REMARK                            x       y       z     vdW  Elec       q    Type
REMARK                         _______ _______ _______ _____ _____    ______ ____
ROOT
ATOM      1  C   UNL     1      -2.423  12.440  22.949  0.00  0.00    +0.000 A 
ATOM      2  C   UNL     1      -2.519  13.734  22.406  0.00  0.00    +0.000 A 
ATOM      3  C   UNL     1      -1.480  14.212  21.621  0.00  0.00    +0.000 A 
ATOM      4  C   UNL     1      -0.334  13.460  21.343  0.00  0.00    +0.000 A 
ATOM      5  C   UNL     1      -0.206  12.215  21.944  0.00  0.00    +0.000 A 
ATOM      6  C   UNL     1      -1.247  11.687  22.730  0.00  0.00    +0.000 A 
ATOM      7  C   UNL     1       0.522  14.089  20.234  0.00  0.00    +0.000 C 
ATOM      8  C   UNL     1       0.908  13.060  19.140  0.00  0.00    +0.000 C 
ATOM      9  C   UNL     1       2.416  13.178  18.938  0.00  0.00    +0.000 C 
ATOM     10  N   UNL     1       2.771  14.504  19.406  0.00  0.00    +0.000 NA
ATOM     11  C   UNL     1       3.005  15.538  18.371  0.00  0.00    +0.000 C 
ATOM     12  C   UNL     1       2.041  16.705  18.320  0.00  0.00    +0.000 C 
ATOM     13  C   UNL     1       1.609  17.397  17.228  0.00  0.00    +0.000 C 
ATOM     14  C   UNL     1       0.399  18.383  17.145  0.00  0.00    +0.000 C 
ATOM     15  O   UNL     1      -0.905  18.002  17.700  0.00  0.00    +0.000 OA
ATOM     16  C   UNL     1      -0.934  17.624  19.094  0.00  0.00    +0.000 C 
ATOM     17  C   UNL     1      -2.316  17.400  19.701  0.00  0.00    +0.000 C 
ATOM     18  C   UNL     1      -2.319  16.465  20.920  0.00  0.00    +0.000 C 
ATOM     19  O   UNL     1      -3.059  16.692  21.874  0.00  0.00    +0.000 OA
ATOM     20  N   UNL     1      -1.465  15.384  20.853  0.00  0.00    +0.000 N 
ATOM     21  C   UNL     1      -0.564  15.124  19.755  0.00  0.00    +0.000 C 
ATOM     22  C   UNL     1      -0.065  16.391  19.154  0.00  0.00    +0.000 C 
ATOM     23  C   UNL     1       1.297  16.913  19.588  0.00  0.00    +0.000 C 
ATOM     24  C   UNL     1       1.878  16.241  20.807  0.00  0.00    +0.000 C 
ATOM     25  C   UNL     1       1.905  14.755  20.566  0.00  0.00    +0.000 C 
ENDROOT
BRANCH   1  27
ATOM     26  C   UNL     1      -4.175  12.722  24.569  0.00  0.00    +0.000 C 
ATOM     27  O   UNL     1      -3.419  11.880  23.705  0.00  0.00    +0.000 OA
ENDBRANCH   1  27
BRANCH   6  28
ATOM     28  O   UNL     1      -0.956  10.416  23.166  0.00  0.00    +0.000 OA
ATOM     29  C   UNL     1      -0.236   9.544  22.307  0.00  0.00    +0.000 C 
ENDBRANCH   6  28
BRANCH  25  30
ATOM     30  O   UNL     1       2.485  14.131  21.705  0.00  0.00    +0.000 OA
ATOM     31  H   UNL     1       2.929  14.824  22.226  0.00  0.00    +0.000 HD
ENDBRANCH  25  30
TORSDOF 3
ENDMDL
MODEL 6
REMARK VINA RESULT:      -6.3      2.796      5.168
REMARK  Name = 
REMARK  5 active torsions:
REMARK  status: ('A' for Active; 'I' for Inactive)
REMARK    1  A    between atoms: C_1  and  O_2
REMARK    2  A    between atoms: O_2  and  C_3
REMARK    3  A    between atoms: C_8  and  O_9
REMARK    4  A    between atoms: O_9  and  C_10
REMARK    5  A    between atoms: C_29  and  O_30
REMARK                            x       y       z     vdW  Elec       q    Type
REMARK                         _______ _______ _______ _____ _____    ______ ____
ROOT
ATOM      1  C   UNL     1       1.993   7.460  19.894  0.00  0.00    +0.000 A 
ATOM      2  C   UNL     1       1.390   8.147  20.963  0.00  0.00    +0.000 A 
ATOM      3  C   UNL     1       0.899   9.426  20.749  0.00  0.00    +0.000 A 
ATOM      4  C   UNL     1       0.976  10.068  19.508  0.00  0.00    +0.000 A 
ATOM      5  C   UNL     1       1.642   9.421  18.477  0.00  0.00    +0.000 A 
ATOM      6  C   UNL     1       2.136   8.114  18.649  0.00  0.00    +0.000 A 
ATOM      7  C   UNL     1       0.117  11.340  19.455  0.00  0.00    +0.000 C 
ATOM      8  C   UNL     1      -0.786  11.382  18.195  0.00  0.00    +0.000 C 
ATOM      9  C   UNL     1      -0.573  12.748  17.548  0.00  0.00    +0.000 C 
ATOM     10  N   UNL     1      -0.084  13.610  18.606  0.00  0.00    +0.000 NA
ATOM     11  C   UNL     1      -1.058  14.549  19.209  0.00  0.00    +0.000 C 
ATOM     12  C   UNL     1      -1.420  14.338  20.665  0.00  0.00    +0.000 C 
ATOM     13  C   UNL     1      -2.617  14.559  21.279  0.00  0.00    +0.000 C 
ATOM     14  C   UNL     1      -3.068  14.058  22.689  0.00  0.00    +0.000 C 
ATOM     15  O   UNL     1      -2.875  12.655  23.073  0.00  0.00    +0.000 OA
ATOM     16  C   UNL     1      -1.527  12.141  23.001  0.00  0.00    +0.000 C 
ATOM     17  C   UNL     1      -1.311  10.740  23.566  0.00  0.00    +0.000 C 
ATOM     18  C   UNL     1      -0.100  10.005  22.971  0.00  0.00    +0.000 C 
ATOM     19  O   UNL     1       0.605   9.295  23.682  0.00  0.00    +0.000 OA
ATOM     20  N   UNL     1       0.114  10.193  21.621  0.00  0.00    +0.000 N 
ATOM     21  C   UNL     1      -0.684  11.053  20.780  0.00  0.00    +0.000 C 
ATOM     22  C   UNL     1      -1.179  12.237  21.535  0.00  0.00    +0.000 C 
ATOM     23  C   UNL     1      -0.413  13.546  21.416  0.00  0.00    +0.000 C 
ATOM     24  C   UNL     1       0.946  13.433  20.771  0.00  0.00    +0.000 C 
ATOM     25  C   UNL     1       0.785  12.761  19.433  0.00  0.00    +0.000 C 
ENDROOT
BRANCH   1  27
ATOM     26  C   UNL     1       1.629   5.188  20.586  0.00  0.00    +0.000 C 
ATOM     27  O   UNL     1       2.472   6.182  20.013  0.00  0.00    +0.000 OA
ENDBRANCH   1  27
BRANCH   6  28
ATOM     28  O   UNL     1       2.689   7.626  17.489  0.00  0.00    +0.000 OA
ATOM     29  C   UNL     1       4.062   7.266  17.483  0.00  0.00    +0.000 C 
ENDBRANCH   6  28
BRANCH  25  30
ATOM     30  O   UNL     1       2.064  12.688  18.817  0.00  0.00    +0.000 OA
ATOM     31  H   UNL     1       2.546  13.504  19.040  0.00  0.00    +0.000 HD
ENDBRANCH  25  30
TORSDOF 3
ENDMDL
MODEL 7
REMARK VINA RESULT:      -6.3      1.275      1.549
REMARK  Name = 
REMARK  5 active torsions:
REMARK  status: ('A' for Active; 'I' for Inactive)
REMARK    1  A    between atoms: C_1  and  O_2
REMARK    2  A    between atoms: O_2  and  C_3
REMARK    3  A    between atoms: C_8  and  O_9
REMARK    4  A    between atoms: O_9  and  C_10
REMARK    5  A    between atoms: C_29  and  O_30
REMARK                            x       y       z     vdW  Elec       q    Type
REMARK                         _______ _______ _______ _____ _____    ______ ____
ROOT
ATOM      1  C   UNL     1      -2.856  11.112  17.672  0.00  0.00    +0.000 A 
ATOM      2  C   UNL     1      -4.135  11.494  18.114  0.00  0.00    +0.000 A 
ATOM      3  C   UNL     1      -4.254  12.191  19.306  0.00  0.00    +0.000 A 
ATOM      4  C   UNL     1      -3.151  12.536  20.094  0.00  0.00    +0.000 A 
ATOM      5  C   UNL     1      -1.898  12.090  19.697  0.00  0.00    +0.000 A 
ATOM      6  C   UNL     1      -1.734  11.397  18.484  0.00  0.00    +0.000 A 
ATOM      7  C   UNL     1      -3.512  13.540  21.198  0.00  0.00    +0.000 C 
ATOM      8  C   UNL     1      -2.536  14.745  21.234  0.00  0.00    +0.000 C 
ATOM      9  C   UNL     1      -2.082  14.898  22.683  0.00  0.00    +0.000 C 
ATOM     10  N   UNL     1      -3.110  14.265  23.484  0.00  0.00    +0.000 NA
ATOM     11  C   UNL     1      -4.076  15.159  24.165  0.00  0.00    +0.000 C 
ATOM     12  C   UNL     1      -5.523  15.086  23.724  0.00  0.00    +0.000 C 
ATOM     13  C   UNL     1      -6.440  16.094  23.663  0.00  0.00    +0.000 C 
ATOM     14  C   UNL     1      -7.819  16.080  22.929  0.00  0.00    +0.000 C 
ATOM     15  O   UNL     1      -7.917  15.604  21.545  0.00  0.00    +0.000 OA
ATOM     16  C   UNL     1      -7.435  14.268  21.281  0.00  0.00    +0.000 C 
ATOM     17  C   UNL     1      -7.700  13.722  19.880  0.00  0.00    +0.000 C 
ATOM     18  C   UNL     1      -6.716  12.628  19.439  0.00  0.00    +0.000 C 
ATOM     19  O   UNL     1      -7.110  11.669  18.780  0.00  0.00    +0.000 OA
ATOM     20  N   UNL     1      -5.402  12.809  19.819  0.00  0.00    +0.000 N 
ATOM     21  C   UNL     1      -4.931  13.912  20.623  0.00  0.00    +0.000 C 
ATOM     22  C   UNL     1      -5.963  14.341  21.607  0.00  0.00    +0.000 C 
ATOM     23  C   UNL     1      -5.868  13.818  23.033  0.00  0.00    +0.000 C 
ATOM     24  C   UNL     1      -4.899  12.679  23.231  0.00  0.00    +0.000 C 
ATOM     25  C   UNL     1      -3.553  13.100  22.705  0.00  0.00    +0.000 C 
ENDROOT
BRANCH   1  27
ATOM     26  C   UNL     1      -3.538  10.697  15.406  0.00  0.00    +0.000 C 
ATOM     27  O   UNL     1      -2.648  10.451  16.489  0.00  0.00    +0.000 OA
ENDBRANCH   1  27
BRANCH   6  28
ATOM     28  O   UNL     1      -0.411  11.114  18.238  0.00  0.00    +0.000 OA
ATOM     29  C   UNL     1       0.576  11.630  19.119  0.00  0.00    +0.000 C 
ENDBRANCH   6  28
BRANCH  25  30
ATOM     30  O   UNL     1      -2.637  12.035  22.925  0.00  0.00    +0.000 OA
ATOM     31  H   UNL     1      -2.417  11.651  22.057  0.00  0.00    +0.000 HD
ENDBRANCH  25  30
TORSDOF 3
ENDMDL
MODEL 8
REMARK VINA RESULT:      -6.3      1.870      5.634
REMARK  Name = 
REMARK  5 active torsions:
REMARK  status: ('A' for Active; 'I' for Inactive)
REMARK    1  A    between atoms: C_1  and  O_2
REMARK    2  A    between atoms: O_2  and  C_3
REMARK    3  A    between atoms: C_8  and  O_9
REMARK    4  A    between atoms: O_9  and  C_10
REMARK    5  A    between atoms: C_29  and  O_30
REMARK                            x       y       z     vdW  Elec       q    Type
REMARK                         _______ _______ _______ _____ _____    ______ ____
ROOT
ATOM      1  C   UNL     1      -6.568  12.089  21.135  0.00  0.00    +0.000 A 
ATOM      2  C   UNL     1      -5.552  11.950  20.172  0.00  0.00    +0.000 A 
ATOM      3  C   UNL     1      -4.308  12.509  20.421  0.00  0.00    +0.000 A 
ATOM      4  C   UNL     1      -4.015  13.209  21.597  0.00  0.00    +0.000 A 
ATOM      5  C   UNL     1      -5.040  13.413  22.510  0.00  0.00    +0.000 A 
ATOM      6  C   UNL     1      -6.311  12.844  22.302  0.00  0.00    +0.000 A 
ATOM      7  C   UNL     1      -2.511  13.474  21.759  0.00  0.00    +0.000 C 
ATOM      8  C   UNL     1      -1.995  13.070  23.165  0.00  0.00    +0.000 C 
ATOM      9  C   UNL     1      -1.206  14.261  23.701  0.00  0.00    +0.000 C 
ATOM     10  N   UNL     1      -0.803  15.021  22.535  0.00  0.00    +0.000 NA
ATOM     11  C   UNL     1       0.602  14.867  22.088  0.00  0.00    +0.000 C 
ATOM     12  C   UNL     1       0.836  14.224  20.738  0.00  0.00    +0.000 C 
ATOM     13  C   UNL     1       1.869  13.420  20.353  0.00  0.00    +0.000 C 
ATOM     14  C   UNL     1       1.949  12.522  19.076  0.00  0.00    +0.000 C 
ATOM     15  O   UNL     1       0.832  11.640  18.721  0.00  0.00    +0.000 OA
ATOM     16  C   UNL     1      -0.462  12.260  18.558  0.00  0.00    +0.000 C 
ATOM     17  C   UNL     1      -1.574  11.364  18.021  0.00  0.00    +0.000 C 
ATOM     18  C   UNL     1      -2.989  11.823  18.406  0.00  0.00    +0.000 C 
ATOM     19  O   UNL     1      -3.914  11.723  17.605  0.00  0.00    +0.000 OA
ATOM     20  N   UNL     1      -3.131  12.329  19.683  0.00  0.00    +0.000 N 
ATOM     21  C   UNL     1      -2.047  12.487  20.622  0.00  0.00    +0.000 C 
ATOM     22  C   UNL     1      -0.773  12.817  19.926  0.00  0.00    +0.000 C 
ATOM     23  C   UNL     1      -0.347  14.275  19.843  0.00  0.00    +0.000 C 
ATOM     24  C   UNL     1      -1.413  15.273  20.224  0.00  0.00    +0.000 C 
ATOM     25  C   UNL     1      -1.928  14.923  21.595  0.00  0.00    +0.000 C 
ENDROOT
BRANCH   1  27
ATOM     26  C   UNL     1      -7.916  10.134  20.777  0.00  0.00    +0.000 C 
ATOM     27  O   UNL     1      -7.813  11.538  20.981  0.00  0.00    +0.000 OA
ENDBRANCH   1  27
BRANCH   6  28
ATOM     28  O   UNL     1      -7.156  13.098  23.356  0.00  0.00    +0.000 OA
ATOM     29  C   UNL     1      -7.187  14.404  23.911  0.00  0.00    +0.000 C 
ENDBRANCH   6  28
BRANCH  25  30
ATOM     30  O   UNL     1      -2.907  15.886  21.960  0.00  0.00    +0.000 OA
ATOM     31  H   UNL     1      -2.506  16.478  22.622  0.00  0.00    +0.000 HD
ENDBRANCH  25  30
TORSDOF 3
ENDMDL
MODEL 9
REMARK VINA RESULT:      -6.2      1.631      4.275
REMARK  Name = 
REMARK  5 active torsions:
REMARK  status: ('A' for Active; 'I' for Inactive)
REMARK    1  A    between atoms: C_1  and  O_2
REMARK    2  A    between atoms: O_2  and  C_3
REMARK    3  A    between atoms: C_8  and  O_9
REMARK    4  A    between atoms: O_9  and  C_10
REMARK    5  A    between atoms: C_29  and  O_30
REMARK                            x       y       z     vdW  Elec       q    Type
REMARK                         _______ _______ _______ _____ _____    ______ ____
ROOT
ATOM      1  C   UNL     1      -1.715  10.905  18.332  0.00  0.00    +0.000 A 
ATOM      2  C   UNL     1      -1.634  11.918  19.304  0.00  0.00    +0.000 A 
ATOM      3  C   UNL     1      -2.799  12.542  19.723  0.00  0.00    +0.000 A 
ATOM      4  C   UNL     1      -4.060  12.206  19.220  0.00  0.00    +0.000 A 
ATOM      5  C   UNL     1      -4.130  11.262  18.204  0.00  0.00    +0.000 A 
ATOM      6  C   UNL     1      -2.972  10.592  17.767  0.00  0.00    +0.000 A 
ATOM      7  C   UNL     1      -5.200  12.828  20.039  0.00  0.00    +0.000 C 
ATOM      8  C   UNL     1      -6.281  11.783  20.423  0.00  0.00    +0.000 C 
ATOM      9  C   UNL     1      -7.629  12.383  20.032  0.00  0.00    +0.000 C 
ATOM     10  N   UNL     1      -7.422  13.816  19.987  0.00  0.00    +0.000 NA
ATOM     11  C   UNL     1      -7.916  14.601  21.144  0.00  0.00    +0.000 C 
ATOM     12  C   UNL     1      -6.885  15.302  22.003  0.00  0.00    +0.000 C 
ATOM     13  C   UNL     1      -6.917  15.525  23.348  0.00  0.00    +0.000 C 
ATOM     14  C   UNL     1      -5.731  15.967  24.265  0.00  0.00    +0.000 C 
ATOM     15  O   UNL     1      -4.435  15.284  24.181  0.00  0.00    +0.000 OA
ATOM     16  C   UNL     1      -3.800  15.250  22.884  0.00  0.00    +0.000 C 
ATOM     17  C   UNL     1      -2.381  14.692  22.845  0.00  0.00    +0.000 C 
ATOM     18  C   UNL     1      -1.969  14.123  21.479  0.00  0.00    +0.000 C 
ATOM     19  O   UNL     1      -0.826  14.283  21.059  0.00  0.00    +0.000 OA
ATOM     20  N   UNL     1      -2.948  13.433  20.794  0.00  0.00    +0.000 N 
ATOM     21  C   UNL     1      -4.306  13.268  21.258  0.00  0.00    +0.000 C 
ATOM     22  C   UNL     1      -4.760  14.457  22.030  0.00  0.00    +0.000 C 
ATOM     23  C   UNL     1      -5.587  15.515  21.314  0.00  0.00    +0.000 C 
ATOM     24  C   UNL     1      -5.615  15.392  19.811  0.00  0.00    +0.000 C 
ATOM     25  C   UNL     1      -6.065  14.000  19.453  0.00  0.00    +0.000 C 
ENDROOT
BRANCH   1  27
ATOM     26  C   UNL     1       0.470  10.015  18.787  0.00  0.00    +0.000 C 
ATOM     27  O   UNL     1      -0.616  10.214  17.890  0.00  0.00    +0.000 OA
ENDBRANCH   1  27
BRANCH   6  28
ATOM     28  O   UNL     1      -3.266   9.644  16.815  0.00  0.00    +0.000 OA
ATOM     29  C   UNL     1      -3.039   9.953  15.448  0.00  0.00    +0.000 C 
ENDBRANCH   6  28
BRANCH  25  30
ATOM     30  O   UNL     1      -6.121  13.903  18.036  0.00  0.00    +0.000 OA
ATOM     31  H   UNL     1      -7.026  14.136  17.760  0.00  0.00    +0.000 HD
ENDBRANCH  25  30
TORSDOF 3
ENDMDL
