MODEL 1
REMARK VINA RESULT:      -9.0      0.000      0.000
REMARK  Name = 
REMARK  1 active torsions:
REMARK  status: ('A' for Active; 'I' for Inactive)
REMARK    1  A    between atoms: C_10  and  C_11
REMARK                            x       y       z     vdW  Elec       q    Type
REMARK                         _______ _______ _______ _____ _____    ______ ____
ROOT
ATOM      1  O   UNL     1       5.593   3.253  19.594  0.00  0.00    +0.000 OA
ATOM      2  C   UNL     1       4.843   4.008  18.985  0.00  0.00    +0.000 C 
ATOM      3  C   UNL     1       5.282   4.650  17.722  0.00  0.00    +0.000 A 
ATOM      4  C   UNL     1       6.430   4.162  17.078  0.00  0.00    +0.000 A 
ATOM      5  C   UNL     1       6.830   4.709  15.861  0.00  0.00    +0.000 A 
ATOM      6  C   UNL     1       6.085   5.736  15.287  0.00  0.00    +0.000 A 
ATOM      7  C   UNL     1       4.943   6.225  15.931  0.00  0.00    +0.000 A 
ATOM      8  C   UNL     1       4.533   5.702  17.170  0.00  0.00    +0.000 A 
ATOM      9  C   UNL     1       3.336   6.181  17.927  0.00  0.00    +0.000 C 
ATOM     10  C   UNL     1       3.040   7.502  17.845  0.00  0.00    +0.000 C 
ATOM     11  C   UNL     1       2.669   5.246  18.879  0.00  0.00    +0.000 A 
ATOM     12  C   UNL     1       1.309   5.284  19.216  0.00  0.00    +0.000 A 
ATOM     13  C   UNL     1       0.772   4.414  20.169  0.00  0.00    +0.000 A 
ATOM     14  C   UNL     1       1.580   3.462  20.782  0.00  0.00    +0.000 A 
ATOM     15  C   UNL     1       2.917   3.355  20.411  0.00  0.00    +0.000 A 
ATOM     16  C   UNL     1       3.450   4.226  19.449  0.00  0.00    +0.000 A 
ENDROOT
BRANCH  10  17
ATOM     17  C   UNL     1       2.033   8.287  18.571  0.00  0.00    +0.000 A 
ATOM     18  C   UNL     1       1.181   9.155  17.875  0.00  0.00    +0.000 A 
ATOM     19  C   UNL     1       0.244   9.929  18.563  0.00  0.00    +0.000 A 
ATOM     20  C   UNL     1       0.177   9.864  19.953  0.00  0.00    +0.000 A 
ATOM     21  C   UNL     1       1.033   9.011  20.649  0.00  0.00    +0.000 A 
ATOM     22 CL   UNL     1       0.966   8.961  22.368  0.00  0.00    +0.000 Cl
ATOM     23  C   UNL     1       1.955   8.217  19.966  0.00  0.00    +0.000 A 
ENDBRANCH  10  17
TORSDOF 1
ENDMDL
MODEL 2
REMARK VINA RESULT:      -8.9      1.080      1.477
REMARK  Name = 
REMARK  1 active torsions:
REMARK  status: ('A' for Active; 'I' for Inactive)
REMARK    1  A    between atoms: C_10  and  C_11
REMARK                            x       y       z     vdW  Elec       q    Type
REMARK                         _______ _______ _______ _____ _____    ______ ____
ROOT
ATOM      1  O   UNL     1       5.605   3.257  19.633  0.00  0.00    +0.000 OA
ATOM      2  C   UNL     1       4.837   4.020  19.057  0.00  0.00    +0.000 C 
ATOM      3  C   UNL     1       5.246   4.694  17.800  0.00  0.00    +0.000 A 
ATOM      4  C   UNL     1       6.383   4.230  17.121  0.00  0.00    +0.000 A 
ATOM      5  C   UNL     1       6.755   4.808  15.910  0.00  0.00    +0.000 A 
ATOM      6  C   UNL     1       5.992   5.843  15.375  0.00  0.00    +0.000 A 
ATOM      7  C   UNL     1       4.860   6.308  16.054  0.00  0.00    +0.000 A 
ATOM      8  C   UNL     1       4.479   5.754  17.288  0.00  0.00    +0.000 A 
ATOM      9  C   UNL     1       3.295   6.207  18.080  0.00  0.00    +0.000 C 
ATOM     10  C   UNL     1       2.989   7.528  18.035  0.00  0.00    +0.000 C 
ATOM     11  C   UNL     1       2.653   5.245  19.023  0.00  0.00    +0.000 A 
ATOM     12  C   UNL     1       1.301   5.267  19.389  0.00  0.00    +0.000 A 
ATOM     13  C   UNL     1       0.789   4.371  20.333  0.00  0.00    +0.000 A 
ATOM     14  C   UNL     1       1.616   3.410  20.906  0.00  0.00    +0.000 A 
ATOM     15  C   UNL     1       2.946   3.321  20.505  0.00  0.00    +0.000 A 
ATOM     16  C   UNL     1       3.453   4.218  19.554  0.00  0.00    +0.000 A 
ENDROOT
BRANCH  10  17
ATOM     17  C   UNL     1       1.992   8.288  18.800  0.00  0.00    +0.000 A 
ATOM     18  C   UNL     1       1.897   8.125  20.189  0.00  0.00    +0.000 A 
ATOM     19  C   UNL     1       0.929   8.819  20.918  0.00  0.00    +0.000 A 
ATOM     20  C   UNL     1       0.029   9.654  20.258  0.00  0.00    +0.000 A 
ATOM     21  C   UNL     1       0.113   9.807  18.875  0.00  0.00    +0.000 A 
ATOM     22 CL   UNL     1      -1.023  10.813  18.064  0.00  0.00    +0.000 Cl
ATOM     23  C   UNL     1       1.093   9.135  18.143  0.00  0.00    +0.000 A 
ENDBRANCH  10  17
TORSDOF 1
ENDMDL
MODEL 3
REMARK VINA RESULT:      -7.4      5.653      8.059
REMARK  Name = 
REMARK  1 active torsions:
REMARK  status: ('A' for Active; 'I' for Inactive)
REMARK    1  A    between atoms: C_10  and  C_11
REMARK                            x       y       z     vdW  Elec       q    Type
REMARK                         _______ _______ _______ _____ _____    ______ ____
ROOT
ATOM      1  O   UNL     1       0.546   9.343  17.801  0.00  0.00    +0.000 OA
ATOM      2  C   UNL     1      -0.284   9.916  18.498  0.00  0.00    +0.000 C 
ATOM      3  C   UNL     1      -1.550  10.413  17.906  0.00  0.00    +0.000 A 
ATOM      4  C   UNL     1      -1.923   9.966  16.629  0.00  0.00    +0.000 A 
ATOM      5  C   UNL     1      -3.135  10.372  16.076  0.00  0.00    +0.000 A 
ATOM      6  C   UNL     1      -3.974  11.219  16.796  0.00  0.00    +0.000 A 
ATOM      7  C   UNL     1      -3.600  11.668  18.068  0.00  0.00    +0.000 A 
ATOM      8  C   UNL     1      -2.373  11.288  18.636  0.00  0.00    +0.000 A 
ATOM      9  C   UNL     1      -1.896  11.738  19.980  0.00  0.00    +0.000 C 
ATOM     10  C   UNL     1      -2.233  12.994  20.367  0.00  0.00    +0.000 C 
ATOM     11  C   UNL     1      -0.922  10.882  20.718  0.00  0.00    +0.000 A 
ATOM     12  C   UNL     1      -0.810  10.821  22.114  0.00  0.00    +0.000 A 
ATOM     13  C   UNL     1       0.176  10.044  22.730  0.00  0.00    +0.000 A 
ATOM     14  C   UNL     1       1.050   9.284  21.960  0.00  0.00    +0.000 A 
ATOM     15  C   UNL     1       0.912   9.270  20.576  0.00  0.00    +0.000 A 
ATOM     16  C   UNL     1      -0.082  10.046  19.962  0.00  0.00    +0.000 A 
ENDROOT
BRANCH  10  17
ATOM     17  C   UNL     1      -1.805  13.760  21.544  0.00  0.00    +0.000 A 
ATOM     18  C   UNL     1      -0.553  14.389  21.558  0.00  0.00    +0.000 A 
ATOM     19  C   UNL     1      -0.126  15.092  22.687  0.00  0.00    +0.000 A 
ATOM     20  C   UNL     1      -0.935  15.140  23.821  0.00  0.00    +0.000 A 
ATOM     21  C   UNL     1      -2.175  14.503  23.815  0.00  0.00    +0.000 A 
ATOM     22 CL   UNL     1      -3.153  14.540  25.230  0.00  0.00    +0.000 Cl
ATOM     23  C   UNL     1      -2.618  13.820  22.682  0.00  0.00    +0.000 A 
ENDBRANCH  10  17
TORSDOF 1
ENDMDL
MODEL 4
REMARK VINA RESULT:      -7.3      5.623      8.083
REMARK  Name = 
REMARK  1 active torsions:
REMARK  status: ('A' for Active; 'I' for Inactive)
REMARK    1  A    between atoms: C_10  and  C_11
REMARK                            x       y       z     vdW  Elec       q    Type
REMARK                         _______ _______ _______ _____ _____    ______ ____
ROOT
ATOM      1  O   UNL     1       0.581   9.426  17.823  0.00  0.00    +0.000 OA
ATOM      2  C   UNL     1      -0.263   9.944  18.546  0.00  0.00    +0.000 C 
ATOM      3  C   UNL     1      -1.549  10.419  17.981  0.00  0.00    +0.000 A 
ATOM      4  C   UNL     1      -1.917  10.006  16.691  0.00  0.00    +0.000 A 
ATOM      5  C   UNL     1      -3.145  10.391  16.160  0.00  0.00    +0.000 A 
ATOM      6  C   UNL     1      -4.007  11.182  16.916  0.00  0.00    +0.000 A 
ATOM      7  C   UNL     1      -3.639  11.597  18.201  0.00  0.00    +0.000 A 
ATOM      8  C   UNL     1      -2.395  11.238  18.747  0.00  0.00    +0.000 A 
ATOM      9  C   UNL     1      -1.924  11.654  20.104  0.00  0.00    +0.000 C 
ATOM     10  C   UNL     1      -2.300  12.883  20.539  0.00  0.00    +0.000 C 
ATOM     11  C   UNL     1      -0.916  10.806  20.804  0.00  0.00    +0.000 A 
ATOM     12  C   UNL     1      -0.792  10.698  22.195  0.00  0.00    +0.000 A 
ATOM     13  C   UNL     1       0.224   9.933  22.777  0.00  0.00    +0.000 A 
ATOM     14  C   UNL     1       1.118   9.232  21.974  0.00  0.00    +0.000 A 
ATOM     15  C   UNL     1       0.970   9.264  20.591  0.00  0.00    +0.000 A 
ATOM     16  C   UNL     1      -0.054  10.027  20.012  0.00  0.00    +0.000 A 
ENDROOT
BRANCH  10  17
ATOM     17  C   UNL     1      -1.891  13.620  21.741  0.00  0.00    +0.000 A 
ATOM     18  C   UNL     1      -2.666  13.553  22.906  0.00  0.00    +0.000 A 
ATOM     19  C   UNL     1      -2.301  14.278  24.043  0.00  0.00    +0.000 A 
ATOM     20  C   UNL     1      -1.177  15.101  24.009  0.00  0.00    +0.000 A 
ATOM     21  C   UNL     1      -0.411  15.180  22.846  0.00  0.00    +0.000 A 
ATOM     22 CL   UNL     1       0.957  16.223  22.802  0.00  0.00    +0.000 Cl
ATOM     23  C   UNL     1      -0.757  14.439  21.715  0.00  0.00    +0.000 A 
ENDBRANCH  10  17
TORSDOF 1
ENDMDL
MODEL 5
REMARK VINA RESULT:      -7.3      7.720     10.688
REMARK  Name = 
REMARK  1 active torsions:
REMARK  status: ('A' for Active; 'I' for Inactive)
REMARK    1  A    between atoms: C_10  and  C_11
REMARK                            x       y       z     vdW  Elec       q    Type
REMARK                         _______ _______ _______ _____ _____    ______ ____
ROOT
ATOM      1  O   UNL     1      -6.428  12.557  16.923  0.00  0.00    +0.000 OA
ATOM      2  C   UNL     1      -5.628  12.299  17.816  0.00  0.00    +0.000 C 
ATOM      3  C   UNL     1      -5.968  12.572  19.234  0.00  0.00    +0.000 A 
ATOM      4  C   UNL     1      -7.304  12.839  19.571  0.00  0.00    +0.000 A 
ATOM      5  C   UNL     1      -7.659  13.041  20.902  0.00  0.00    +0.000 A 
ATOM      6  C   UNL     1      -6.684  12.971  21.895  0.00  0.00    +0.000 A 
ATOM      7  C   UNL     1      -5.351  12.709  21.558  0.00  0.00    +0.000 A 
ATOM      8  C   UNL     1      -4.968  12.524  20.219  0.00  0.00    +0.000 A 
ATOM      9  C   UNL     1      -3.565  12.256  19.779  0.00  0.00    +0.000 C 
ATOM     10  C   UNL     1      -2.570  12.854  20.482  0.00  0.00    +0.000 C 
ATOM     11  C   UNL     1      -3.342  11.532  18.493  0.00  0.00    +0.000 A 
ATOM     12  C   UNL     1      -2.230  10.729  18.211  0.00  0.00    +0.000 A 
ATOM     13  C   UNL     1      -2.061  10.137  16.955  0.00  0.00    +0.000 A 
ATOM     14  C   UNL     1      -3.022  10.311  15.964  0.00  0.00    +0.000 A 
ATOM     15  C   UNL     1      -4.172  11.044  16.245  0.00  0.00    +0.000 A 
ATOM     16  C   UNL     1      -4.340  11.630  17.507  0.00  0.00    +0.000 A 
ENDROOT
BRANCH  10  17
ATOM     17  C   UNL     1      -1.127  12.900  20.215  0.00  0.00    +0.000 A 
ATOM     18  C   UNL     1      -0.291  11.881  20.690  0.00  0.00    +0.000 A 
ATOM     19  C   UNL     1       1.087  11.935  20.470  0.00  0.00    +0.000 A 
ATOM     20  C   UNL     1       1.640  13.026  19.802  0.00  0.00    +0.000 A 
ATOM     21  C   UNL     1       0.812  14.049  19.341  0.00  0.00    +0.000 A 
ATOM     22 CL   UNL     1       1.506  15.408  18.546  0.00  0.00    +0.000 Cl
ATOM     23  C   UNL     1      -0.569  13.989  19.537  0.00  0.00    +0.000 A 
ENDBRANCH  10  17
TORSDOF 1
ENDMDL
MODEL 6
REMARK VINA RESULT:      -7.3      4.267      7.165
REMARK  Name = 
REMARK  1 active torsions:
REMARK  status: ('A' for Active; 'I' for Inactive)
REMARK    1  A    between atoms: C_10  and  C_11
REMARK                            x       y       z     vdW  Elec       q    Type
REMARK                         _______ _______ _______ _____ _____    ______ ____
ROOT
ATOM      1  O   UNL     1       0.834   8.875  22.697  0.00  0.00    +0.000 OA
ATOM      2  C   UNL     1       0.592   9.604  21.742  0.00  0.00    +0.000 C 
ATOM      3  C   UNL     1       1.150   9.301  20.401  0.00  0.00    +0.000 A 
ATOM      4  C   UNL     1       1.700   8.031  20.168  0.00  0.00    +0.000 A 
ATOM      5  C   UNL     1       2.178   7.701  18.902  0.00  0.00    +0.000 A 
ATOM      6  C   UNL     1       2.104   8.635  17.871  0.00  0.00    +0.000 A 
ATOM      7  C   UNL     1       1.559   9.903  18.105  0.00  0.00    +0.000 A 
ATOM      8  C   UNL     1       1.091  10.263  19.379  0.00  0.00    +0.000 A 
ATOM      9  C   UNL     1       0.511  11.601  19.712  0.00  0.00    +0.000 C 
ATOM     10  C   UNL     1       1.034  12.678  19.073  0.00  0.00    +0.000 C 
ATOM     11  C   UNL     1      -0.442  11.705  20.854  0.00  0.00    +0.000 A 
ATOM     12  C   UNL     1      -1.465  12.658  20.957  0.00  0.00    +0.000 A 
ATOM     13  C   UNL     1      -2.276  12.733  22.094  0.00  0.00    +0.000 A 
ATOM     14  C   UNL     1      -2.102  11.831  23.139  0.00  0.00    +0.000 A 
ATOM     15  C   UNL     1      -1.142  10.829  23.028  0.00  0.00    +0.000 A 
ATOM     16  C   UNL     1      -0.335  10.754  21.884  0.00  0.00    +0.000 A 
ENDROOT
BRANCH  10  17
ATOM     17  C   UNL     1       0.781  14.109  19.283  0.00  0.00    +0.000 A 
ATOM     18  C   UNL     1      -0.174  14.776  18.504  0.00  0.00    +0.000 A 
ATOM     19  C   UNL     1      -0.397  16.144  18.675  0.00  0.00    +0.000 A 
ATOM     20  C   UNL     1       0.360  16.859  19.601  0.00  0.00    +0.000 A 
ATOM     21  C   UNL     1       1.320  16.201  20.368  0.00  0.00    +0.000 A 
ATOM     22 CL   UNL     1       2.273  17.097  21.486  0.00  0.00    +0.000 Cl
ATOM     23  C   UNL     1       1.531  14.829  20.219  0.00  0.00    +0.000 A 
ENDBRANCH  10  17
TORSDOF 1
ENDMDL
MODEL 7
REMARK VINA RESULT:      -7.3      8.903     10.162
REMARK  Name = 
REMARK  1 active torsions:
REMARK  status: ('A' for Active; 'I' for Inactive)
REMARK    1  A    between atoms: C_10  and  C_11
REMARK                            x       y       z     vdW  Elec       q    Type
REMARK                         _______ _______ _______ _____ _____    ______ ____
ROOT
ATOM      1  O   UNL     1       7.836  13.717  17.479  0.00  0.00    +0.000 OA
ATOM      2  C   UNL     1       8.319  13.646  18.604  0.00  0.00    +0.000 C 
ATOM      3  C   UNL     1       9.584  12.908  18.836  0.00  0.00    +0.000 A 
ATOM      4  C   UNL     1      10.374  12.553  17.731  0.00  0.00    +0.000 A 
ATOM      5  C   UNL     1      11.594  11.911  17.925  0.00  0.00    +0.000 A 
ATOM      6  C   UNL     1      12.028  11.628  19.218  0.00  0.00    +0.000 A 
ATOM      7  C   UNL     1      11.239  11.978  20.320  0.00  0.00    +0.000 A 
ATOM      8  C   UNL     1       9.995  12.607  20.146  0.00  0.00    +0.000 A 
ATOM      9  C   UNL     1       9.089  12.997  21.269  0.00  0.00    +0.000 C 
ATOM     10  C   UNL     1       9.065  12.186  22.356  0.00  0.00    +0.000 C 
ATOM     11  C   UNL     1       8.124  14.115  21.056  0.00  0.00    +0.000 A 
ATOM     12  C   UNL     1       7.641  14.957  22.067  0.00  0.00    +0.000 A 
ATOM     13  C   UNL     1       6.685  15.942  21.798  0.00  0.00    +0.000 A 
ATOM     14  C   UNL     1       6.216  16.125  20.501  0.00  0.00    +0.000 A 
ATOM     15  C   UNL     1       6.734  15.350  19.468  0.00  0.00    +0.000 A 
ATOM     16  C   UNL     1       7.697  14.369  19.741  0.00  0.00    +0.000 A 
ENDROOT
BRANCH  10  17
ATOM     17  C   UNL     1       8.193  12.221  23.537  0.00  0.00    +0.000 A 
ATOM     18  C   UNL     1       6.902  11.681  23.474  0.00  0.00    +0.000 A 
ATOM     19  C   UNL     1       6.055  11.741  24.583  0.00  0.00    +0.000 A 
ATOM     20  C   UNL     1       6.483  12.372  25.749  0.00  0.00    +0.000 A 
ATOM     21  C   UNL     1       7.762  12.923  25.810  0.00  0.00    +0.000 A 
ATOM     22 CL   UNL     1       8.271  13.729  27.242  0.00  0.00    +0.000 Cl
ATOM     23  C   UNL     1       8.623  12.845  24.713  0.00  0.00    +0.000 A 
ENDBRANCH  10  17
TORSDOF 1
ENDMDL
MODEL 8
REMARK VINA RESULT:      -7.2      2.813      4.611
REMARK  Name = 
REMARK  1 active torsions:
REMARK  status: ('A' for Active; 'I' for Inactive)
REMARK    1  A    between atoms: C_10  and  C_11
REMARK                            x       y       z     vdW  Elec       q    Type
REMARK                         _______ _______ _______ _____ _____    ______ ____
ROOT
ATOM      1  O   UNL     1       7.996   6.807  15.737  0.00  0.00    +0.000 OA
ATOM      2  C   UNL     1       7.236   5.872  15.963  0.00  0.00    +0.000 C 
ATOM      3  C   UNL     1       6.710   5.042  14.851  0.00  0.00    +0.000 A 
ATOM      4  C   UNL     1       7.314   5.140  13.589  0.00  0.00    +0.000 A 
ATOM      5  C   UNL     1       6.877   4.330  12.543  0.00  0.00    +0.000 A 
ATOM      6  C   UNL     1       5.844   3.421  12.759  0.00  0.00    +0.000 A 
ATOM      7  C   UNL     1       5.239   3.327  14.018  0.00  0.00    +0.000 A 
ATOM      8  C   UNL     1       5.649   4.150  15.080  0.00  0.00    +0.000 A 
ATOM      9  C   UNL     1       5.043   4.119  16.446  0.00  0.00    +0.000 C 
ATOM     10  C   UNL     1       3.713   3.863  16.527  0.00  0.00    +0.000 C 
ATOM     11  C   UNL     1       5.866   4.569  17.606  0.00  0.00    +0.000 A 
ATOM     12  C   UNL     1       5.715   4.107  18.920  0.00  0.00    +0.000 A 
ATOM     13  C   UNL     1       6.482   4.629  19.966  0.00  0.00    +0.000 A 
ATOM     14  C   UNL     1       7.443   5.603  19.712  0.00  0.00    +0.000 A 
ATOM     15  C   UNL     1       7.662   6.025  18.404  0.00  0.00    +0.000 A 
ATOM     16  C   UNL     1       6.895   5.495  17.357  0.00  0.00    +0.000 A 
ENDROOT
BRANCH  10  17
ATOM     17  C   UNL     1       2.817   3.905  17.690  0.00  0.00    +0.000 A 
ATOM     18  C   UNL     1       2.007   2.802  17.994  0.00  0.00    +0.000 A 
ATOM     19  C   UNL     1       1.129   2.847  19.079  0.00  0.00    +0.000 A 
ATOM     20  C   UNL     1       1.030   4.008  19.844  0.00  0.00    +0.000 A 
ATOM     21  C   UNL     1       1.825   5.111  19.535  0.00  0.00    +0.000 A 
ATOM     22 CL   UNL     1       1.673   6.551  20.464  0.00  0.00    +0.000 Cl
ATOM     23  C   UNL     1       2.723   5.064  18.467  0.00  0.00    +0.000 A 
ENDBRANCH  10  17
TORSDOF 1
ENDMDL
MODEL 9
REMARK VINA RESULT:      -7.2      4.527      7.463
REMARK  Name = 
REMARK  1 active torsions:
REMARK  status: ('A' for Active; 'I' for Inactive)
REMARK    1  A    between atoms: C_10  and  C_11
REMARK                            x       y       z     vdW  Elec       q    Type
REMARK                         _______ _______ _______ _____ _____    ______ ____
ROOT
ATOM      1  O   UNL     1       0.664   8.900  22.655  0.00  0.00    +0.000 OA
ATOM      2  C   UNL     1       0.493   9.701  21.742  0.00  0.00    +0.000 C 
ATOM      3  C   UNL     1       1.090   9.458  20.406  0.00  0.00    +0.000 A 
ATOM      4  C   UNL     1       1.588   8.180  20.108  0.00  0.00    +0.000 A 
ATOM      5  C   UNL     1       2.100   7.910  18.842  0.00  0.00    +0.000 A 
ATOM      6  C   UNL     1       2.110   8.911  17.873  0.00  0.00    +0.000 A 
ATOM      7  C   UNL     1       1.616  10.186  18.171  0.00  0.00    +0.000 A 
ATOM      8  C   UNL     1       1.116  10.486  19.449  0.00  0.00    +0.000 A 
ATOM      9  C   UNL     1       0.587  11.826  19.848  0.00  0.00    +0.000 C 
ATOM     10  C   UNL     1       1.184  12.915  19.302  0.00  0.00    +0.000 C 
ATOM     11  C   UNL     1      -0.405  11.904  20.960  0.00  0.00    +0.000 A 
ATOM     12  C   UNL     1      -1.385  12.897  21.089  0.00  0.00    +0.000 A 
ATOM     13  C   UNL     1      -2.236  12.939  22.197  0.00  0.00    +0.000 A 
ATOM     14  C   UNL     1      -2.146  11.964  23.186  0.00  0.00    +0.000 A 
ATOM     15  C   UNL     1      -1.230  10.925  23.044  0.00  0.00    +0.000 A 
ATOM     16  C   UNL     1      -0.383  10.884  21.927  0.00  0.00    +0.000 A 
ENDROOT
BRANCH  10  17
ATOM     17  C   UNL     1       0.990  14.341  19.597  0.00  0.00    +0.000 A 
ATOM     18  C   UNL     1       1.557  14.904  20.748  0.00  0.00    +0.000 A 
ATOM     19  C   UNL     1       1.349  16.251  21.052  0.00  0.00    +0.000 A 
ATOM     20  C   UNL     1       0.545  17.034  20.226  0.00  0.00    +0.000 A 
ATOM     21  C   UNL     1      -0.031  16.471  19.087  0.00  0.00    +0.000 A 
ATOM     22 CL   UNL     1      -1.050  17.435  18.089  0.00  0.00    +0.000 Cl
ATOM     23  C   UNL     1       0.192  15.132  18.764  0.00  0.00    +0.000 A 
ENDBRANCH  10  17
TORSDOF 1
ENDMDL
