MODEL 1
REMARK VINA RESULT:      -8.1      0.000      0.000
REMARK  Name = 
REMARK  8 active torsions:
REMARK  status: ('A' for Active; 'I' for Inactive)
REMARK    1  A    between atoms: C_1  and  N_2
REMARK    2  A    between atoms: C_3  and  C_4
REMARK    3  A    between atoms: C_4  and  C_5
REMARK    4  A    between atoms: N_7  and  C_8
REMARK    5  A    between atoms: C_19  and  S_20
REMARK    6  A    between atoms: S_20  and  C_21
REMARK    7  A    between atoms: C_21  and  C_22
REMARK    8  A    between atoms: N_24  and  C_25
REMARK                            x       y       z     vdW  Elec       q    Type
REMARK                         _______ _______ _______ _____ _____    ______ ____
ROOT
ATOM      1  C   UNL     1       1.073   9.184  21.624  0.00  0.00    +0.000 C 
ATOM      2  N   UNL     1       1.042   9.131  20.174  0.00  0.00    +0.000 N 
ATOM      3  C   UNL     1       1.780   8.267  19.376  0.00  0.00    +0.000 A 
ATOM      4  C   UNL     1       1.597   8.680  18.065  0.00  0.00    +0.000 A 
ATOM      5  C   UNL     1       0.674   9.749  18.062  0.00  0.00    +0.000 A 
ATOM      6  C   UNL     1       0.313   9.983  19.368  0.00  0.00    +0.000 A 
ENDROOT
BRANCH   3   7
ATOM      7  C   UNL     1       2.709   7.196  19.877  0.00  0.00    +0.000 C 
BRANCH   7   8
ATOM      8  C   UNL     1       2.643   5.897  19.077  0.00  0.00    +0.000 A 
ATOM      9  N   UNL     1       1.772   5.014  19.472  0.00  0.00    +0.000 NA
ATOM     10  N   UNL     1       1.723   3.787  18.859  0.00  0.00    +0.000 N 
ATOM     11  C   UNL     1       0.784   2.831  19.414  0.00  0.00    +0.000 C 
ATOM     12  C   UNL     1       2.582   3.379  17.853  0.00  0.00    +0.000 A 
ATOM     13  O   UNL     1       2.579   2.248  17.368  0.00  0.00    +0.000 OA
ATOM     14  C   UNL     1       3.545   4.381  17.366  0.00  0.00    +0.000 A 
ATOM     15  C   UNL     1       4.418   4.050  16.318  0.00  0.00    +0.000 A 
ATOM     16  C   UNL     1       5.342   4.986  15.861  0.00  0.00    +0.000 A 
ATOM     17  C   UNL     1       5.392   6.247  16.452  0.00  0.00    +0.000 A 
ATOM     18  C   UNL     1       4.516   6.579  17.498  0.00  0.00    +0.000 A 
ATOM     19  C   UNL     1       3.587   5.642  17.960  0.00  0.00    +0.000 A 
ENDBRANCH   7   8
ENDBRANCH   3   7
BRANCH   6  20
ATOM     20  S   UNL     1      -0.765  11.189  20.021  0.00  0.00    +0.000 S 
BRANCH  20  21
ATOM     21  C   UNL     1       0.363  12.590  20.297  0.00  0.00    +0.000 C 
BRANCH  21  22
ATOM     22  C   UNL     1       0.262  13.609  19.169  0.00  0.00    +0.000 C 
ATOM     23  O   UNL     1      -0.083  13.249  18.044  0.00  0.00    +0.000 OA
ATOM     24  N   UNL     1       0.544  14.913  19.552  0.00  0.00    +0.000 N 
ATOM     25  H   UNL     1       0.973  15.021  20.464  0.00  0.00    +0.000 HD
BRANCH  24  26
ATOM     26  C   UNL     1       0.568  16.047  18.710  0.00  0.00    +0.000 A 
ATOM     27  C   UNL     1       1.734  16.549  18.128  0.00  0.00    +0.000 A 
ATOM     28  C   UNL     1       1.705  17.733  17.384  0.00  0.00    +0.000 A 
ATOM     29  C   UNL     1       0.508  18.419  17.205  0.00  0.00    +0.000 A 
ATOM     30  C   UNL     1      -0.669  17.901  17.738  0.00  0.00    +0.000 A 
ATOM     31  C   UNL     1      -0.642  16.712  18.475  0.00  0.00    +0.000 A 
ENDBRANCH  24  26
ENDBRANCH  21  22
ENDBRANCH  20  21
ENDBRANCH   6  20
TORSDOF 6
ENDMDL
MODEL 2
REMARK VINA RESULT:      -8.0      0.817      1.116
REMARK  Name = 
REMARK  8 active torsions:
REMARK  status: ('A' for Active; 'I' for Inactive)
REMARK    1  A    between atoms: C_1  and  N_2
REMARK    2  A    between atoms: C_3  and  C_4
REMARK    3  A    between atoms: C_4  and  C_5
REMARK    4  A    between atoms: N_7  and  C_8
REMARK    5  A    between atoms: C_19  and  S_20
REMARK    6  A    between atoms: S_20  and  C_21
REMARK    7  A    between atoms: C_21  and  C_22
REMARK    8  A    between atoms: N_24  and  C_25
REMARK                            x       y       z     vdW  Elec       q    Type
REMARK                         _______ _______ _______ _____ _____    ______ ____
ROOT
ATOM      1  C   UNL     1       0.838   8.644  21.397  0.00  0.00    +0.000 C 
ATOM      2  N   UNL     1       1.030   8.814  19.969  0.00  0.00    +0.000 N 
ATOM      3  C   UNL     1       1.967   8.149  19.188  0.00  0.00    +0.000 A 
ATOM      4  C   UNL     1       1.938   8.744  17.936  0.00  0.00    +0.000 A 
ATOM      5  C   UNL     1       0.917   9.721  17.932  0.00  0.00    +0.000 A 
ATOM      6  C   UNL     1       0.343   9.718  19.182  0.00  0.00    +0.000 A 
ENDROOT
BRANCH   3   7
ATOM      7  C   UNL     1       2.919   7.094  19.679  0.00  0.00    +0.000 C 
BRANCH   7   8
ATOM      8  C   UNL     1       2.802   5.764  18.939  0.00  0.00    +0.000 A 
ATOM      9  N   UNL     1       1.905   4.930  19.380  0.00  0.00    +0.000 NA
ATOM     10  N   UNL     1       1.810   3.679  18.823  0.00  0.00    +0.000 N 
ATOM     11  C   UNL     1       0.844   2.781  19.427  0.00  0.00    +0.000 C 
ATOM     12  C   UNL     1       2.644   3.197  17.830  0.00  0.00    +0.000 A 
ATOM     13  O   UNL     1       2.599   2.047  17.396  0.00  0.00    +0.000 OA
ATOM     14  C   UNL     1       3.636   4.143  17.290  0.00  0.00    +0.000 A 
ATOM     15  C   UNL     1       4.488   3.736  16.252  0.00  0.00    +0.000 A 
ATOM     16  C   UNL     1       5.439   4.619  15.746  0.00  0.00    +0.000 A 
ATOM     17  C   UNL     1       5.537   5.903  16.280  0.00  0.00    +0.000 A 
ATOM     18  C   UNL     1       4.683   6.311  17.316  0.00  0.00    +0.000 A 
ATOM     19  C   UNL     1       3.727   5.427  17.827  0.00  0.00    +0.000 A 
ENDBRANCH   7   8
ENDBRANCH   3   7
BRANCH   6  20
ATOM     20  S   UNL     1      -0.942  10.714  19.813  0.00  0.00    +0.000 S 
BRANCH  20  21
ATOM     21  C   UNL     1      -0.025  12.147  20.457  0.00  0.00    +0.000 C 
BRANCH  21  22
ATOM     22  C   UNL     1       0.272  13.153  19.352  0.00  0.00    +0.000 C 
ATOM     23  O   UNL     1      -0.453  13.207  18.359  0.00  0.00    +0.000 OA
ATOM     24  N   UNL     1       1.360  13.976  19.607  0.00  0.00    +0.000 N 
ATOM     25  H   UNL     1       1.951  13.697  20.383  0.00  0.00    +0.000 HD
BRANCH  24  26
ATOM     26  C   UNL     1       1.884  14.965  18.744  0.00  0.00    +0.000 A 
ATOM     27  C   UNL     1       3.018  14.773  17.953  0.00  0.00    +0.000 A 
ATOM     28  C   UNL     1       3.543  15.824  17.194  0.00  0.00    +0.000 A 
ATOM     29  C   UNL     1       2.931  17.074  17.212  0.00  0.00    +0.000 A 
ATOM     30  C   UNL     1       1.769  17.262  17.957  0.00  0.00    +0.000 A 
ATOM     31  C   UNL     1       1.239  16.208  18.709  0.00  0.00    +0.000 A 
ENDBRANCH  24  26
ENDBRANCH  21  22
ENDBRANCH  20  21
ENDBRANCH   6  20
TORSDOF 6
ENDMDL
MODEL 3
REMARK VINA RESULT:      -8.0      3.567      4.252
REMARK  Name = 
REMARK  8 active torsions:
REMARK  status: ('A' for Active; 'I' for Inactive)
REMARK    1  A    between atoms: C_1  and  N_2
REMARK    2  A    between atoms: C_3  and  C_4
REMARK    3  A    between atoms: C_4  and  C_5
REMARK    4  A    between atoms: N_7  and  C_8
REMARK    5  A    between atoms: C_19  and  S_20
REMARK    6  A    between atoms: S_20  and  C_21
REMARK    7  A    between atoms: C_21  and  C_22
REMARK    8  A    between atoms: N_24  and  C_25
REMARK                            x       y       z     vdW  Elec       q    Type
REMARK                         _______ _______ _______ _____ _____    ______ ____
ROOT
ATOM      1  C   UNL     1       0.809   8.933  21.265  0.00  0.00    +0.000 C 
ATOM      2  N   UNL     1       1.123   8.930  19.848  0.00  0.00    +0.000 N 
ATOM      3  C   UNL     1       1.989   8.053  19.208  0.00  0.00    +0.000 A 
ATOM      4  C   UNL     1       2.144   8.520  17.912  0.00  0.00    +0.000 A 
ATOM      5  C   UNL     1       1.301   9.639  17.739  0.00  0.00    +0.000 A 
ATOM      6  C   UNL     1       0.650   9.849  18.932  0.00  0.00    +0.000 A 
ENDROOT
BRANCH   3   7
ATOM      7  C   UNL     1       2.719   6.914  19.866  0.00  0.00    +0.000 C 
BRANCH   7   8
ATOM      8  C   UNL     1       2.687   5.615  19.064  0.00  0.00    +0.000 A 
ATOM      9  N   UNL     1       1.755   4.762  19.376  0.00  0.00    +0.000 NA
ATOM     10  N   UNL     1       1.725   3.535  18.762  0.00  0.00    +0.000 N 
ATOM     11  C   UNL     1       0.708   2.611  19.227  0.00  0.00    +0.000 C 
ATOM     12  C   UNL     1       2.660   3.096  17.841  0.00  0.00    +0.000 A 
ATOM     13  O   UNL     1       2.667   1.964  17.359  0.00  0.00    +0.000 OA
ATOM     14  C   UNL     1       3.697   4.065  17.446  0.00  0.00    +0.000 A 
ATOM     15  C   UNL     1       4.653   3.703  16.485  0.00  0.00    +0.000 A 
ATOM     16  C   UNL     1       5.645   4.607  16.116  0.00  0.00    +0.000 A 
ATOM     17  C   UNL     1       5.680   5.869  16.709  0.00  0.00    +0.000 A 
ATOM     18  C   UNL     1       4.722   6.232  17.667  0.00  0.00    +0.000 A 
ATOM     19  C   UNL     1       3.723   5.327  18.040  0.00  0.00    +0.000 A 
ENDBRANCH   7   8
ENDBRANCH   3   7
BRANCH   6  20
ATOM     20  S   UNL     1      -0.495  11.092  19.366  0.00  0.00    +0.000 S 
BRANCH  20  21
ATOM     21  C   UNL     1      -1.994  10.540  18.496  0.00  0.00    +0.000 C 
BRANCH  21  22
ATOM     22  C   UNL     1      -3.171  11.463  18.788  0.00  0.00    +0.000 C 
ATOM     23  O   UNL     1      -3.080  12.315  19.672  0.00  0.00    +0.000 OA
ATOM     24  N   UNL     1      -4.268  11.268  17.960  0.00  0.00    +0.000 N 
ATOM     25  H   UNL     1      -4.252  10.423  17.400  0.00  0.00    +0.000 HD
BRANCH  24  26
ATOM     26  C   UNL     1      -5.504  11.949  18.032  0.00  0.00    +0.000 A 
ATOM     27  C   UNL     1      -5.944  12.850  17.061  0.00  0.00    +0.000 A 
ATOM     28  C   UNL     1      -7.132  13.565  17.240  0.00  0.00    +0.000 A 
ATOM     29  C   UNL     1      -7.898  13.376  18.387  0.00  0.00    +0.000 A 
ATOM     30  C   UNL     1      -7.495  12.442  19.337  0.00  0.00    +0.000 A 
ATOM     31  C   UNL     1      -6.311  11.720  19.155  0.00  0.00    +0.000 A 
ENDBRANCH  24  26
ENDBRANCH  21  22
ENDBRANCH  20  21
ENDBRANCH   6  20
TORSDOF 6
ENDMDL
MODEL 4
REMARK VINA RESULT:      -8.0      3.412      4.886
REMARK  Name = 
REMARK  8 active torsions:
REMARK  status: ('A' for Active; 'I' for Inactive)
REMARK    1  A    between atoms: C_1  and  N_2
REMARK    2  A    between atoms: C_3  and  C_4
REMARK    3  A    between atoms: C_4  and  C_5
REMARK    4  A    between atoms: N_7  and  C_8
REMARK    5  A    between atoms: C_19  and  S_20
REMARK    6  A    between atoms: S_20  and  C_21
REMARK    7  A    between atoms: C_21  and  C_22
REMARK    8  A    between atoms: N_24  and  C_25
REMARK                            x       y       z     vdW  Elec       q    Type
REMARK                         _______ _______ _______ _____ _____    ______ ____
ROOT
ATOM      1  C   UNL     1       1.113   9.499  21.734  0.00  0.00    +0.000 C 
ATOM      2  N   UNL     1       1.235   9.390  20.292  0.00  0.00    +0.000 N 
ATOM      3  C   UNL     1       1.698   8.281  19.596  0.00  0.00    +0.000 A 
ATOM      4  C   UNL     1       1.832   8.669  18.272  0.00  0.00    +0.000 A 
ATOM      5  C   UNL     1       1.366   9.996  18.148  0.00  0.00    +0.000 A 
ATOM      6  C   UNL     1       0.965  10.407  19.398  0.00  0.00    +0.000 A 
ENDROOT
BRANCH   3   7
ATOM      7  C   UNL     1       2.110   6.973  20.214  0.00  0.00    +0.000 C 
BRANCH   7   8
ATOM      8  C   UNL     1       2.776   6.010  19.234  0.00  0.00    +0.000 A 
ATOM      9  N   UNL     1       3.754   6.489  18.521  0.00  0.00    +0.000 NA
ATOM     10  N   UNL     1       4.335   5.708  17.554  0.00  0.00    +0.000 N 
ATOM     11  C   UNL     1       5.359   6.344  16.747  0.00  0.00    +0.000 C 
ATOM     12  C   UNL     1       3.924   4.427  17.230  0.00  0.00    +0.000 A 
ATOM     13  O   UNL     1       4.401   3.768  16.306  0.00  0.00    +0.000 OA
ATOM     14  C   UNL     1       2.847   3.855  18.055  0.00  0.00    +0.000 A 
ATOM     15  C   UNL     1       2.408   2.544  17.810  0.00  0.00    +0.000 A 
ATOM     16  C   UNL     1       1.380   2.001  18.576  0.00  0.00    +0.000 A 
ATOM     17  C   UNL     1       0.792   2.767  19.581  0.00  0.00    +0.000 A 
ATOM     18  C   UNL     1       1.233   4.077  19.827  0.00  0.00    +0.000 A 
ATOM     19  C   UNL     1       2.266   4.626  19.061  0.00  0.00    +0.000 A 
ENDBRANCH   7   8
ENDBRANCH   3   7
BRANCH   6  20
ATOM     20  S   UNL     1       0.329  11.950  19.906  0.00  0.00    +0.000 S 
BRANCH  20  21
ATOM     21  C   UNL     1      -0.997  12.227  18.691  0.00  0.00    +0.000 C 
BRANCH  21  22
ATOM     22  C   UNL     1      -2.370  12.167  19.350  0.00  0.00    +0.000 C 
ATOM     23  O   UNL     1      -2.464  12.198  20.577  0.00  0.00    +0.000 OA
ATOM     24  N   UNL     1      -3.430  12.122  18.457  0.00  0.00    +0.000 N 
ATOM     25  H   UNL     1      -3.185  11.933  17.491  0.00  0.00    +0.000 HD
BRANCH  24  26
ATOM     26  C   UNL     1      -4.801  12.020  18.786  0.00  0.00    +0.000 A 
ATOM     27  C   UNL     1      -5.480  12.969  19.553  0.00  0.00    +0.000 A 
ATOM     28  C   UNL     1      -6.812  12.761  19.926  0.00  0.00    +0.000 A 
ATOM     29  C   UNL     1      -7.479  11.606  19.527  0.00  0.00    +0.000 A 
ATOM     30  C   UNL     1      -6.827  10.678  18.719  0.00  0.00    +0.000 A 
ATOM     31  C   UNL     1      -5.497  10.891  18.338  0.00  0.00    +0.000 A 
ENDBRANCH  24  26
ENDBRANCH  21  22
ENDBRANCH  20  21
ENDBRANCH   6  20
TORSDOF 6
ENDMDL
MODEL 5
REMARK VINA RESULT:      -7.9      3.231      9.830
REMARK  Name = 
REMARK  8 active torsions:
REMARK  status: ('A' for Active; 'I' for Inactive)
REMARK    1  A    between atoms: C_1  and  N_2
REMARK    2  A    between atoms: C_3  and  C_4
REMARK    3  A    between atoms: C_4  and  C_5
REMARK    4  A    between atoms: N_7  and  C_8
REMARK    5  A    between atoms: C_19  and  S_20
REMARK    6  A    between atoms: S_20  and  C_21
REMARK    7  A    between atoms: C_21  and  C_22
REMARK    8  A    between atoms: N_24  and  C_25
REMARK                            x       y       z     vdW  Elec       q    Type
REMARK                         _______ _______ _______ _____ _____    ______ ____
ROOT
ATOM      1  C   UNL     1       2.039   5.811  20.452  0.00  0.00    +0.000 C 
ATOM      2  N   UNL     1       2.477   6.724  19.414  0.00  0.00    +0.000 N 
ATOM      3  C   UNL     1       2.055   8.037  19.252  0.00  0.00    +0.000 A 
ATOM      4  C   UNL     1       2.568   8.476  18.041  0.00  0.00    +0.000 A 
ATOM      5  C   UNL     1       3.378   7.450  17.505  0.00  0.00    +0.000 A 
ATOM      6  C   UNL     1       3.341   6.396  18.387  0.00  0.00    +0.000 A 
ENDROOT
BRANCH   3   7
ATOM      7  C   UNL     1       1.100   8.763  20.159  0.00  0.00    +0.000 C 
BRANCH   7   8
ATOM      8  C   UNL     1       0.799  10.194  19.721  0.00  0.00    +0.000 A 
ATOM      9  N   UNL     1       1.505  11.134  20.280  0.00  0.00    +0.000 NA
ATOM     10  N   UNL     1       1.223  12.449  20.004  0.00  0.00    +0.000 N 
ATOM     11  C   UNL     1       1.998  13.435  20.732  0.00  0.00    +0.000 C 
ATOM     12  C   UNL     1       0.189  12.875  19.190  0.00  0.00    +0.000 A 
ATOM     13  O   UNL     1      -0.102  14.058  19.015  0.00  0.00    +0.000 OA
ATOM     14  C   UNL     1      -0.592  11.824  18.517  0.00  0.00    +0.000 A 
ATOM     15  C   UNL     1      -1.630  12.183  17.643  0.00  0.00    +0.000 A 
ATOM     16  C   UNL     1      -2.383  11.196  17.014  0.00  0.00    +0.000 A 
ATOM     17  C   UNL     1      -2.099   9.853  17.260  0.00  0.00    +0.000 A 
ATOM     18  C   UNL     1      -1.059   9.494  18.131  0.00  0.00    +0.000 A 
ATOM     19  C   UNL     1      -0.300  10.482  18.765  0.00  0.00    +0.000 A 
ENDBRANCH   7   8
ENDBRANCH   3   7
BRANCH   6  20
ATOM     20  S   UNL     1       4.107   4.832  18.277  0.00  0.00    +0.000 S 
BRANCH  20  21
ATOM     21  C   UNL     1       5.868   5.266  18.419  0.00  0.00    +0.000 C 
BRANCH  21  22
ATOM     22  C   UNL     1       6.632   4.892  17.155  0.00  0.00    +0.000 C 
ATOM     23  O   UNL     1       7.820   4.579  17.225  0.00  0.00    +0.000 OA
ATOM     24  N   UNL     1       5.863   4.903  16.000  0.00  0.00    +0.000 N 
ATOM     25  H   UNL     1       4.953   5.343  16.081  0.00  0.00    +0.000 HD
BRANCH  24  26
ATOM     26  C   UNL     1       6.317   4.640  14.688  0.00  0.00    +0.000 A 
ATOM     27  C   UNL     1       7.410   5.288  14.108  0.00  0.00    +0.000 A 
ATOM     28  C   UNL     1       7.748   5.053  12.771  0.00  0.00    +0.000 A 
ATOM     29  C   UNL     1       7.003   4.160  12.006  0.00  0.00    +0.000 A 
ATOM     30  C   UNL     1       5.944   3.470  12.590  0.00  0.00    +0.000 A 
ATOM     31  C   UNL     1       5.611   3.698  13.929  0.00  0.00    +0.000 A 
ENDBRANCH  24  26
ENDBRANCH  21  22
ENDBRANCH  20  21
ENDBRANCH   6  20
TORSDOF 6
ENDMDL
MODEL 6
REMARK VINA RESULT:      -7.9      3.013      3.750
REMARK  Name = 
REMARK  8 active torsions:
REMARK  status: ('A' for Active; 'I' for Inactive)
REMARK    1  A    between atoms: C_1  and  N_2
REMARK    2  A    between atoms: C_3  and  C_4
REMARK    3  A    between atoms: C_4  and  C_5
REMARK    4  A    between atoms: N_7  and  C_8
REMARK    5  A    between atoms: C_19  and  S_20
REMARK    6  A    between atoms: S_20  and  C_21
REMARK    7  A    between atoms: C_21  and  C_22
REMARK    8  A    between atoms: N_24  and  C_25
REMARK                            x       y       z     vdW  Elec       q    Type
REMARK                         _______ _______ _______ _____ _____    ______ ____
ROOT
ATOM      1  C   UNL     1       0.887   8.633  21.405  0.00  0.00    +0.000 C 
ATOM      2  N   UNL     1       1.111   8.771  19.978  0.00  0.00    +0.000 N 
ATOM      3  C   UNL     1       2.015   8.038  19.221  0.00  0.00    +0.000 A 
ATOM      4  C   UNL     1       2.042   8.618  17.962  0.00  0.00    +0.000 A 
ATOM      5  C   UNL     1       1.086   9.657  17.930  0.00  0.00    +0.000 A 
ATOM      6  C   UNL     1       0.494   9.706  19.170  0.00  0.00    +0.000 A 
ENDROOT
BRANCH   3   7
ATOM      7  C   UNL     1       2.891   6.932  19.740  0.00  0.00    +0.000 C 
BRANCH   7   8
ATOM      8  C   UNL     1       2.798   5.641  18.930  0.00  0.00    +0.000 A 
ATOM      9  N   UNL     1       1.884   4.789  19.295  0.00  0.00    +0.000 NA
ATOM     10  N   UNL     1       1.807   3.568  18.672  0.00  0.00    +0.000 N 
ATOM     11  C   UNL     1       0.817   2.646  19.194  0.00  0.00    +0.000 C 
ATOM     12  C   UNL     1       2.678   3.133  17.689  0.00  0.00    +0.000 A 
ATOM     13  O   UNL     1       2.647   2.006  17.197  0.00  0.00    +0.000 OA
ATOM     14  C   UNL     1       3.692   4.100  17.236  0.00  0.00    +0.000 A 
ATOM     15  C   UNL     1       4.582   3.742  16.212  0.00  0.00    +0.000 A 
ATOM     16  C   UNL     1       5.554   4.644  15.788  0.00  0.00    +0.000 A 
ATOM     17  C   UNL     1       5.634   5.900  16.388  0.00  0.00    +0.000 A 
ATOM     18  C   UNL     1       4.742   6.259  17.410  0.00  0.00    +0.000 A 
ATOM     19  C   UNL     1       3.765   5.356  17.839  0.00  0.00    +0.000 A 
ENDBRANCH   7   8
ENDBRANCH   3   7
BRANCH   6  20
ATOM     20  S   UNL     1      -0.735  10.790  19.768  0.00  0.00    +0.000 S 
BRANCH  20  21
ATOM     21  C   UNL     1       0.249  11.973  20.739  0.00  0.00    +0.000 C 
BRANCH  21  22
ATOM     22  C   UNL     1      -0.408  12.264  22.083  0.00  0.00    +0.000 C 
ATOM     23  O   UNL     1      -0.395  11.412  22.971  0.00  0.00    +0.000 OA
ATOM     24  N   UNL     1      -0.947  13.538  22.190  0.00  0.00    +0.000 N 
ATOM     25  H   UNL     1      -1.027  14.057  21.322  0.00  0.00    +0.000 HD
BRANCH  24  26
ATOM     26  C   UNL     1      -1.649  14.061  23.300  0.00  0.00    +0.000 A 
ATOM     27  C   UNL     1      -2.968  13.722  23.605  0.00  0.00    +0.000 A 
ATOM     28  C   UNL     1      -3.638  14.350  24.660  0.00  0.00    +0.000 A 
ATOM     29  C   UNL     1      -2.990  15.314  25.427  0.00  0.00    +0.000 A 
ATOM     30  C   UNL     1      -1.658  15.622  25.163  0.00  0.00    +0.000 A 
ATOM     31  C   UNL     1      -0.985  14.988  24.113  0.00  0.00    +0.000 A 
ENDBRANCH  24  26
ENDBRANCH  21  22
ENDBRANCH  20  21
ENDBRANCH   6  20
TORSDOF 6
ENDMDL
MODEL 7
REMARK VINA RESULT:      -7.9      1.602      2.874
REMARK  Name = 
REMARK  8 active torsions:
REMARK  status: ('A' for Active; 'I' for Inactive)
REMARK    1  A    between atoms: C_1  and  N_2
REMARK    2  A    between atoms: C_3  and  C_4
REMARK    3  A    between atoms: C_4  and  C_5
REMARK    4  A    between atoms: N_7  and  C_8
REMARK    5  A    between atoms: C_19  and  S_20
REMARK    6  A    between atoms: S_20  and  C_21
REMARK    7  A    between atoms: C_21  and  C_22
REMARK    8  A    between atoms: N_24  and  C_25
REMARK                            x       y       z     vdW  Elec       q    Type
REMARK                         _______ _______ _______ _____ _____    ______ ____
ROOT
ATOM      1  C   UNL     1      -0.013   9.001  21.694  0.00  0.00    +0.000 C 
ATOM      2  N   UNL     1       0.525   9.171  20.358  0.00  0.00    +0.000 N 
ATOM      3  C   UNL     1       1.477   8.360  19.754  0.00  0.00    +0.000 A 
ATOM      4  C   UNL     1       1.841   8.985  18.572  0.00  0.00    +0.000 A 
ATOM      5  C   UNL     1       1.044  10.140  18.415  0.00  0.00    +0.000 A 
ATOM      6  C   UNL     1       0.211  10.213  19.507  0.00  0.00    +0.000 A 
ENDROOT
BRANCH   3   7
ATOM      7  C   UNL     1       2.084   7.127  20.364  0.00  0.00    +0.000 C 
BRANCH   7   8
ATOM      8  C   UNL     1       2.707   6.177  19.344  0.00  0.00    +0.000 A 
ATOM      9  N   UNL     1       3.646   6.668  18.588  0.00  0.00    +0.000 NA
ATOM     10  N   UNL     1       4.183   5.898  17.587  0.00  0.00    +0.000 N 
ATOM     11  C   UNL     1       5.163   6.547  16.737  0.00  0.00    +0.000 C 
ATOM     12  C   UNL     1       3.764   4.618  17.272  0.00  0.00    +0.000 A 
ATOM     13  O   UNL     1       4.199   3.970  16.320  0.00  0.00    +0.000 OA
ATOM     14  C   UNL     1       2.732   4.032  18.144  0.00  0.00    +0.000 A 
ATOM     15  C   UNL     1       2.290   2.721  17.909  0.00  0.00    +0.000 A 
ATOM     16  C   UNL     1       1.303   2.164  18.719  0.00  0.00    +0.000 A 
ATOM     17  C   UNL     1       0.762   2.919  19.759  0.00  0.00    +0.000 A 
ATOM     18  C   UNL     1       1.206   4.228  19.995  0.00  0.00    +0.000 A 
ATOM     19  C   UNL     1       2.197   4.791  19.184  0.00  0.00    +0.000 A 
ENDBRANCH   7   8
ENDBRANCH   3   7
BRANCH   6  20
ATOM     20  S   UNL     1      -0.980  11.421  19.913  0.00  0.00    +0.000 S 
BRANCH  20  21
ATOM     21  C   UNL     1      -0.141  12.346  21.235  0.00  0.00    +0.000 C 
BRANCH  21  22
ATOM     22  C   UNL     1       0.999  13.190  20.678  0.00  0.00    +0.000 C 
ATOM     23  O   UNL     1       2.084  13.218  21.260  0.00  0.00    +0.000 OA
ATOM     24  N   UNL     1       0.699  13.843  19.491  0.00  0.00    +0.000 N 
ATOM     25  H   UNL     1      -0.281  13.855  19.231  0.00  0.00    +0.000 HD
BRANCH  24  26
ATOM     26  C   UNL     1       1.547  14.720  18.779  0.00  0.00    +0.000 A 
ATOM     27  C   UNL     1       2.710  14.306  18.127  0.00  0.00    +0.000 A 
ATOM     28  C   UNL     1       3.558  15.239  17.523  0.00  0.00    +0.000 A 
ATOM     29  C   UNL     1       3.244  16.595  17.555  0.00  0.00    +0.000 A 
ATOM     30  C   UNL     1       2.061  17.014  18.158  0.00  0.00    +0.000 A 
ATOM     31  C   UNL     1       1.208  16.079  18.755  0.00  0.00    +0.000 A 
ENDBRANCH  24  26
ENDBRANCH  21  22
ENDBRANCH  20  21
ENDBRANCH   6  20
TORSDOF 6
ENDMDL
MODEL 8
REMARK VINA RESULT:      -7.8      1.298      1.730
REMARK  Name = 
REMARK  8 active torsions:
REMARK  status: ('A' for Active; 'I' for Inactive)
REMARK    1  A    between atoms: C_1  and  N_2
REMARK    2  A    between atoms: C_3  and  C_4
REMARK    3  A    between atoms: C_4  and  C_5
REMARK    4  A    between atoms: N_7  and  C_8
REMARK    5  A    between atoms: C_19  and  S_20
REMARK    6  A    between atoms: S_20  and  C_21
REMARK    7  A    between atoms: C_21  and  C_22
REMARK    8  A    between atoms: N_24  and  C_25
REMARK                            x       y       z     vdW  Elec       q    Type
REMARK                         _______ _______ _______ _____ _____    ______ ____
ROOT
ATOM      1  C   UNL     1       0.240   8.628  21.234  0.00  0.00    +0.000 C 
ATOM      2  N   UNL     1       0.767   8.881  19.907  0.00  0.00    +0.000 N 
ATOM      3  C   UNL     1       1.834   8.218  19.315  0.00  0.00    +0.000 A 
ATOM      4  C   UNL     1       2.122   8.895  18.140  0.00  0.00    +0.000 A 
ATOM      5  C   UNL     1       1.170   9.925  17.975  0.00  0.00    +0.000 A 
ATOM      6  C   UNL     1       0.319   9.871  19.054  0.00  0.00    +0.000 A 
ENDROOT
BRANCH   3   7
ATOM      7  C   UNL     1       2.604   7.082  19.930  0.00  0.00    +0.000 C 
BRANCH   7   8
ATOM      8  C   UNL     1       2.572   5.797  19.105  0.00  0.00    +0.000 A 
ATOM      9  N   UNL     1       1.688   4.906  19.449  0.00  0.00    +0.000 NA
ATOM     10  N   UNL     1       1.666   3.691  18.812  0.00  0.00    +0.000 N 
ATOM     11  C   UNL     1       0.707   2.724  19.312  0.00  0.00    +0.000 C 
ATOM     12  C   UNL     1       2.565   3.301  17.835  0.00  0.00    +0.000 A 
ATOM     13  O   UNL     1       2.584   2.179  17.330  0.00  0.00    +0.000 OA
ATOM     14  C   UNL     1       3.545   4.313  17.405  0.00  0.00    +0.000 A 
ATOM     15  C   UNL     1       4.461   4.001  16.387  0.00  0.00    +0.000 A 
ATOM     16  C   UNL     1       5.401   4.947  15.985  0.00  0.00    +0.000 A 
ATOM     17  C   UNL     1       5.424   6.197  16.600  0.00  0.00    +0.000 A 
ATOM     18  C   UNL     1       4.507   6.510  17.615  0.00  0.00    +0.000 A 
ATOM     19  C   UNL     1       3.561   5.563  18.022  0.00  0.00    +0.000 A 
ENDBRANCH   7   8
ENDBRANCH   3   7
BRANCH   6  20
ATOM     20  S   UNL     1      -1.039  10.893  19.446  0.00  0.00    +0.000 S 
BRANCH  20  21
ATOM     21  C   UNL     1      -0.426  11.787  20.908  0.00  0.00    +0.000 C 
BRANCH  21  22
ATOM     22  C   UNL     1       0.785  12.644  20.562  0.00  0.00    +0.000 C 
ATOM     23  O   UNL     1       1.833  12.510  21.193  0.00  0.00    +0.000 OA
ATOM     24  N   UNL     1       0.588  13.505  19.492  0.00  0.00    +0.000 N 
ATOM     25  H   UNL     1      -0.374  13.618  19.190  0.00  0.00    +0.000 HD
BRANCH  24  26
ATOM     26  C   UNL     1       1.519  14.438  18.984  0.00  0.00    +0.000 A 
ATOM     27  C   UNL     1       1.421  15.815  19.195  0.00  0.00    +0.000 A 
ATOM     28  C   UNL     1       2.320  16.694  18.583  0.00  0.00    +0.000 A 
ATOM     29  C   UNL     1       3.332  16.203  17.763  0.00  0.00    +0.000 A 
ATOM     30  C   UNL     1       3.470  14.829  17.587  0.00  0.00    +0.000 A 
ATOM     31  C   UNL     1       2.576  13.949  18.207  0.00  0.00    +0.000 A 
ENDBRANCH  24  26
ENDBRANCH  21  22
ENDBRANCH  20  21
ENDBRANCH   6  20
TORSDOF 6
ENDMDL
MODEL 9
REMARK VINA RESULT:      -7.8      1.234      2.654
REMARK  Name = 
REMARK  8 active torsions:
REMARK  status: ('A' for Active; 'I' for Inactive)
REMARK    1  A    between atoms: C_1  and  N_2
REMARK    2  A    between atoms: C_3  and  C_4
REMARK    3  A    between atoms: C_4  and  C_5
REMARK    4  A    between atoms: N_7  and  C_8
REMARK    5  A    between atoms: C_19  and  S_20
REMARK    6  A    between atoms: S_20  and  C_21
REMARK    7  A    between atoms: C_21  and  C_22
REMARK    8  A    between atoms: N_24  and  C_25
REMARK                            x       y       z     vdW  Elec       q    Type
REMARK                         _______ _______ _______ _____ _____    ______ ____
ROOT
ATOM      1  C   UNL     1       0.957   9.144  21.611  0.00  0.00    +0.000 C 
ATOM      2  N   UNL     1       1.165   9.073  20.177  0.00  0.00    +0.000 N 
ATOM      3  C   UNL     1       1.817   8.051  19.498  0.00  0.00    +0.000 A 
ATOM      4  C   UNL     1       1.959   8.472  18.185  0.00  0.00    +0.000 A 
ATOM      5  C   UNL     1       1.314   9.721  18.046  0.00  0.00    +0.000 A 
ATOM      6  C   UNL     1       0.796  10.052  19.275  0.00  0.00    +0.000 A 
ENDROOT
BRANCH   3   7
ATOM      7  C   UNL     1       2.382   6.809  20.129  0.00  0.00    +0.000 C 
BRANCH   7   8
ATOM      8  C   UNL     1       3.041   5.857  19.134  0.00  0.00    +0.000 A 
ATOM      9  N   UNL     1       4.045   6.329  18.454  0.00  0.00    +0.000 NA
ATOM     10  N   UNL     1       4.624   5.560  17.475  0.00  0.00    +0.000 N 
ATOM     11  C   UNL     1       5.681   6.191  16.708  0.00  0.00    +0.000 C 
ATOM     12  C   UNL     1       4.185   4.301  17.105  0.00  0.00    +0.000 A 
ATOM     13  O   UNL     1       4.663   3.657  16.172  0.00  0.00    +0.000 OA
ATOM     14  C   UNL     1       3.077   3.735  17.893  0.00  0.00    +0.000 A 
ATOM     15  C   UNL     1       2.608   2.445  17.601  0.00  0.00    +0.000 A 
ATOM     16  C   UNL     1       1.551   1.908  18.331  0.00  0.00    +0.000 A 
ATOM     17  C   UNL     1       0.964   2.661  19.346  0.00  0.00    +0.000 A 
ATOM     18  C   UNL     1       1.435   3.950  19.640  0.00  0.00    +0.000 A 
ATOM     19  C   UNL     1       2.497   4.493  18.910  0.00  0.00    +0.000 A 
ENDBRANCH   7   8
ENDBRANCH   3   7
BRANCH   6  20
ATOM     20  S   UNL     1      -0.080  11.481  19.759  0.00  0.00    +0.000 S 
BRANCH  20  21
ATOM     21  C   UNL     1       1.271  12.640  20.136  0.00  0.00    +0.000 C 
BRANCH  21  22
ATOM     22  C   UNL     1       1.380  13.724  19.070  0.00  0.00    +0.000 C 
ATOM     23  O   UNL     1       1.951  13.484  18.007  0.00  0.00    +0.000 OA
ATOM     24  N   UNL     1       0.760  14.918  19.406  0.00  0.00    +0.000 N 
ATOM     25  H   UNL     1       0.483  15.013  20.377  0.00  0.00    +0.000 HD
BRANCH  24  26
ATOM     26  C   UNL     1       0.740  16.099  18.631  0.00  0.00    +0.000 A 
ATOM     27  C   UNL     1      -0.436  16.709  18.187  0.00  0.00    +0.000 A 
ATOM     28  C   UNL     1      -0.385  17.821  17.340  0.00  0.00    +0.000 A 
ATOM     29  C   UNL     1       0.842  18.340  16.939  0.00  0.00    +0.000 A 
ATOM     30  C   UNL     1       2.020  17.772  17.417  0.00  0.00    +0.000 A 
ATOM     31  C   UNL     1       1.970  16.665  18.271  0.00  0.00    +0.000 A 
ENDBRANCH  24  26
ENDBRANCH  21  22
ENDBRANCH  20  21
ENDBRANCH   6  20
TORSDOF 6
ENDMDL
