MODEL 1
REMARK VINA RESULT:      -8.2      0.000      0.000
REMARK  Name = 
REMARK  3 active torsions:
REMARK  status: ('A' for Active; 'I' for Inactive)
REMARK    1  A    between atoms: C_2  and  C_3
REMARK    2  A    between atoms: C_3  and  N_4
REMARK    3  A    between atoms: N_13  and  C_14
REMARK                            x       y       z     vdW  Elec       q    Type
REMARK                         _______ _______ _______ _____ _____    ______ ____
ROOT
ATOM      1  O   UNL     1       8.353   4.333  17.061  0.00  0.00    +0.000 OA
ATOM      2  C   UNL     1       7.145   4.555  17.017  0.00  0.00    +0.000 C 
ATOM      3  N   UNL     1       6.344   3.887  17.936  0.00  0.00    +0.000 N 
ATOM      4  C   UNL     1       4.977   3.957  18.094  0.00  0.00    +0.000 C 
ATOM      5  O   UNL     1       4.240   4.628  17.371  0.00  0.00    +0.000 OA
ATOM      6  N   UNL     1       4.517   3.197  19.150  0.00  0.00    +0.000 N 
ATOM      7  H   UNL     1       6.860   3.266  18.541  0.00  0.00    +0.000 HD
ATOM      8  H   UNL     1       5.138   3.132  19.946  0.00  0.00    +0.000 HD
ENDROOT
BRANCH   6   9
ATOM      9  C   UNL     1       3.132   3.186  19.453  0.00  0.00    +0.000 A 
ATOM     10  C   UNL     1       2.640   3.988  20.485  0.00  0.00    +0.000 A 
ATOM     11  C   UNL     1       1.266   4.067  20.710  0.00  0.00    +0.000 A 
ATOM     12  C   UNL     1       0.379   3.323  19.927  0.00  0.00    +0.000 A 
ATOM     13  C   UNL     1       0.869   2.483  18.928  0.00  0.00    +0.000 A 
ATOM     14  C   UNL     1       2.241   2.419  18.697  0.00  0.00    +0.000 A 
ATOM     15  F   UNL     1       2.702   1.568  17.768  0.00  0.00    +0.000 F 
ENDBRANCH   6   9
BRANCH   2  16
ATOM     16  C   UNL     1       6.438   5.514  16.032  0.00  0.00    +0.000 C 
BRANCH  16  17
ATOM     17  N   UNL     1       6.427   5.163  14.590  0.00  0.00    +0.000 NA
ATOM     18  C   UNL     1       7.710   5.331  13.906  0.00  0.00    +0.000 C 
ATOM     19  C   UNL     1       7.569   5.117  12.386  0.00  0.00    +0.000 C 
ATOM     20  C   UNL     1       6.966   3.758  12.086  0.00  0.00    +0.000 C 
ATOM     21  C   UNL     1       5.641   3.611  12.823  0.00  0.00    +0.000 C 
ATOM     22  C   UNL     1       5.800   3.872  14.325  0.00  0.00    +0.000 C 
ENDBRANCH  16  17
ENDBRANCH   2  16
TORSDOF 3
ENDMDL
MODEL 2
REMARK VINA RESULT:      -8.0      1.046      1.499
REMARK  Name = 
REMARK  3 active torsions:
REMARK  status: ('A' for Active; 'I' for Inactive)
REMARK    1  A    between atoms: C_2  and  C_3
REMARK    2  A    between atoms: C_3  and  N_4
REMARK    3  A    between atoms: N_13  and  C_14
REMARK                            x       y       z     vdW  Elec       q    Type
REMARK                         _______ _______ _______ _____ _____    ______ ____
ROOT
ATOM      1  O   UNL     1       8.336   4.283  17.021  0.00  0.00    +0.000 OA
ATOM      2  C   UNL     1       7.137   4.536  16.931  0.00  0.00    +0.000 C 
ATOM      3  N   UNL     1       6.282   3.877  17.808  0.00  0.00    +0.000 N 
ATOM      4  C   UNL     1       4.913   3.980  17.912  0.00  0.00    +0.000 C 
ATOM      5  O   UNL     1       4.223   4.679  17.170  0.00  0.00    +0.000 OA
ATOM      6  N   UNL     1       4.392   3.218  18.939  0.00  0.00    +0.000 N 
ATOM      7  H   UNL     1       6.758   3.235  18.424  0.00  0.00    +0.000 HD
ATOM      8  H   UNL     1       4.979   3.128  19.758  0.00  0.00    +0.000 HD
ENDROOT
BRANCH   6   9
ATOM      9  C   UNL     1       2.996   3.239  19.185  0.00  0.00    +0.000 A 
ATOM     10  C   UNL     1       2.163   2.319  18.545  0.00  0.00    +0.000 A 
ATOM     11  C   UNL     1       0.808   2.261  18.870  0.00  0.00    +0.000 A 
ATOM     12  C   UNL     1       0.272   3.142  19.814  0.00  0.00    +0.000 A 
ATOM     13  C   UNL     1       1.089   4.096  20.419  0.00  0.00    +0.000 A 
ATOM     14  C   UNL     1       2.445   4.139  20.102  0.00  0.00    +0.000 A 
ATOM     15  F   UNL     1       3.208   5.095  20.653  0.00  0.00    +0.000 F 
ENDBRANCH   6   9
BRANCH   2  16
ATOM     16  C   UNL     1       6.495   5.525  15.932  0.00  0.00    +0.000 C 
BRANCH  16  17
ATOM     17  N   UNL     1       6.489   5.170  14.491  0.00  0.00    +0.000 NA
ATOM     18  C   UNL     1       7.763   5.378  13.801  0.00  0.00    +0.000 C 
ATOM     19  C   UNL     1       7.623   5.156  12.282  0.00  0.00    +0.000 C 
ATOM     20  C   UNL     1       7.064   3.777  11.989  0.00  0.00    +0.000 C 
ATOM     21  C   UNL     1       5.747   3.588  12.732  0.00  0.00    +0.000 C 
ATOM     22  C   UNL     1       5.904   3.858  14.232  0.00  0.00    +0.000 C 
ENDBRANCH  16  17
ENDBRANCH   2  16
TORSDOF 3
ENDMDL
MODEL 3
REMARK VINA RESULT:      -7.2      1.135      1.904
REMARK  Name = 
REMARK  3 active torsions:
REMARK  status: ('A' for Active; 'I' for Inactive)
REMARK    1  A    between atoms: C_2  and  C_3
REMARK    2  A    between atoms: C_3  and  N_4
REMARK    3  A    between atoms: N_13  and  C_14
REMARK                            x       y       z     vdW  Elec       q    Type
REMARK                         _______ _______ _______ _____ _____    ______ ____
ROOT
ATOM      1  O   UNL     1       8.495   4.386  17.623  0.00  0.00    +0.000 OA
ATOM      2  C   UNL     1       7.301   4.524  17.370  0.00  0.00    +0.000 C 
ATOM      3  N   UNL     1       6.395   3.956  18.258  0.00  0.00    +0.000 N 
ATOM      4  C   UNL     1       5.019   3.965  18.204  0.00  0.00    +0.000 C 
ATOM      5  O   UNL     1       4.375   4.472  17.285  0.00  0.00    +0.000 OA
ATOM      6  N   UNL     1       4.433   3.347  19.291  0.00  0.00    +0.000 N 
ATOM      7  H   UNL     1       6.836   3.466  19.022  0.00  0.00    +0.000 HD
ATOM      8  H   UNL     1       4.927   3.442  20.168  0.00  0.00    +0.000 HD
ENDROOT
BRANCH   6   9
ATOM      9  C   UNL     1       3.019   3.297  19.387  0.00  0.00    +0.000 A 
ATOM     10  C   UNL     1       2.311   2.295  18.720  0.00  0.00    +0.000 A 
ATOM     11  C   UNL     1       0.934   2.174  18.904  0.00  0.00    +0.000 A 
ATOM     12  C   UNL     1       0.252   3.071  19.731  0.00  0.00    +0.000 A 
ATOM     13  C   UNL     1       0.947   4.104  20.360  0.00  0.00    +0.000 A 
ATOM     14  C   UNL     1       2.324   4.211  20.185  0.00  0.00    +0.000 A 
ATOM     15  F   UNL     1       2.970   5.240  20.754  0.00  0.00    +0.000 F 
ENDBRANCH   6   9
BRANCH   2  16
ATOM     16  C   UNL     1       6.717   5.277  16.153  0.00  0.00    +0.000 C 
BRANCH  16  17
ATOM     17  N   UNL     1       6.954   4.721  14.798  0.00  0.00    +0.000 NA
ATOM     18  C   UNL     1       5.788   4.089  14.179  0.00  0.00    +0.000 C 
ATOM     19  C   UNL     1       6.164   3.387  12.859  0.00  0.00    +0.000 C 
ATOM     20  C   UNL     1       6.829   4.358  11.902  0.00  0.00    +0.000 C 
ATOM     21  C   UNL     1       8.028   5.008  12.581  0.00  0.00    +0.000 C 
ATOM     22  C   UNL     1       7.636   5.659  13.911  0.00  0.00    +0.000 C 
ENDBRANCH  16  17
ENDBRANCH   2  16
TORSDOF 3
ENDMDL
MODEL 4
REMARK VINA RESULT:      -7.2      2.243      6.701
REMARK  Name = 
REMARK  3 active torsions:
REMARK  status: ('A' for Active; 'I' for Inactive)
REMARK    1  A    between atoms: C_2  and  C_3
REMARK    2  A    between atoms: C_3  and  N_4
REMARK    3  A    between atoms: N_13  and  C_14
REMARK                            x       y       z     vdW  Elec       q    Type
REMARK                         _______ _______ _______ _____ _____    ______ ____
ROOT
ATOM      1  O   UNL     1       7.472   6.999  17.038  0.00  0.00    +0.000 OA
ATOM      2  C   UNL     1       7.069   5.912  16.634  0.00  0.00    +0.000 C 
ATOM      3  N   UNL     1       7.128   5.684  15.263  0.00  0.00    +0.000 N 
ATOM      4  C   UNL     1       6.742   4.563  14.562  0.00  0.00    +0.000 C 
ATOM      5  O   UNL     1       6.226   3.575  15.085  0.00  0.00    +0.000 OA
ATOM      6  N   UNL     1       6.996   4.660  13.209  0.00  0.00    +0.000 N 
ATOM      7  H   UNL     1       7.490   6.468  14.742  0.00  0.00    +0.000 HD
ATOM      8  H   UNL     1       7.824   5.182  12.956  0.00  0.00    +0.000 HD
ENDROOT
BRANCH   6   9
ATOM      9  C   UNL     1       6.674   3.572  12.358  0.00  0.00    +0.000 A 
ATOM     10  C   UNL     1       7.696   2.824  11.769  0.00  0.00    +0.000 A 
ATOM     11  C   UNL     1       7.386   1.686  11.025  0.00  0.00    +0.000 A 
ATOM     12  C   UNL     1       6.054   1.307  10.839  0.00  0.00    +0.000 A 
ATOM     13  C   UNL     1       5.028   2.079  11.382  0.00  0.00    +0.000 A 
ATOM     14  C   UNL     1       5.344   3.206  12.138  0.00  0.00    +0.000 A 
ATOM     15  F   UNL     1       4.346   3.968  12.610  0.00  0.00    +0.000 F 
ENDBRANCH   6   9
BRANCH   2  16
ATOM     16  C   UNL     1       6.505   4.773  17.513  0.00  0.00    +0.000 C 
BRANCH  16  17
ATOM     17  N   UNL     1       5.141   4.924  18.077  0.00  0.00    +0.000 NA
ATOM     18  C   UNL     1       4.245   5.781  17.298  0.00  0.00    +0.000 C 
ATOM     19  C   UNL     1       2.916   6.026  18.039  0.00  0.00    +0.000 C 
ATOM     20  C   UNL     1       2.244   4.712  18.390  0.00  0.00    +0.000 C 
ATOM     21  C   UNL     1       3.206   3.840  19.187  0.00  0.00    +0.000 C 
ATOM     22  C   UNL     1       4.535   3.649  18.448  0.00  0.00    +0.000 C 
ENDBRANCH  16  17
ENDBRANCH   2  16
TORSDOF 3
ENDMDL
MODEL 5
REMARK VINA RESULT:      -7.1      1.854      2.152
REMARK  Name = 
REMARK  3 active torsions:
REMARK  status: ('A' for Active; 'I' for Inactive)
REMARK    1  A    between atoms: C_2  and  C_3
REMARK    2  A    between atoms: C_3  and  N_4
REMARK    3  A    between atoms: N_13  and  C_14
REMARK                            x       y       z     vdW  Elec       q    Type
REMARK                         _______ _______ _______ _____ _____    ______ ____
ROOT
ATOM      1  O   UNL     1       6.954   7.602  16.725  0.00  0.00    +0.000 OA
ATOM      2  C   UNL     1       6.393   6.517  16.852  0.00  0.00    +0.000 C 
ATOM      3  N   UNL     1       5.238   6.487  17.626  0.00  0.00    +0.000 N 
ATOM      4  C   UNL     1       4.432   5.411  17.923  0.00  0.00    +0.000 C 
ATOM      5  O   UNL     1       4.665   4.260  17.553  0.00  0.00    +0.000 OA
ATOM      6  N   UNL     1       3.329   5.757  18.678  0.00  0.00    +0.000 N 
ATOM      7  H   UNL     1       4.998   7.384  18.021  0.00  0.00    +0.000 HD
ATOM      8  H   UNL     1       2.942   6.673  18.494  0.00  0.00    +0.000 HD
ENDROOT
BRANCH   6   9
ATOM      9  C   UNL     1       2.392   4.758  19.044  0.00  0.00    +0.000 A 
ATOM     10  C   UNL     1       1.797   3.968  18.057  0.00  0.00    +0.000 A 
ATOM     11  C   UNL     1       0.963   2.911  18.421  0.00  0.00    +0.000 A 
ATOM     12  C   UNL     1       0.694   2.656  19.768  0.00  0.00    +0.000 A 
ATOM     13  C   UNL     1       1.246   3.473  20.755  0.00  0.00    +0.000 A 
ATOM     14  C   UNL     1       2.090   4.517  20.388  0.00  0.00    +0.000 A 
ATOM     15  F   UNL     1       2.572   5.327  21.344  0.00  0.00    +0.000 F 
ENDBRANCH   6   9
BRANCH   2  16
ATOM     16  C   UNL     1       6.854   5.183  16.223  0.00  0.00    +0.000 C 
BRANCH  16  17
ATOM     17  N   UNL     1       6.704   5.004  14.757  0.00  0.00    +0.000 NA
ATOM     18  C   UNL     1       7.919   5.255  13.980  0.00  0.00    +0.000 C 
ATOM     19  C   UNL     1       7.635   5.221  12.465  0.00  0.00    +0.000 C 
ATOM     20  C   UNL     1       6.996   3.905  12.067  0.00  0.00    +0.000 C 
ATOM     21  C   UNL     1       5.744   3.667  12.902  0.00  0.00    +0.000 C 
ATOM     22  C   UNL     1       6.046   3.750  14.402  0.00  0.00    +0.000 C 
ENDBRANCH  16  17
ENDBRANCH   2  16
TORSDOF 3
ENDMDL
MODEL 6
REMARK VINA RESULT:      -7.1      5.732      8.067
REMARK  Name = 
REMARK  3 active torsions:
REMARK  status: ('A' for Active; 'I' for Inactive)
REMARK    1  A    between atoms: C_2  and  C_3
REMARK    2  A    between atoms: C_3  and  N_4
REMARK    3  A    between atoms: N_13  and  C_14
REMARK                            x       y       z     vdW  Elec       q    Type
REMARK                         _______ _______ _______ _____ _____    ______ ____
ROOT
ATOM      1  O   UNL     1       0.908   9.925  22.386  0.00  0.00    +0.000 OA
ATOM      2  C   UNL     1       1.157   9.463  21.275  0.00  0.00    +0.000 C 
ATOM      3  N   UNL     1       1.636   8.159  21.224  0.00  0.00    +0.000 N 
ATOM      4  C   UNL     1       1.988   7.416  20.118  0.00  0.00    +0.000 C 
ATOM      5  O   UNL     1       1.960   7.852  18.967  0.00  0.00    +0.000 OA
ATOM      6  N   UNL     1       2.373   6.129  20.434  0.00  0.00    +0.000 N 
ATOM      7  H   UNL     1       1.745   7.735  22.133  0.00  0.00    +0.000 HD
ATOM      8  H   UNL     1       1.896   5.710  21.221  0.00  0.00    +0.000 HD
ENDROOT
BRANCH   6   9
ATOM      9  C   UNL     1       2.742   5.236  19.396  0.00  0.00    +0.000 A 
ATOM     10  C   UNL     1       1.755   4.543  18.691  0.00  0.00    +0.000 A 
ATOM     11  C   UNL     1       2.106   3.753  17.597  0.00  0.00    +0.000 A 
ATOM     12  C   UNL     1       3.446   3.626  17.220  0.00  0.00    +0.000 A 
ATOM     13  C   UNL     1       4.439   4.275  17.951  0.00  0.00    +0.000 A 
ATOM     14  C   UNL     1       4.082   5.076  19.033  0.00  0.00    +0.000 A 
ATOM     15  F   UNL     1       5.052   5.652  19.759  0.00  0.00    +0.000 F 
ENDBRANCH   6   9
BRANCH   2  16
ATOM     16  C   UNL     1       0.979  10.201  19.929  0.00  0.00    +0.000 C 
BRANCH  16  17
ATOM     17  N   UNL     1      -0.398  10.437  19.430  0.00  0.00    +0.000 NA
ATOM     18  C   UNL     1      -0.933  11.772  19.706  0.00  0.00    +0.000 C 
ATOM     19  C   UNL     1      -2.420  11.874  19.314  0.00  0.00    +0.000 C 
ATOM     20  C   UNL     1      -2.621  11.497  17.859  0.00  0.00    +0.000 C 
ATOM     21  C   UNL     1      -2.042  10.111  17.602  0.00  0.00    +0.000 C 
ATOM     22  C   UNL     1      -0.577  10.024  18.041  0.00  0.00    +0.000 C 
ENDBRANCH  16  17
ENDBRANCH   2  16
TORSDOF 3
ENDMDL
MODEL 7
REMARK VINA RESULT:      -7.0      5.523      7.947
REMARK  Name = 
REMARK  3 active torsions:
REMARK  status: ('A' for Active; 'I' for Inactive)
REMARK    1  A    between atoms: C_2  and  C_3
REMARK    2  A    between atoms: C_3  and  N_4
REMARK    3  A    between atoms: N_13  and  C_14
REMARK                            x       y       z     vdW  Elec       q    Type
REMARK                         _______ _______ _______ _____ _____    ______ ____
ROOT
ATOM      1  O   UNL     1       0.560   9.272  22.427  0.00  0.00    +0.000 OA
ATOM      2  C   UNL     1       1.022   9.016  21.318  0.00  0.00    +0.000 C 
ATOM      3  N   UNL     1       1.624   7.774  21.153  0.00  0.00    +0.000 N 
ATOM      4  C   UNL     1       2.213   7.249  20.024  0.00  0.00    +0.000 C 
ATOM      5  O   UNL     1       2.326   7.864  18.964  0.00  0.00    +0.000 OA
ATOM      6  N   UNL     1       2.663   5.956  20.203  0.00  0.00    +0.000 N 
ATOM      7  H   UNL     1       1.627   7.215  21.993  0.00  0.00    +0.000 HD
ATOM      8  H   UNL     1       2.109   5.382  20.826  0.00  0.00    +0.000 HD
ENDROOT
BRANCH   6   9
ATOM      9  C   UNL     1       3.272   5.272  19.121  0.00  0.00    +0.000 A 
ATOM     10  C   UNL     1       4.653   5.363  18.931  0.00  0.00    +0.000 A 
ATOM     11  C   UNL     1       5.271   4.603  17.938  0.00  0.00    +0.000 A 
ATOM     12  C   UNL     1       4.511   3.771  17.112  0.00  0.00    +0.000 A 
ATOM     13  C   UNL     1       3.126   3.715  17.265  0.00  0.00    +0.000 A 
ATOM     14  C   UNL     1       2.516   4.464  18.268  0.00  0.00    +0.000 A 
ATOM     15  F   UNL     1       1.178   4.440  18.370  0.00  0.00    +0.000 F 
ENDBRANCH   6   9
BRANCH   2  16
ATOM     16  C   UNL     1       0.990   9.952  20.089  0.00  0.00    +0.000 C 
BRANCH  16  17
ATOM     17  N   UNL     1      -0.326  10.282  19.487  0.00  0.00    +0.000 NA
ATOM     18  C   UNL     1      -0.827  11.622  19.800  0.00  0.00    +0.000 C 
ATOM     19  C   UNL     1      -2.267  11.817  19.287  0.00  0.00    +0.000 C 
ATOM     20  C   UNL     1      -2.352  11.538  17.799  0.00  0.00    +0.000 C 
ATOM     21  C   UNL     1      -1.811  10.145  17.506  0.00  0.00    +0.000 C 
ATOM     22  C   UNL     1      -0.396   9.962  18.064  0.00  0.00    +0.000 C 
ENDBRANCH  16  17
ENDBRANCH   2  16
TORSDOF 3
ENDMDL
MODEL 8
REMARK VINA RESULT:      -6.8      2.323      6.803
REMARK  Name = 
REMARK  3 active torsions:
REMARK  status: ('A' for Active; 'I' for Inactive)
REMARK    1  A    between atoms: C_2  and  C_3
REMARK    2  A    between atoms: C_3  and  N_4
REMARK    3  A    between atoms: N_13  and  C_14
REMARK                            x       y       z     vdW  Elec       q    Type
REMARK                         _______ _______ _______ _____ _____    ______ ____
ROOT
ATOM      1  O   UNL     1       7.041   7.043  16.954  0.00  0.00    +0.000 OA
ATOM      2  C   UNL     1       6.683   5.943  16.542  0.00  0.00    +0.000 C 
ATOM      3  N   UNL     1       6.844   5.691  15.184  0.00  0.00    +0.000 N 
ATOM      4  C   UNL     1       6.525   4.552  14.479  0.00  0.00    +0.000 C 
ATOM      5  O   UNL     1       5.986   3.566  14.982  0.00  0.00    +0.000 OA
ATOM      6  N   UNL     1       6.875   4.628  13.146  0.00  0.00    +0.000 N 
ATOM      7  H   UNL     1       7.232   6.471  14.676  0.00  0.00    +0.000 HD
ATOM      8  H   UNL     1       7.712   5.159  12.943  0.00  0.00    +0.000 HD
ENDROOT
BRANCH   6   9
ATOM      9  C   UNL     1       6.630   3.521  12.294  0.00  0.00    +0.000 A 
ATOM     10  C   UNL     1       7.704   2.798  11.768  0.00  0.00    +0.000 A 
ATOM     11  C   UNL     1       7.466   1.642  11.025  0.00  0.00    +0.000 A 
ATOM     12  C   UNL     1       6.158   1.220  10.777  0.00  0.00    +0.000 A 
ATOM     13  C   UNL     1       5.082   1.965  11.258  0.00  0.00    +0.000 A 
ATOM     14  C   UNL     1       5.324   3.110  12.013  0.00  0.00    +0.000 A 
ATOM     15  F   UNL     1       4.281   3.846  12.425  0.00  0.00    +0.000 F 
ENDBRANCH   6   9
BRANCH   2  16
ATOM     16  C   UNL     1       6.072   4.812  17.401  0.00  0.00    +0.000 C 
BRANCH  16  17
ATOM     17  N   UNL     1       4.595   4.717  17.497  0.00  0.00    +0.000 NA
ATOM     18  C   UNL     1       4.087   3.402  17.894  0.00  0.00    +0.000 C 
ATOM     19  C   UNL     1       2.550   3.340  17.798  0.00  0.00    +0.000 C 
ATOM     20  C   UNL     1       1.914   4.442  18.624  0.00  0.00    +0.000 C 
ATOM     21  C   UNL     1       2.473   5.793  18.196  0.00  0.00    +0.000 C 
ATOM     22  C   UNL     1       4.004   5.813  18.258  0.00  0.00    +0.000 C 
ENDBRANCH  16  17
ENDBRANCH   2  16
TORSDOF 3
ENDMDL
MODEL 9
REMARK VINA RESULT:      -6.8      1.589      1.978
REMARK  Name = 
REMARK  3 active torsions:
REMARK  status: ('A' for Active; 'I' for Inactive)
REMARK    1  A    between atoms: C_2  and  C_3
REMARK    2  A    between atoms: C_3  and  N_4
REMARK    3  A    between atoms: N_13  and  C_14
REMARK                            x       y       z     vdW  Elec       q    Type
REMARK                         _______ _______ _______ _____ _____    ______ ____
ROOT
ATOM      1  O   UNL     1       7.037   7.447  16.671  0.00  0.00    +0.000 OA
ATOM      2  C   UNL     1       6.576   6.357  17.001  0.00  0.00    +0.000 C 
ATOM      3  N   UNL     1       5.405   6.364  17.751  0.00  0.00    +0.000 N 
ATOM      4  C   UNL     1       4.694   5.292  18.243  0.00  0.00    +0.000 C 
ATOM      5  O   UNL     1       5.047   4.120  18.110  0.00  0.00    +0.000 OA
ATOM      6  N   UNL     1       3.540   5.667  18.901  0.00  0.00    +0.000 N 
ATOM      7  H   UNL     1       5.068   7.292  17.958  0.00  0.00    +0.000 HD
ATOM      8  H   UNL     1       3.074   6.487  18.534  0.00  0.00    +0.000 HD
ENDROOT
BRANCH   6   9
ATOM      9  C   UNL     1       2.690   4.671  19.443  0.00  0.00    +0.000 A 
ATOM     10  C   UNL     1       2.782   4.340  20.797  0.00  0.00    +0.000 A 
ATOM     11  C   UNL     1       1.873   3.445  21.359  0.00  0.00    +0.000 A 
ATOM     12  C   UNL     1       0.886   2.852  20.566  0.00  0.00    +0.000 A 
ATOM     13  C   UNL     1       0.821   3.141  19.204  0.00  0.00    +0.000 A 
ATOM     14  C   UNL     1       1.721   4.048  18.651  0.00  0.00    +0.000 A 
ATOM     15  F   UNL     1       1.681   4.276  17.330  0.00  0.00    +0.000 F 
ENDBRANCH   6   9
BRANCH   2  16
ATOM     16  C   UNL     1       7.181   4.978  16.653  0.00  0.00    +0.000 C 
BRANCH  16  17
ATOM     17  N   UNL     1       7.190   4.548  15.233  0.00  0.00    +0.000 NA
ATOM     18  C   UNL     1       5.916   4.016  14.744  0.00  0.00    +0.000 C 
ATOM     19  C   UNL     1       6.059   3.433  13.324  0.00  0.00    +0.000 C 
ATOM     20  C   UNL     1       6.620   4.469  12.369  0.00  0.00    +0.000 C 
ATOM     21  C   UNL     1       7.935   5.012  12.914  0.00  0.00    +0.000 C 
ATOM     22  C   UNL     1       7.776   5.544  14.342  0.00  0.00    +0.000 C 
ENDBRANCH  16  17
ENDBRANCH   2  16
TORSDOF 3
ENDMDL
