MODEL 1
REMARK VINA RESULT:      -6.3      0.000      0.000
REMARK  Name = 
REMARK  18 active torsions:
REMARK  status: ('A' for Active; 'I' for Inactive)
REMARK    1  A    between atoms: C_1  and  C_2
REMARK    2  A    between atoms: C_2  and  C_3
REMARK    3  A    between atoms: C_3  and  C_4
REMARK    4  A    between atoms: C_4  and  C_5
REMARK    5  A    between atoms: C_5  and  C_6
REMARK    6  A    between atoms: C_7  and  C_8
REMARK    7  A    between atoms: C_8  and  C_9
REMARK    8  A    between atoms: C_10  and  C_11
REMARK    9  A    between atoms: C_11  and  C_12
REMARK   10  A    between atoms: C_13  and  C_14
REMARK   11  A    between atoms: C_14  and  C_15
REMARK   12  A    between atoms: C_16  and  C_17
REMARK   13  A    between atoms: C_17  and  C_18
REMARK   14  A    between atoms: C_18  and  C_19
REMARK   15  A    between atoms: C_19  and  C_20
REMARK   16  A    between atoms: N_22  and  C_23
REMARK   17  A    between atoms: C_23  and  C_24
REMARK   18  A    between atoms: C_24  and  C_25
REMARK                            x       y       z     vdW  Elec       q    Type
REMARK                         _______ _______ _______ _____ _____    ______ ____
ROOT
ATOM      1  C   UNL     1       2.862   4.222  20.967  0.00  0.00    +0.000 C 
ATOM      2  C   UNL     1       2.104   3.121  20.846  0.00  0.00    +0.000 C 
ENDROOT
BRANCH   1   3
ATOM      3  C   UNL     1       2.500   5.557  20.401  0.00  0.00    +0.000 C 
BRANCH   3   5
ATOM      4  C   UNL     1       3.365   6.858  18.452  0.00  0.00    +0.000 C 
ATOM      5  C   UNL     1       3.579   6.059  19.503  0.00  0.00    +0.000 C 
BRANCH   4   6
ATOM      6  C   UNL     1       2.028   7.404  18.027  0.00  0.00    +0.000 C 
BRANCH   6   8
ATOM      7  C   UNL     1       1.586   9.846  18.498  0.00  0.00    +0.000 C 
ATOM      8  C   UNL     1       2.077   8.874  17.709  0.00  0.00    +0.000 C 
BRANCH   7   9
ATOM      9  C   UNL     1       0.868   9.581  19.780  0.00  0.00    +0.000 C 
BRANCH   9  11
ATOM     10  C   UNL     1      -0.167  11.618  20.773  0.00  0.00    +0.000 C 
ATOM     11  C   UNL     1       0.863  10.766  20.685  0.00  0.00    +0.000 C 
BRANCH  10  12
ATOM     12  C   UNL     1      -1.380  11.476  19.902  0.00  0.00    +0.000 C 
BRANCH  12  13
ATOM     13  C   UNL     1      -1.364  12.439  18.731  0.00  0.00    +0.000 C 
BRANCH  13  14
ATOM     14  C   UNL     1      -1.796  11.706  17.466  0.00  0.00    +0.000 C 
BRANCH  14  16
ATOM     15  C   UNL     1      -2.964   9.655  16.636  0.00  0.00    +0.000 C 
ATOM     16  C   UNL     1      -2.231  10.288  17.802  0.00  0.00    +0.000 C 
ENDBRANCH  14  16
ENDBRANCH  13  14
ENDBRANCH  12  13
ENDBRANCH  10  12
ENDBRANCH   9  11
ENDBRANCH   7   9
ENDBRANCH   6   8
ENDBRANCH   4   6
ENDBRANCH   3   5
ENDBRANCH   1   3
BRANCH   2  17
ATOM     17  C   UNL     1       0.774   3.081  20.139  0.00  0.00    +0.000 C 
BRANCH  17  18
ATOM     18  C   UNL     1       0.868   2.471  18.741  0.00  0.00    +0.000 C 
BRANCH  18  19
ATOM     19  C   UNL     1       1.511   3.427  17.741  0.00  0.00    +0.000 C 
BRANCH  19  20
ATOM     20  C   UNL     1       2.931   3.027  17.415  0.00  0.00    +0.000 C 
ATOM     21  O   UNL     1       3.392   1.949  17.763  0.00  0.00    +0.000 OA
ATOM     22  N   UNL     1       3.661   3.978  16.735  0.00  0.00    +0.000 N 
ATOM     23  H   UNL     1       3.250   4.880  16.537  0.00  0.00    +0.000 HD
BRANCH  22  24
ATOM     24  C   UNL     1       5.050   3.716  16.401  0.00  0.00    +0.000 C 
BRANCH  24  25
ATOM     25  C   UNL     1       5.761   4.926  15.803  0.00  0.00    +0.000 C 
BRANCH  25  26
ATOM     26  C   UNL     1       6.570   5.651  16.839  0.00  0.00    +0.000 A 
ATOM     27  C   UNL     1       6.945   6.981  16.852  0.00  0.00    +0.000 A 
ATOM     28  C   UNL     1       7.694   7.322  18.015  0.00  0.00    +0.000 A 
ATOM     29  C   UNL     1       7.868   6.242  18.850  0.00  0.00    +0.000 A 
ATOM     30  S   UNL     1       7.136   4.826  18.231  0.00  0.00    +0.000 S 
ENDBRANCH  25  26
ENDBRANCH  24  25
ENDBRANCH  22  24
ENDBRANCH  19  20
ENDBRANCH  18  19
ENDBRANCH  17  18
ENDBRANCH   2  17
TORSDOF 17
ENDMDL
MODEL 2
REMARK VINA RESULT:      -6.3      1.849      2.752
REMARK  Name = 
REMARK  18 active torsions:
REMARK  status: ('A' for Active; 'I' for Inactive)
REMARK    1  A    between atoms: C_1  and  C_2
REMARK    2  A    between atoms: C_2  and  C_3
REMARK    3  A    between atoms: C_3  and  C_4
REMARK    4  A    between atoms: C_4  and  C_5
REMARK    5  A    between atoms: C_5  and  C_6
REMARK    6  A    between atoms: C_7  and  C_8
REMARK    7  A    between atoms: C_8  and  C_9
REMARK    8  A    between atoms: C_10  and  C_11
REMARK    9  A    between atoms: C_11  and  C_12
REMARK   10  A    between atoms: C_13  and  C_14
REMARK   11  A    between atoms: C_14  and  C_15
REMARK   12  A    between atoms: C_16  and  C_17
REMARK   13  A    between atoms: C_17  and  C_18
REMARK   14  A    between atoms: C_18  and  C_19
REMARK   15  A    between atoms: C_19  and  C_20
REMARK   16  A    between atoms: N_22  and  C_23
REMARK   17  A    between atoms: C_23  and  C_24
REMARK   18  A    between atoms: C_24  and  C_25
REMARK                            x       y       z     vdW  Elec       q    Type
REMARK                         _______ _______ _______ _____ _____    ______ ____
ROOT
ATOM      1  C   UNL     1       1.893   5.193  17.819  0.00  0.00    +0.000 C 
ATOM      2  C   UNL     1       1.397   3.980  18.112  0.00  0.00    +0.000 C 
ENDROOT
BRANCH   1   3
ATOM      3  C   UNL     1       2.479   6.126  18.828  0.00  0.00    +0.000 C 
BRANCH   3   5
ATOM      4  C   UNL     1       1.880   8.511  19.265  0.00  0.00    +0.000 C 
ATOM      5  C   UNL     1       2.260   7.544  18.423  0.00  0.00    +0.000 C 
BRANCH   4   6
ATOM      6  C   UNL     1       1.645   8.341  20.742  0.00  0.00    +0.000 C 
BRANCH   6   8
ATOM      7  C   UNL     1      -0.533   8.555  22.003  0.00  0.00    +0.000 C 
ATOM      8  C   UNL     1       0.224   7.963  21.063  0.00  0.00    +0.000 C 
BRANCH   7   9
ATOM      9  C   UNL     1      -0.032   9.639  22.900  0.00  0.00    +0.000 C 
BRANCH   9  11
ATOM     10  C   UNL     1      -1.361  11.678  22.368  0.00  0.00    +0.000 C 
ATOM     11  C   UNL     1      -1.077  10.662  23.194  0.00  0.00    +0.000 C 
BRANCH  10  12
ATOM     12  C   UNL     1      -0.591  11.900  21.101  0.00  0.00    +0.000 C 
BRANCH  12  13
ATOM     13  C   UNL     1      -1.447  11.705  19.865  0.00  0.00    +0.000 C 
BRANCH  13  14
ATOM     14  C   UNL     1      -0.567  11.257  18.704  0.00  0.00    +0.000 C 
BRANCH  14  16
ATOM     15  C   UNL     1      -2.530  10.457  17.376  0.00  0.00    +0.000 C 
ATOM     16  C   UNL     1      -1.198  10.072  17.990  0.00  0.00    +0.000 C 
ENDBRANCH  14  16
ENDBRANCH  13  14
ENDBRANCH  12  13
ENDBRANCH  10  12
ENDBRANCH   9  11
ENDBRANCH   7   9
ENDBRANCH   6   8
ENDBRANCH   4   6
ENDBRANCH   3   5
ENDBRANCH   1   3
BRANCH   2  17
ATOM     17  C   UNL     1       1.381   3.382  19.495  0.00  0.00    +0.000 C 
BRANCH  17  18
ATOM     18  C   UNL     1       1.979   1.976  19.536  0.00  0.00    +0.000 C 
BRANCH  18  19
ATOM     19  C   UNL     1       3.261   1.874  18.716  0.00  0.00    +0.000 C 
BRANCH  19  20
ATOM     20  C   UNL     1       4.427   2.539  19.411  0.00  0.00    +0.000 C 
ATOM     21  O   UNL     1       4.862   2.126  20.477  0.00  0.00    +0.000 OA
ATOM     22  N   UNL     1       4.928   3.651  18.769  0.00  0.00    +0.000 N 
ATOM     23  H   UNL     1       4.481   3.989  17.928  0.00  0.00    +0.000 HD
BRANCH  22  24
ATOM     24  C   UNL     1       6.025   4.392  19.365  0.00  0.00    +0.000 C 
BRANCH  24  25
ATOM     25  C   UNL     1       6.458   5.597  18.533  0.00  0.00    +0.000 C 
BRANCH  25  26
ATOM     26  C   UNL     1       6.361   5.308  17.063  0.00  0.00    +0.000 A 
ATOM     27  C   UNL     1       7.111   4.419  16.318  0.00  0.00    +0.000 A 
ATOM     28  C   UNL     1       6.721   4.396  14.948  0.00  0.00    +0.000 A 
ATOM     29  C   UNL     1       5.689   5.270  14.691  0.00  0.00    +0.000 A 
ATOM     30  S   UNL     1       5.198   6.114  16.095  0.00  0.00    +0.000 S 
ENDBRANCH  25  26
ENDBRANCH  24  25
ENDBRANCH  22  24
ENDBRANCH  19  20
ENDBRANCH  18  19
ENDBRANCH  17  18
ENDBRANCH   2  17
TORSDOF 17
ENDMDL
MODEL 3
REMARK VINA RESULT:      -5.9      1.501      2.530
REMARK  Name = 
REMARK  18 active torsions:
REMARK  status: ('A' for Active; 'I' for Inactive)
REMARK    1  A    between atoms: C_1  and  C_2
REMARK    2  A    between atoms: C_2  and  C_3
REMARK    3  A    between atoms: C_3  and  C_4
REMARK    4  A    between atoms: C_4  and  C_5
REMARK    5  A    between atoms: C_5  and  C_6
REMARK    6  A    between atoms: C_7  and  C_8
REMARK    7  A    between atoms: C_8  and  C_9
REMARK    8  A    between atoms: C_10  and  C_11
REMARK    9  A    between atoms: C_11  and  C_12
REMARK   10  A    between atoms: C_13  and  C_14
REMARK   11  A    between atoms: C_14  and  C_15
REMARK   12  A    between atoms: C_16  and  C_17
REMARK   13  A    between atoms: C_17  and  C_18
REMARK   14  A    between atoms: C_18  and  C_19
REMARK   15  A    between atoms: C_19  and  C_20
REMARK   16  A    between atoms: N_22  and  C_23
REMARK   17  A    between atoms: C_23  and  C_24
REMARK   18  A    between atoms: C_24  and  C_25
REMARK                            x       y       z     vdW  Elec       q    Type
REMARK                         _______ _______ _______ _____ _____    ______ ____
ROOT
ATOM      1  C   UNL     1       3.025   6.132  19.545  0.00  0.00    +0.000 C 
ATOM      2  C   UNL     1       2.468   5.272  20.413  0.00  0.00    +0.000 C 
ENDROOT
BRANCH   1   3
ATOM      3  C   UNL     1       2.374   6.588  18.280  0.00  0.00    +0.000 C 
BRANCH   3   5
ATOM      4  C   UNL     1       2.306   9.072  18.026  0.00  0.00    +0.000 C 
ATOM      5  C   UNL     1       2.929   7.902  17.846  0.00  0.00    +0.000 C 
BRANCH   4   6
ATOM      6  C   UNL     1       0.980   9.259  18.714  0.00  0.00    +0.000 C 
BRANCH   6   8
ATOM      7  C   UNL     1       0.761   9.946  21.135  0.00  0.00    +0.000 C 
ATOM      8  C   UNL     1       1.061   9.028  20.200  0.00  0.00    +0.000 C 
BRANCH   7   9
ATOM      9  C   UNL     1       0.361  11.348  20.813  0.00  0.00    +0.000 C 
BRANCH   9  11
ATOM     10  C   UNL     1      -1.571  12.577  19.829  0.00  0.00    +0.000 C 
ATOM     11  C   UNL     1      -1.021  11.432  20.256  0.00  0.00    +0.000 C 
BRANCH  10  12
ATOM     12  C   UNL     1      -0.850  13.886  19.946  0.00  0.00    +0.000 C 
BRANCH  12  13
ATOM     13  C   UNL     1      -0.038  14.209  18.706  0.00  0.00    +0.000 C 
BRANCH  13  14
ATOM     14  C   UNL     1       1.275  14.866  19.117  0.00  0.00    +0.000 C 
BRANCH  14  16
ATOM     15  C   UNL     1       2.260  12.769  18.174  0.00  0.00    +0.000 C 
ATOM     16  C   UNL     1       2.432  14.267  18.335  0.00  0.00    +0.000 C 
ENDBRANCH  14  16
ENDBRANCH  13  14
ENDBRANCH  12  13
ENDBRANCH  10  12
ENDBRANCH   9  11
ENDBRANCH   7   9
ENDBRANCH   6   8
ENDBRANCH   4   6
ENDBRANCH   3   5
ENDBRANCH   1   3
BRANCH   2  17
ATOM     17  C   UNL     1       1.101   4.662  20.242  0.00  0.00    +0.000 C 
BRANCH  17  18
ATOM     18  C   UNL     1       1.140   3.135  20.185  0.00  0.00    +0.000 C 
BRANCH  18  19
ATOM     19  C   UNL     1       1.297   2.618  18.759  0.00  0.00    +0.000 C 
BRANCH  19  20
ATOM     20  C   UNL     1       2.750   2.515  18.356  0.00  0.00    +0.000 C 
ATOM     21  O   UNL     1       3.520   1.749  18.916  0.00  0.00    +0.000 OA
ATOM     22  N   UNL     1       3.134   3.367  17.343  0.00  0.00    +0.000 N 
ATOM     23  H   UNL     1       2.470   4.030  16.966  0.00  0.00    +0.000 HD
BRANCH  22  24
ATOM     24  C   UNL     1       4.516   3.380  16.899  0.00  0.00    +0.000 C 
BRANCH  24  25
ATOM     25  C   UNL     1       4.884   4.640  16.120  0.00  0.00    +0.000 C 
BRANCH  25  26
ATOM     26  C   UNL     1       5.899   5.462  16.860  0.00  0.00    +0.000 A 
ATOM     27  C   UNL     1       6.174   6.809  16.718  0.00  0.00    +0.000 A 
ATOM     28  C   UNL     1       7.192   7.251  17.610  0.00  0.00    +0.000 A 
ATOM     29  C   UNL     1       7.663   6.229  18.402  0.00  0.00    +0.000 A 
ATOM     30  S   UNL     1       6.884   4.745  18.066  0.00  0.00    +0.000 S 
ENDBRANCH  25  26
ENDBRANCH  24  25
ENDBRANCH  22  24
ENDBRANCH  19  20
ENDBRANCH  18  19
ENDBRANCH  17  18
ENDBRANCH   2  17
TORSDOF 17
ENDMDL
MODEL 4
REMARK VINA RESULT:      -5.8      2.371      4.958
REMARK  Name = 
REMARK  18 active torsions:
REMARK  status: ('A' for Active; 'I' for Inactive)
REMARK    1  A    between atoms: C_1  and  C_2
REMARK    2  A    between atoms: C_2  and  C_3
REMARK    3  A    between atoms: C_3  and  C_4
REMARK    4  A    between atoms: C_4  and  C_5
REMARK    5  A    between atoms: C_5  and  C_6
REMARK    6  A    between atoms: C_7  and  C_8
REMARK    7  A    between atoms: C_8  and  C_9
REMARK    8  A    between atoms: C_10  and  C_11
REMARK    9  A    between atoms: C_11  and  C_12
REMARK   10  A    between atoms: C_13  and  C_14
REMARK   11  A    between atoms: C_14  and  C_15
REMARK   12  A    between atoms: C_16  and  C_17
REMARK   13  A    between atoms: C_17  and  C_18
REMARK   14  A    between atoms: C_18  and  C_19
REMARK   15  A    between atoms: C_19  and  C_20
REMARK   16  A    between atoms: N_22  and  C_23
REMARK   17  A    between atoms: C_23  and  C_24
REMARK   18  A    between atoms: C_24  and  C_25
REMARK                            x       y       z     vdW  Elec       q    Type
REMARK                         _______ _______ _______ _____ _____    ______ ____
ROOT
ATOM      1  C   UNL     1       0.987   8.305  21.481  0.00  0.00    +0.000 C 
ATOM      2  C   UNL     1       1.600   7.897  20.358  0.00  0.00    +0.000 C 
ENDROOT
BRANCH   1   3
ATOM      3  C   UNL     1       0.531   9.706  21.728  0.00  0.00    +0.000 C 
BRANCH   3   5
ATOM      4  C   UNL     1      -1.217  10.748  23.175  0.00  0.00    +0.000 C 
ATOM      5  C   UNL     1      -0.332   9.773  22.941  0.00  0.00    +0.000 C 
BRANCH   4   6
ATOM      6  C   UNL     1      -1.508  11.903  22.256  0.00  0.00    +0.000 C 
BRANCH   6   8
ATOM      7  C   UNL     1      -0.479  14.177  21.865  0.00  0.00    +0.000 C 
ATOM      8  C   UNL     1      -0.829  13.175  22.690  0.00  0.00    +0.000 C 
BRANCH   7   9
ATOM      9  C   UNL     1      -0.669  14.128  20.384  0.00  0.00    +0.000 C 
BRANCH   9  11
ATOM     10  C   UNL     1       0.293  12.544  18.719  0.00  0.00    +0.000 C 
ATOM     11  C   UNL     1       0.465  13.455  19.687  0.00  0.00    +0.000 C 
BRANCH  10  12
ATOM     12  C   UNL     1      -1.073  12.079  18.311  0.00  0.00    +0.000 C 
BRANCH  12  13
ATOM     13  C   UNL     1      -1.328  10.633  18.692  0.00  0.00    +0.000 C 
BRANCH  13  14
ATOM     14  C   UNL     1      -1.709   9.841  17.447  0.00  0.00    +0.000 C 
BRANCH  14  16
ATOM     15  C   UNL     1      -2.829  10.440  15.292  0.00  0.00    +0.000 C 
ATOM     16  C   UNL     1      -2.951  10.436  16.803  0.00  0.00    +0.000 C 
ENDBRANCH  14  16
ENDBRANCH  13  14
ENDBRANCH  12  13
ENDBRANCH  10  12
ENDBRANCH   9  11
ENDBRANCH   7   9
ENDBRANCH   6   8
ENDBRANCH   4   6
ENDBRANCH   3   5
ENDBRANCH   1   3
BRANCH   2  17
ATOM     17  C   UNL     1       1.897   8.792  19.182  0.00  0.00    +0.000 C 
BRANCH  17  18
ATOM     18  C   UNL     1       2.668   8.074  18.075  0.00  0.00    +0.000 C 
BRANCH  18  19
ATOM     19  C   UNL     1       2.129   6.670  17.820  0.00  0.00    +0.000 C 
BRANCH  19  20
ATOM     20  C   UNL     1       3.205   5.620  17.969  0.00  0.00    +0.000 C 
ATOM     21  O   UNL     1       4.209   5.818  18.639  0.00  0.00    +0.000 OA
ATOM     22  N   UNL     1       2.979   4.453  17.272  0.00  0.00    +0.000 N 
ATOM     23  H   UNL     1       2.166   4.373  16.677  0.00  0.00    +0.000 HD
BRANCH  22  24
ATOM     24  C   UNL     1       3.964   3.387  17.313  0.00  0.00    +0.000 C 
BRANCH  24  25
ATOM     25  C   UNL     1       3.440   2.109  17.962  0.00  0.00    +0.000 C 
BRANCH  25  26
ATOM     26  C   UNL     1       2.769   2.399  19.273  0.00  0.00    +0.000 A 
ATOM     27  C   UNL     1       1.416   2.442  19.547  0.00  0.00    +0.000 A 
ATOM     28  C   UNL     1       1.149   2.728  20.917  0.00  0.00    +0.000 A 
ATOM     29  C   UNL     1       2.306   2.898  21.643  0.00  0.00    +0.000 A 
ATOM     30  S   UNL     1       3.703   2.717  20.675  0.00  0.00    +0.000 S 
ENDBRANCH  25  26
ENDBRANCH  24  25
ENDBRANCH  22  24
ENDBRANCH  19  20
ENDBRANCH  18  19
ENDBRANCH  17  18
ENDBRANCH   2  17
TORSDOF 17
ENDMDL
MODEL 5
REMARK VINA RESULT:      -5.8      1.842      2.931
REMARK  Name = 
REMARK  18 active torsions:
REMARK  status: ('A' for Active; 'I' for Inactive)
REMARK    1  A    between atoms: C_1  and  C_2
REMARK    2  A    between atoms: C_2  and  C_3
REMARK    3  A    between atoms: C_3  and  C_4
REMARK    4  A    between atoms: C_4  and  C_5
REMARK    5  A    between atoms: C_5  and  C_6
REMARK    6  A    between atoms: C_7  and  C_8
REMARK    7  A    between atoms: C_8  and  C_9
REMARK    8  A    between atoms: C_10  and  C_11
REMARK    9  A    between atoms: C_11  and  C_12
REMARK   10  A    between atoms: C_13  and  C_14
REMARK   11  A    between atoms: C_14  and  C_15
REMARK   12  A    between atoms: C_16  and  C_17
REMARK   13  A    between atoms: C_17  and  C_18
REMARK   14  A    between atoms: C_18  and  C_19
REMARK   15  A    between atoms: C_19  and  C_20
REMARK   16  A    between atoms: N_22  and  C_23
REMARK   17  A    between atoms: C_23  and  C_24
REMARK   18  A    between atoms: C_24  and  C_25
REMARK                            x       y       z     vdW  Elec       q    Type
REMARK                         _______ _______ _______ _____ _____    ______ ____
ROOT
ATOM      1  C   UNL     1       2.132   5.788  18.161  0.00  0.00    +0.000 C 
ATOM      2  C   UNL     1       1.659   4.662  17.602  0.00  0.00    +0.000 C 
ENDROOT
BRANCH   1   3
ATOM      3  C   UNL     1       2.713   5.863  19.535  0.00  0.00    +0.000 C 
BRANCH   3   5
ATOM      4  C   UNL     1       1.066   6.727  21.204  0.00  0.00    +0.000 C 
ATOM      5  C   UNL     1       1.648   5.705  20.566  0.00  0.00    +0.000 C 
BRANCH   4   6
ATOM      6  C   UNL     1       1.361   8.184  20.968  0.00  0.00    +0.000 C 
BRANCH   6   8
ATOM      7  C   UNL     1       0.822   9.515  23.047  0.00  0.00    +0.000 C 
ATOM      8  C   UNL     1       1.712   8.916  22.236  0.00  0.00    +0.000 C 
BRANCH   7   9
ATOM      9  C   UNL     1      -0.642   9.580  22.756  0.00  0.00    +0.000 C 
BRANCH   9  11
ATOM     10  C   UNL     1      -1.014  11.960  22.121  0.00  0.00    +0.000 C 
ATOM     11  C   UNL     1      -1.204  10.944  22.973  0.00  0.00    +0.000 C 
BRANCH  10  12
ATOM     12  C   UNL     1      -0.152  11.813  20.903  0.00  0.00    +0.000 C 
BRANCH  12  13
ATOM     13  C   UNL     1      -0.968  11.739  19.626  0.00  0.00    +0.000 C 
BRANCH  13  14
ATOM     14  C   UNL     1      -1.132  10.280  19.214  0.00  0.00    +0.000 C 
BRANCH  14  16
ATOM     15  C   UNL     1       0.931   9.628  17.959  0.00  0.00    +0.000 C 
ATOM     16  C   UNL     1      -0.521  10.049  17.841  0.00  0.00    +0.000 C 
ENDBRANCH  14  16
ENDBRANCH  13  14
ENDBRANCH  12  13
ENDBRANCH  10  12
ENDBRANCH   9  11
ENDBRANCH   7   9
ENDBRANCH   6   8
ENDBRANCH   4   6
ENDBRANCH   3   5
ENDBRANCH   1   3
BRANCH   2  17
ATOM     17  C   UNL     1       1.664   3.315  18.276  0.00  0.00    +0.000 C 
BRANCH  17  18
ATOM     18  C   UNL     1       2.578   2.310  17.577  0.00  0.00    +0.000 C 
BRANCH  18  19
ATOM     19  C   UNL     1       3.501   1.595  18.559  0.00  0.00    +0.000 C 
BRANCH  19  20
ATOM     20  C   UNL     1       4.276   2.571  19.414  0.00  0.00    +0.000 C 
ATOM     21  O   UNL     1       4.101   2.649  20.622  0.00  0.00    +0.000 OA
ATOM     22  N   UNL     1       5.156   3.375  18.724  0.00  0.00    +0.000 N 
ATOM     23  H   UNL     1       5.206   3.316  17.716  0.00  0.00    +0.000 HD
BRANCH  22  24
ATOM     24  C   UNL     1       5.928   4.377  19.438  0.00  0.00    +0.000 C 
BRANCH  24  25
ATOM     25  C   UNL     1       6.922   5.117  18.548  0.00  0.00    +0.000 C 
BRANCH  25  26
ATOM     26  C   UNL     1       6.333   5.409  17.198  0.00  0.00    +0.000 A 
ATOM     27  C   UNL     1       5.465   6.425  16.848  0.00  0.00    +0.000 A 
ATOM     28  C   UNL     1       5.135   6.402  15.463  0.00  0.00    +0.000 A 
ATOM     29  C   UNL     1       5.758   5.368  14.801  0.00  0.00    +0.000 A 
ATOM     30  S   UNL     1       6.731   4.430  15.848  0.00  0.00    +0.000 S 
ENDBRANCH  25  26
ENDBRANCH  24  25
ENDBRANCH  22  24
ENDBRANCH  19  20
ENDBRANCH  18  19
ENDBRANCH  17  18
ENDBRANCH   2  17
TORSDOF 17
ENDMDL
MODEL 6
REMARK VINA RESULT:      -5.7      3.344      8.356
REMARK  Name = 
REMARK  18 active torsions:
REMARK  status: ('A' for Active; 'I' for Inactive)
REMARK    1  A    between atoms: C_1  and  C_2
REMARK    2  A    between atoms: C_2  and  C_3
REMARK    3  A    between atoms: C_3  and  C_4
REMARK    4  A    between atoms: C_4  and  C_5
REMARK    5  A    between atoms: C_5  and  C_6
REMARK    6  A    between atoms: C_7  and  C_8
REMARK    7  A    between atoms: C_8  and  C_9
REMARK    8  A    between atoms: C_10  and  C_11
REMARK    9  A    between atoms: C_11  and  C_12
REMARK   10  A    between atoms: C_13  and  C_14
REMARK   11  A    between atoms: C_14  and  C_15
REMARK   12  A    between atoms: C_16  and  C_17
REMARK   13  A    between atoms: C_17  and  C_18
REMARK   14  A    between atoms: C_18  and  C_19
REMARK   15  A    between atoms: C_19  and  C_20
REMARK   16  A    between atoms: N_22  and  C_23
REMARK   17  A    between atoms: C_23  and  C_24
REMARK   18  A    between atoms: C_24  and  C_25
REMARK                            x       y       z     vdW  Elec       q    Type
REMARK                         _______ _______ _______ _____ _____    ______ ____
ROOT
ATOM      1  C   UNL     1       2.402   2.263  17.870  0.00  0.00    +0.000 C 
ATOM      2  C   UNL     1       1.353   3.053  18.150  0.00  0.00    +0.000 C 
ENDROOT
BRANCH   1   3
ATOM      3  C   UNL     1       3.818   2.736  17.812  0.00  0.00    +0.000 C 
BRANCH   3   5
ATOM      4  C   UNL     1       5.060   3.821  19.688  0.00  0.00    +0.000 C 
ATOM      5  C   UNL     1       4.420   2.764  19.176  0.00  0.00    +0.000 C 
BRANCH   4   6
ATOM      6  C   UNL     1       5.247   5.147  19.001  0.00  0.00    +0.000 C 
BRANCH   6   8
ATOM      7  C   UNL     1       7.532   5.229  17.927  0.00  0.00    +0.000 C 
ATOM      8  C   UNL     1       6.692   5.560  18.923  0.00  0.00    +0.000 C 
BRANCH   7   9
ATOM      9  C   UNL     1       7.146   4.347  16.785  0.00  0.00    +0.000 C 
BRANCH   9  11
ATOM     10  C   UNL     1       6.795   5.011  14.409  0.00  0.00    +0.000 C 
ATOM     11  C   UNL     1       7.603   4.886  15.471  0.00  0.00    +0.000 C 
BRANCH  10  12
ATOM     12  C   UNL     1       5.369   4.548  14.447  0.00  0.00    +0.000 C 
BRANCH  12  13
ATOM     13  C   UNL     1       4.960   3.840  13.169  0.00  0.00    +0.000 C 
BRANCH  13  14
ATOM     14  C   UNL     1       6.171   3.135  12.571  0.00  0.00    +0.000 C 
BRANCH  14  16
ATOM     15  C   UNL     1       6.922   1.415  10.916  0.00  0.00    +0.000 C 
ATOM     16  C   UNL     1       5.728   2.121  11.528  0.00  0.00    +0.000 C 
ENDBRANCH  14  16
ENDBRANCH  13  14
ENDBRANCH  12  13
ENDBRANCH  10  12
ENDBRANCH   9  11
ENDBRANCH   7   9
ENDBRANCH   6   8
ENDBRANCH   4   6
ENDBRANCH   3   5
ENDBRANCH   1   3
BRANCH   2  17
ATOM     17  C   UNL     1       1.459   4.523  18.463  0.00  0.00    +0.000 C 
BRANCH  17  18
ATOM     18  C   UNL     1       1.065   4.849  19.903  0.00  0.00    +0.000 C 
BRANCH  18  19
ATOM     19  C   UNL     1       2.054   5.803  20.565  0.00  0.00    +0.000 C 
BRANCH  19  20
ATOM     20  C   UNL     1       1.630   7.246  20.412  0.00  0.00    +0.000 C 
ATOM     21  O   UNL     1       0.895   7.791  21.223  0.00  0.00    +0.000 OA
ATOM     22  N   UNL     1       2.107   7.875  19.282  0.00  0.00    +0.000 N 
ATOM     23  H   UNL     1       2.652   7.353  18.609  0.00  0.00    +0.000 HD
BRANCH  22  24
ATOM     24  C   UNL     1       1.734   9.252  19.013  0.00  0.00    +0.000 C 
BRANCH  24  25
ATOM     25  C   UNL     1       0.708   9.388  17.892  0.00  0.00    +0.000 C 
BRANCH  25  26
ATOM     26  C   UNL     1      -0.458  10.232  18.319  0.00  0.00    +0.000 A 
ATOM     27  C   UNL     1      -0.543  11.083  19.404  0.00  0.00    +0.000 A 
ATOM     28  C   UNL     1      -1.805  11.738  19.482  0.00  0.00    +0.000 A 
ATOM     29  C   UNL     1      -2.644  11.364  18.457  0.00  0.00    +0.000 A 
ATOM     30  S   UNL     1      -1.912  10.227  17.411  0.00  0.00    +0.000 S 
ENDBRANCH  25  26
ENDBRANCH  24  25
ENDBRANCH  22  24
ENDBRANCH  19  20
ENDBRANCH  18  19
ENDBRANCH  17  18
ENDBRANCH   2  17
TORSDOF 17
ENDMDL
MODEL 7
REMARK VINA RESULT:      -5.7      4.408      9.943
REMARK  Name = 
REMARK  18 active torsions:
REMARK  status: ('A' for Active; 'I' for Inactive)
REMARK    1  A    between atoms: C_1  and  C_2
REMARK    2  A    between atoms: C_2  and  C_3
REMARK    3  A    between atoms: C_3  and  C_4
REMARK    4  A    between atoms: C_4  and  C_5
REMARK    5  A    between atoms: C_5  and  C_6
REMARK    6  A    between atoms: C_7  and  C_8
REMARK    7  A    between atoms: C_8  and  C_9
REMARK    8  A    between atoms: C_10  and  C_11
REMARK    9  A    between atoms: C_11  and  C_12
REMARK   10  A    between atoms: C_13  and  C_14
REMARK   11  A    between atoms: C_14  and  C_15
REMARK   12  A    between atoms: C_16  and  C_17
REMARK   13  A    between atoms: C_17  and  C_18
REMARK   14  A    between atoms: C_18  and  C_19
REMARK   15  A    between atoms: C_19  and  C_20
REMARK   16  A    between atoms: N_22  and  C_23
REMARK   17  A    between atoms: C_23  and  C_24
REMARK   18  A    between atoms: C_24  and  C_25
REMARK                            x       y       z     vdW  Elec       q    Type
REMARK                         _______ _______ _______ _____ _____    ______ ____
ROOT
ATOM      1  C   UNL     1       2.074  10.036  17.894  0.00  0.00    +0.000 C 
ATOM      2  C   UNL     1       2.280  11.341  18.135  0.00  0.00    +0.000 C 
ENDROOT
BRANCH   1   3
ATOM      3  C   UNL     1       1.050   9.204  18.596  0.00  0.00    +0.000 C 
BRANCH   3   5
ATOM      4  C   UNL     1       2.320   7.274  19.544  0.00  0.00    +0.000 C 
ATOM      5  C   UNL     1       1.672   8.432  19.709  0.00  0.00    +0.000 C 
BRANCH   4   6
ATOM      6  C   UNL     1       2.555   6.584  18.227  0.00  0.00    +0.000 C 
BRANCH   6   8
ATOM      7  C   UNL     1       4.880   6.448  17.249  0.00  0.00    +0.000 C 
ATOM      8  C   UNL     1       3.748   7.132  17.491  0.00  0.00    +0.000 C 
BRANCH   7   9
ATOM      9  C   UNL     1       5.122   5.058  17.739  0.00  0.00    +0.000 C 
BRANCH   9  11
ATOM     10  C   UNL     1       3.747   3.030  17.288  0.00  0.00    +0.000 C 
ATOM     11  C   UNL     1       4.523   4.027  16.842  0.00  0.00    +0.000 C 
BRANCH  10  12
ATOM     12  C   UNL     1       3.477   2.837  18.750  0.00  0.00    +0.000 C 
BRANCH  12  13
ATOM     13  C   UNL     1       2.145   2.160  19.005  0.00  0.00    +0.000 C 
BRANCH  13  14
ATOM     14  C   UNL     1       1.063   3.220  19.183  0.00  0.00    +0.000 C 
BRANCH  14  16
ATOM     15  C   UNL     1       1.429   2.742  21.611  0.00  0.00    +0.000 C 
ATOM     16  C   UNL     1       1.133   3.814  20.580  0.00  0.00    +0.000 C 
ENDBRANCH  14  16
ENDBRANCH  13  14
ENDBRANCH  12  13
ENDBRANCH  10  12
ENDBRANCH   9  11
ENDBRANCH   7   9
ENDBRANCH   6   8
ENDBRANCH   4   6
ENDBRANCH   3   5
ENDBRANCH   1   3
BRANCH   2  17
ATOM     17  C   UNL     1       1.495  12.152  19.133  0.00  0.00    +0.000 C 
BRANCH  17  18
ATOM     18  C   UNL     1       0.658  13.248  18.474  0.00  0.00    +0.000 C 
BRANCH  18  19
ATOM     19  C   UNL     1      -0.720  13.380  19.114  0.00  0.00    +0.000 C 
BRANCH  19  20
ATOM     20  C   UNL     1      -1.565  12.149  18.885  0.00  0.00    +0.000 C 
ATOM     21  O   UNL     1      -1.571  11.216  19.676  0.00  0.00    +0.000 OA
ATOM     22  N   UNL     1      -2.291  12.153  17.714  0.00  0.00    +0.000 N 
ATOM     23  H   UNL     1      -2.191  12.920  17.063  0.00  0.00    +0.000 HD
BRANCH  22  24
ATOM     24  C   UNL     1      -3.112  11.004  17.372  0.00  0.00    +0.000 C 
BRANCH  24  25
ATOM     25  C   UNL     1      -4.289  11.356  16.467  0.00  0.00    +0.000 C 
BRANCH  25  26
ATOM     26  C   UNL     1      -5.484  11.785  17.268  0.00  0.00    +0.000 A 
ATOM     27  C   UNL     1      -6.304  12.877  17.058  0.00  0.00    +0.000 A 
ATOM     28  C   UNL     1      -7.358  12.955  18.014  0.00  0.00    +0.000 A 
ATOM     29  C   UNL     1      -7.306  11.923  18.924  0.00  0.00    +0.000 A 
ATOM     30  S   UNL     1      -5.991  10.871  18.627  0.00  0.00    +0.000 S 
ENDBRANCH  25  26
ENDBRANCH  24  25
ENDBRANCH  22  24
ENDBRANCH  19  20
ENDBRANCH  18  19
ENDBRANCH  17  18
ENDBRANCH   2  17
TORSDOF 17
ENDMDL
MODEL 8
REMARK VINA RESULT:      -5.7      4.644      7.487
REMARK  Name = 
REMARK  18 active torsions:
REMARK  status: ('A' for Active; 'I' for Inactive)
REMARK    1  A    between atoms: C_1  and  C_2
REMARK    2  A    between atoms: C_2  and  C_3
REMARK    3  A    between atoms: C_3  and  C_4
REMARK    4  A    between atoms: C_4  and  C_5
REMARK    5  A    between atoms: C_5  and  C_6
REMARK    6  A    between atoms: C_7  and  C_8
REMARK    7  A    between atoms: C_8  and  C_9
REMARK    8  A    between atoms: C_10  and  C_11
REMARK    9  A    between atoms: C_11  and  C_12
REMARK   10  A    between atoms: C_13  and  C_14
REMARK   11  A    between atoms: C_14  and  C_15
REMARK   12  A    between atoms: C_16  and  C_17
REMARK   13  A    between atoms: C_17  and  C_18
REMARK   14  A    between atoms: C_18  and  C_19
REMARK   15  A    between atoms: C_19  and  C_20
REMARK   16  A    between atoms: N_22  and  C_23
REMARK   17  A    between atoms: C_23  and  C_24
REMARK   18  A    between atoms: C_24  and  C_25
REMARK                            x       y       z     vdW  Elec       q    Type
REMARK                         _______ _______ _______ _____ _____    ______ ____
ROOT
ATOM      1  C   UNL     1       8.746  10.502  18.261  0.00  0.00    +0.000 C 
ATOM      2  C   UNL     1       8.127   9.425  17.751  0.00  0.00    +0.000 C 
ENDROOT
BRANCH   1   3
ATOM      3  C   UNL     1       9.568  10.486  19.508  0.00  0.00    +0.000 C 
BRANCH   3   5
ATOM      4  C   UNL     1      11.175  12.301  20.111  0.00  0.00    +0.000 C 
ATOM      5  C   UNL     1      10.817  11.278  19.326  0.00  0.00    +0.000 C 
BRANCH   4   6
ATOM      6  C   UNL     1      10.407  12.792  21.308  0.00  0.00    +0.000 C 
BRANCH   6   8
ATOM      7  C   UNL     1       9.026  14.796  20.630  0.00  0.00    +0.000 C 
ATOM      8  C   UNL     1      10.102  14.265  21.236  0.00  0.00    +0.000 C 
BRANCH   7   9
ATOM      9  C   UNL     1       8.014  13.984  19.891  0.00  0.00    +0.000 C 
BRANCH   9  11
ATOM     10  C   UNL     1       7.242  14.808  17.670  0.00  0.00    +0.000 C 
ATOM     11  C   UNL     1       8.133  14.136  18.412  0.00  0.00    +0.000 C 
BRANCH  10  12
ATOM     12  C   UNL     1       6.008  15.406  18.275  0.00  0.00    +0.000 C 
BRANCH  12  13
ATOM     13  C   UNL     1       4.772  14.568  18.008  0.00  0.00    +0.000 C 
BRANCH  13  14
ATOM     14  C   UNL     1       3.676  14.954  18.995  0.00  0.00    +0.000 C 
BRANCH  14  16
ATOM     15  C   UNL     1       2.409  12.973  18.141  0.00  0.00    +0.000 C 
ATOM     16  C   UNL     1       2.856  13.731  19.375  0.00  0.00    +0.000 C 
ENDBRANCH  14  16
ENDBRANCH  13  14
ENDBRANCH  12  13
ENDBRANCH  10  12
ENDBRANCH   9  11
ENDBRANCH   7   9
ENDBRANCH   6   8
ENDBRANCH   4   6
ENDBRANCH   3   5
ENDBRANCH   1   3
BRANCH   2  17
ATOM     17  C   UNL     1       8.191   8.046  18.354  0.00  0.00    +0.000 C 
BRANCH  17  18
ATOM     18  C   UNL     1       7.572   6.978  17.452  0.00  0.00    +0.000 C 
BRANCH  18  19
ATOM     19  C   UNL     1       7.409   5.644  18.173  0.00  0.00    +0.000 C 
BRANCH  19  20
ATOM     20  C   UNL     1       6.544   4.685  17.389  0.00  0.00    +0.000 C 
ATOM     21  O   UNL     1       6.883   4.260  16.294  0.00  0.00    +0.000 OA
ATOM     22  N   UNL     1       5.346   4.360  17.988  0.00  0.00    +0.000 N 
ATOM     23  H   UNL     1       5.086   4.798  18.862  0.00  0.00    +0.000 HD
BRANCH  22  24
ATOM     24  C   UNL     1       4.417   3.475  17.308  0.00  0.00    +0.000 C 
BRANCH  24  25
ATOM     25  C   UNL     1       2.958   3.882  17.488  0.00  0.00    +0.000 C 
BRANCH  25  26
ATOM     26  C   UNL     1       2.500   3.663  18.901  0.00  0.00    +0.000 A 
ATOM     27  C   UNL     1       2.074   2.487  19.487  0.00  0.00    +0.000 A 
ATOM     28  C   UNL     1       1.737   2.658  20.861  0.00  0.00    +0.000 A 
ATOM     29  C   UNL     1       1.913   3.958  21.277  0.00  0.00    +0.000 A 
ATOM     30  S   UNL     1       2.478   4.965  20.017  0.00  0.00    +0.000 S 
ENDBRANCH  25  26
ENDBRANCH  24  25
ENDBRANCH  22  24
ENDBRANCH  19  20
ENDBRANCH  18  19
ENDBRANCH  17  18
ENDBRANCH   2  17
TORSDOF 17
ENDMDL
MODEL 9
REMARK VINA RESULT:      -5.6      3.232      8.021
REMARK  Name = 
REMARK  18 active torsions:
REMARK  status: ('A' for Active; 'I' for Inactive)
REMARK    1  A    between atoms: C_1  and  C_2
REMARK    2  A    between atoms: C_2  and  C_3
REMARK    3  A    between atoms: C_3  and  C_4
REMARK    4  A    between atoms: C_4  and  C_5
REMARK    5  A    between atoms: C_5  and  C_6
REMARK    6  A    between atoms: C_7  and  C_8
REMARK    7  A    between atoms: C_8  and  C_9
REMARK    8  A    between atoms: C_10  and  C_11
REMARK    9  A    between atoms: C_11  and  C_12
REMARK   10  A    between atoms: C_13  and  C_14
REMARK   11  A    between atoms: C_14  and  C_15
REMARK   12  A    between atoms: C_16  and  C_17
REMARK   13  A    between atoms: C_17  and  C_18
REMARK   14  A    between atoms: C_18  and  C_19
REMARK   15  A    between atoms: C_19  and  C_20
REMARK   16  A    between atoms: N_22  and  C_23
REMARK   17  A    between atoms: C_23  and  C_24
REMARK   18  A    between atoms: C_24  and  C_25
REMARK                            x       y       z     vdW  Elec       q    Type
REMARK                         _______ _______ _______ _____ _____    ______ ____
ROOT
ATOM      1  C   UNL     1       2.237   4.269  21.469  0.00  0.00    +0.000 C 
ATOM      2  C   UNL     1       1.897   5.489  21.023  0.00  0.00    +0.000 C 
ENDROOT
BRANCH   1   3
ATOM      3  C   UNL     1       2.797   3.186  20.605  0.00  0.00    +0.000 C 
BRANCH   3   5
ATOM      4  C   UNL     1       1.681   1.785  18.864  0.00  0.00    +0.000 C 
ATOM      5  C   UNL     1       1.709   2.303  20.096  0.00  0.00    +0.000 C 
BRANCH   4   6
ATOM      6  C   UNL     1       2.741   1.976  17.812  0.00  0.00    +0.000 C 
BRANCH   6   8
ATOM      7  C   UNL     1       3.494   4.226  16.946  0.00  0.00    +0.000 C 
ATOM      8  C   UNL     1       2.567   3.256  17.040  0.00  0.00    +0.000 C 
BRANCH   7   9
ATOM      9  C   UNL     1       4.808   4.180  17.655  0.00  0.00    +0.000 C 
BRANCH   9  11
ATOM     10  C   UNL     1       5.731   6.309  16.748  0.00  0.00    +0.000 C 
ATOM     11  C   UNL     1       5.426   5.530  17.795  0.00  0.00    +0.000 C 
BRANCH  10  12
ATOM     12  C   UNL     1       5.531   5.843  15.337  0.00  0.00    +0.000 C 
BRANCH  12  13
ATOM     13  C   UNL     1       6.699   5.018  14.833  0.00  0.00    +0.000 C 
BRANCH  13  14
ATOM     14  C   UNL     1       6.175   3.741  14.186  0.00  0.00    +0.000 C 
BRANCH  14  16
ATOM     15  C   UNL     1       5.205   3.119  11.965  0.00  0.00    +0.000 C 
ATOM     16  C   UNL     1       6.355   3.803  12.677  0.00  0.00    +0.000 C 
ENDBRANCH  14  16
ENDBRANCH  13  14
ENDBRANCH  12  13
ENDBRANCH  10  12
ENDBRANCH   9  11
ENDBRANCH   7   9
ENDBRANCH   6   8
ENDBRANCH   4   6
ENDBRANCH   3   5
ENDBRANCH   1   3
BRANCH   2  17
ATOM     17  C   UNL     1       2.049   5.943  19.595  0.00  0.00    +0.000 C 
BRANCH  17  18
ATOM     18  C   UNL     1       2.185   7.460  19.469  0.00  0.00    +0.000 C 
BRANCH  18  19
ATOM     19  C   UNL     1       1.810   8.178  20.761  0.00  0.00    +0.000 C 
BRANCH  19  20
ATOM     20  C   UNL     1       0.492   8.906  20.637  0.00  0.00    +0.000 C 
ATOM     21  O   UNL     1      -0.413   8.742  21.443  0.00  0.00    +0.000 OA
ATOM     22  N   UNL     1       0.385   9.730  19.538  0.00  0.00    +0.000 N 
ATOM     23  H   UNL     1       1.139   9.771  18.865  0.00  0.00    +0.000 HD
BRANCH  22  24
ATOM     24  C   UNL     1      -0.851  10.453  19.297  0.00  0.00    +0.000 C 
BRANCH  24  25
ATOM     25  C   UNL     1      -0.630  11.837  18.694  0.00  0.00    +0.000 C 
BRANCH  25  26
ATOM     26  C   UNL     1       0.480  12.566  19.395  0.00  0.00    +0.000 A 
ATOM     27  C   UNL     1       0.481  13.095  20.671  0.00  0.00    +0.000 A 
ATOM     28  C   UNL     1       1.726  13.700  21.006  0.00  0.00    +0.000 A 
ATOM     29  C   UNL     1       2.634  13.616  19.975  0.00  0.00    +0.000 A 
ATOM     30  S   UNL     1       1.984  12.816  18.611  0.00  0.00    +0.000 S 
ENDBRANCH  25  26
ENDBRANCH  24  25
ENDBRANCH  22  24
ENDBRANCH  19  20
ENDBRANCH  18  19
ENDBRANCH  17  18
ENDBRANCH   2  17
TORSDOF 17
ENDMDL
