MODEL 1
REMARK VINA RESULT:      -8.7      0.000      0.000
REMARK  Name = 
REMARK  10 active torsions:
REMARK  status: ('A' for Active; 'I' for Inactive)
REMARK    1  A    between atoms: C_1  and  O_2
REMARK    2  A    between atoms: O_2  and  C_3
REMARK    3  A    between atoms: C_8  and  O_9
REMARK    4  A    between atoms: O_9  and  C_10
REMARK    5  A    between atoms: C_13  and  C_14
REMARK    6  A    between atoms: C_14  and  C_15
REMARK    7  A    between atoms: N_18  and  C_19
REMARK    8  A    between atoms: C_19  and  C_20
REMARK    9  A    between atoms: C_27  and  C_28
REMARK   10  A    between atoms: C_28  and  C_29
REMARK                            x       y       z     vdW  Elec       q    Type
REMARK                         _______ _______ _______ _____ _____    ______ ____
ROOT
ATOM      1  C   UNL     1       2.722   6.212  18.731  0.00  0.00    +0.000 C 
ENDROOT
BRANCH   1  10
ATOM      2  C   UNL     1      -0.001  11.776  20.929  0.00  0.00    +0.000 A 
ATOM      3  C   UNL     1       0.456  11.448  19.638  0.00  0.00    +0.000 A 
ATOM      4  C   UNL     1       0.970  10.175  19.351  0.00  0.00    +0.000 A 
ATOM      5  C   UNL     1       1.018   9.240  20.382  0.00  0.00    +0.000 A 
ATOM      6  C   UNL     1       0.540   9.543  21.661  0.00  0.00    +0.000 A 
ATOM      7  C   UNL     1       0.026  10.809  21.950  0.00  0.00    +0.000 A 
ATOM      8  C   UNL     1       1.574   7.889  20.142  0.00  0.00    +0.000 C 
ATOM      9  O   UNL     1       1.334   6.978  20.929  0.00  0.00    +0.000 OA
ATOM     10  C   UNL     1       2.440   7.716  18.902  0.00  0.00    +0.000 C 
ATOM     11  C   UNL     1       1.695   8.362  17.728  0.00  0.00    +0.000 C 
ATOM     12  C   UNL     1       1.489   9.865  17.971  0.00  0.00    +0.000 C 
BRANCH   2  14
ATOM     13  C   UNL     1      -1.419  13.463  20.023  0.00  0.00    +0.000 C 
ATOM     14  O   UNL     1      -0.486  13.058  21.020  0.00  0.00    +0.000 OA
ENDBRANCH   2  14
BRANCH   7  15
ATOM     15  O   UNL     1      -0.483  11.143  23.173  0.00  0.00    +0.000 OA
ATOM     16  C   UNL     1      -1.881  11.394  23.276  0.00  0.00    +0.000 C 
ENDBRANCH   7  15
ENDBRANCH   1  10
BRANCH   1  17
ATOM     17  C   UNL     1       4.040   5.818  18.096  0.00  0.00    +0.000 A 
ATOM     18  C   UNL     1       4.792   6.840  17.503  0.00  0.00    +0.000 A 
ATOM     19  C   UNL     1       5.913   6.536  16.749  0.00  0.00    +0.000 A 
ATOM     20  N   UNL     1       6.308   5.254  16.595  0.00  0.00    +0.000 N 
ATOM     21  C   UNL     1       5.666   4.250  17.243  0.00  0.00    +0.000 A 
ATOM     22  C   UNL     1       4.501   4.492  17.976  0.00  0.00    +0.000 A 
BRANCH  22  23
ATOM     23  C   UNL     1       3.794   3.335  18.602  0.00  0.00    +0.000 C 
ATOM     24  C   UNL     1       2.739   2.580  17.826  0.00  0.00    +0.000 C 
ATOM     25  O   UNL     1       4.094   2.995  19.740  0.00  0.00    +0.000 OA
ENDBRANCH  22  23
BRANCH  20  26
ATOM     26  C   UNL     1       7.431   4.943  15.671  0.00  0.00    +0.000 C 
BRANCH  26  27
ATOM     27  C   UNL     1       6.899   4.572  14.319  0.00  0.00    +0.000 A 
ATOM     28  C   UNL     1       5.679   3.889  14.200  0.00  0.00    +0.000 A 
ATOM     29  C   UNL     1       5.241   3.449  12.951  0.00  0.00    +0.000 A 
ATOM     30  C   UNL     1       6.009   3.692  11.815  0.00  0.00    +0.000 A 
ATOM     31  C   UNL     1       7.202   4.403  11.917  0.00  0.00    +0.000 A 
ATOM     32  C   UNL     1       7.644   4.847  13.162  0.00  0.00    +0.000 A 
ENDBRANCH  26  27
ENDBRANCH  20  26
ENDBRANCH   1  17
TORSDOF 7
ENDMDL
MODEL 2
REMARK VINA RESULT:      -8.7      3.739      6.291
REMARK  Name = 
REMARK  10 active torsions:
REMARK  status: ('A' for Active; 'I' for Inactive)
REMARK    1  A    between atoms: C_1  and  O_2
REMARK    2  A    between atoms: O_2  and  C_3
REMARK    3  A    between atoms: C_8  and  O_9
REMARK    4  A    between atoms: O_9  and  C_10
REMARK    5  A    between atoms: C_13  and  C_14
REMARK    6  A    between atoms: C_14  and  C_15
REMARK    7  A    between atoms: N_18  and  C_19
REMARK    8  A    between atoms: C_19  and  C_20
REMARK    9  A    between atoms: C_27  and  C_28
REMARK   10  A    between atoms: C_28  and  C_29
REMARK                            x       y       z     vdW  Elec       q    Type
REMARK                         _______ _______ _______ _____ _____    ______ ____
ROOT
ATOM      1  C   UNL     1       0.780  11.031  19.359  0.00  0.00    +0.000 C 
ENDROOT
BRANCH   1  10
ATOM      2  C   UNL     1      -5.620  12.045  18.253  0.00  0.00    +0.000 A 
ATOM      3  C   UNL     1      -4.698  11.259  17.536  0.00  0.00    +0.000 A 
ATOM      4  C   UNL     1      -3.367  11.129  17.962  0.00  0.00    +0.000 A 
ATOM      5  C   UNL     1      -2.981  11.803  19.118  0.00  0.00    +0.000 A 
ATOM      6  C   UNL     1      -3.894  12.563  19.856  0.00  0.00    +0.000 A 
ATOM      7  C   UNL     1      -5.220  12.692  19.436  0.00  0.00    +0.000 A 
ATOM      8  C   UNL     1      -1.584  11.723  19.599  0.00  0.00    +0.000 C 
ATOM      9  O   UNL     1      -1.314  12.036  20.755  0.00  0.00    +0.000 OA
ATOM     10  C   UNL     1      -0.541  11.249  18.597  0.00  0.00    +0.000 C 
ATOM     11  C   UNL     1      -1.097   9.994  17.914  0.00  0.00    +0.000 C 
ATOM     12  C   UNL     1      -2.392  10.315  17.153  0.00  0.00    +0.000 C 
BRANCH   2  14
ATOM     13  C   UNL     1      -7.244  13.182  16.932  0.00  0.00    +0.000 C 
ATOM     14  O   UNL     1      -6.877  12.040  17.700  0.00  0.00    +0.000 OA
ENDBRANCH   2  14
BRANCH   7  15
ATOM     15  O   UNL     1      -6.157  13.395  20.139  0.00  0.00    +0.000 OA
ATOM     16  C   UNL     1      -6.017  14.810  20.222  0.00  0.00    +0.000 C 
ENDBRANCH   7  15
ENDBRANCH   1  10
BRANCH   1  17
ATOM     17  C   UNL     1       1.479   9.700  19.176  0.00  0.00    +0.000 A 
ATOM     18  C   UNL     1       2.061   9.453  17.926  0.00  0.00    +0.000 A 
ATOM     19  C   UNL     1       2.559   8.197  17.623  0.00  0.00    +0.000 A 
ATOM     20  N   UNL     1       2.509   7.202  18.534  0.00  0.00    +0.000 N 
ATOM     21  C   UNL     1       2.049   7.435  19.788  0.00  0.00    +0.000 A 
ATOM     22  C   UNL     1       1.491   8.668  20.135  0.00  0.00    +0.000 A 
BRANCH  22  23
ATOM     23  C   UNL     1       0.929   8.841  21.509  0.00  0.00    +0.000 C 
ATOM     24  C   UNL     1      -0.515   8.493  21.787  0.00  0.00    +0.000 C 
ATOM     25  O   UNL     1       1.658   9.246  22.406  0.00  0.00    +0.000 OA
ENDBRANCH  22  23
BRANCH  20  26
ATOM     26  C   UNL     1       2.923   5.829  18.138  0.00  0.00    +0.000 C 
BRANCH  26  27
ATOM     27  C   UNL     1       2.364   4.824  19.101  0.00  0.00    +0.000 A 
ATOM     28  C   UNL     1       1.334   3.959  18.705  0.00  0.00    +0.000 A 
ATOM     29  C   UNL     1       0.742   3.102  19.633  0.00  0.00    +0.000 A 
ATOM     30  C   UNL     1       1.177   3.097  20.956  0.00  0.00    +0.000 A 
ATOM     31  C   UNL     1       2.224   3.925  21.351  0.00  0.00    +0.000 A 
ATOM     32  C   UNL     1       2.821   4.781  20.427  0.00  0.00    +0.000 A 
ENDBRANCH  26  27
ENDBRANCH  20  26
ENDBRANCH   1  17
TORSDOF 7
ENDMDL
MODEL 3
REMARK VINA RESULT:      -8.6      3.067      5.531
REMARK  Name = 
REMARK  10 active torsions:
REMARK  status: ('A' for Active; 'I' for Inactive)
REMARK    1  A    between atoms: C_1  and  O_2
REMARK    2  A    between atoms: O_2  and  C_3
REMARK    3  A    between atoms: C_8  and  O_9
REMARK    4  A    between atoms: O_9  and  C_10
REMARK    5  A    between atoms: C_13  and  C_14
REMARK    6  A    between atoms: C_14  and  C_15
REMARK    7  A    between atoms: N_18  and  C_19
REMARK    8  A    between atoms: C_19  and  C_20
REMARK    9  A    between atoms: C_27  and  C_28
REMARK   10  A    between atoms: C_28  and  C_29
REMARK                            x       y       z     vdW  Elec       q    Type
REMARK                         _______ _______ _______ _____ _____    ______ ____
ROOT
ATOM      1  C   UNL     1       0.928  10.958  19.312  0.00  0.00    +0.000 C 
ENDROOT
BRANCH   1  10
ATOM      2  C   UNL     1      -5.477  12.064  18.335  0.00  0.00    +0.000 A 
ATOM      3  C   UNL     1      -4.578  11.277  17.591  0.00  0.00    +0.000 A 
ATOM      4  C   UNL     1      -3.241  11.126  17.991  0.00  0.00    +0.000 A 
ATOM      5  C   UNL     1      -2.827  11.778  19.149  0.00  0.00    +0.000 A 
ATOM      6  C   UNL     1      -3.717  12.539  19.914  0.00  0.00    +0.000 A 
ATOM      7  C   UNL     1      -5.049  12.690  19.520  0.00  0.00    +0.000 A 
ATOM      8  C   UNL     1      -1.422  11.674  19.605  0.00  0.00    +0.000 C 
ATOM      9  O   UNL     1      -1.128  11.968  20.760  0.00  0.00    +0.000 OA
ATOM     10  C   UNL     1      -0.403  11.203  18.577  0.00  0.00    +0.000 C 
ATOM     11  C   UNL     1      -0.987   9.965  17.887  0.00  0.00    +0.000 C 
ATOM     12  C   UNL     1      -2.291  10.312  17.154  0.00  0.00    +0.000 C 
BRANCH   2  14
ATOM     13  C   UNL     1      -7.085  13.206  16.998  0.00  0.00    +0.000 C 
ATOM     14  O   UNL     1      -6.744  12.083  17.805  0.00  0.00    +0.000 OA
ENDBRANCH   2  14
BRANCH   7  15
ATOM     15  O   UNL     1      -5.965  13.394  20.249  0.00  0.00    +0.000 OA
ATOM     16  C   UNL     1      -5.654  14.738  20.605  0.00  0.00    +0.000 C 
ENDBRANCH   7  15
ENDBRANCH   1  10
BRANCH   1  17
ATOM     17  C   UNL     1       1.537   9.575  19.211  0.00  0.00    +0.000 A 
ATOM     18  C   UNL     1       2.102   9.217  17.980  0.00  0.00    +0.000 A 
ATOM     19  C   UNL     1       2.515   7.915  17.753  0.00  0.00    +0.000 A 
ATOM     20  N   UNL     1       2.399   6.980  18.720  0.00  0.00    +0.000 N 
ATOM     21  C   UNL     1       1.954   7.317  19.956  0.00  0.00    +0.000 A 
ATOM     22  C   UNL     1       1.479   8.602  20.228  0.00  0.00    +0.000 A 
BRANCH  22  23
ATOM     23  C   UNL     1       0.929   8.892  21.587  0.00  0.00    +0.000 C 
ATOM     24  C   UNL     1      -0.527   8.621  21.890  0.00  0.00    +0.000 C 
ATOM     25  O   UNL     1       1.677   9.331  22.453  0.00  0.00    +0.000 OA
ENDBRANCH  22  23
BRANCH  20  26
ATOM     26  C   UNL     1       2.720   5.562  18.407  0.00  0.00    +0.000 C 
BRANCH  26  27
ATOM     27  C   UNL     1       4.191   5.410  18.158  0.00  0.00    +0.000 A 
ATOM     28  C   UNL     1       4.664   5.083  16.878  0.00  0.00    +0.000 A 
ATOM     29  C   UNL     1       6.021   4.835  16.675  0.00  0.00    +0.000 A 
ATOM     30  C   UNL     1       6.915   4.918  17.740  0.00  0.00    +0.000 A 
ATOM     31  C   UNL     1       6.462   5.280  19.005  0.00  0.00    +0.000 A 
ATOM     32  C   UNL     1       5.107   5.532  19.214  0.00  0.00    +0.000 A 
ENDBRANCH  26  27
ENDBRANCH  20  26
ENDBRANCH   1  17
TORSDOF 7
ENDMDL
MODEL 4
REMARK VINA RESULT:      -8.6      3.758     10.114
REMARK  Name = 
REMARK  10 active torsions:
REMARK  status: ('A' for Active; 'I' for Inactive)
REMARK    1  A    between atoms: C_1  and  O_2
REMARK    2  A    between atoms: O_2  and  C_3
REMARK    3  A    between atoms: C_8  and  O_9
REMARK    4  A    between atoms: O_9  and  C_10
REMARK    5  A    between atoms: C_13  and  C_14
REMARK    6  A    between atoms: C_14  and  C_15
REMARK    7  A    between atoms: N_18  and  C_19
REMARK    8  A    between atoms: C_19  and  C_20
REMARK    9  A    between atoms: C_27  and  C_28
REMARK   10  A    between atoms: C_28  and  C_29
REMARK                            x       y       z     vdW  Elec       q    Type
REMARK                         _______ _______ _______ _____ _____    ______ ____
ROOT
ATOM      1  C   UNL     1       0.907  10.080  18.858  0.00  0.00    +0.000 C 
ENDROOT
BRANCH   1  10
ATOM      2  C   UNL     1       3.509   4.069  19.414  0.00  0.00    +0.000 A 
ATOM      3  C   UNL     1       3.695   5.040  18.411  0.00  0.00    +0.000 A 
ATOM      4  C   UNL     1       3.081   6.299  18.494  0.00  0.00    +0.000 A 
ATOM      5  C   UNL     1       2.278   6.563  19.601  0.00  0.00    +0.000 A 
ATOM      6  C   UNL     1       2.109   5.619  20.619  0.00  0.00    +0.000 A 
ATOM      7  C   UNL     1       2.720   4.366  20.540  0.00  0.00    +0.000 A 
ATOM      8  C   UNL     1       1.585   7.865  19.728  0.00  0.00    +0.000 C 
ATOM      9  O   UNL     1       1.149   8.224  20.818  0.00  0.00    +0.000 OA
ATOM     10  C   UNL     1       1.449   8.695  18.459  0.00  0.00    +0.000 C 
ATOM     11  C   UNL     1       2.822   8.720  17.778  0.00  0.00    +0.000 C 
ATOM     12  C   UNL     1       3.264   7.302  17.386  0.00  0.00    +0.000 C 
BRANCH   2  14
ATOM     13  C   UNL     1       3.534   1.912  18.403  0.00  0.00    +0.000 C 
ATOM     14  O   UNL     1       4.200   2.907  19.175  0.00  0.00    +0.000 OA
ENDBRANCH   2  14
BRANCH   7  15
ATOM     15  O   UNL     1       2.613   3.423  21.523  0.00  0.00    +0.000 OA
ATOM     16  C   UNL     1       1.416   2.655  21.593  0.00  0.00    +0.000 C 
ENDBRANCH   7  15
ENDBRANCH   1  10
BRANCH   1  17
ATOM     17  C   UNL     1      -0.499  10.432  18.416  0.00  0.00    +0.000 A 
ATOM     18  C   UNL     1      -1.155   9.512  17.589  0.00  0.00    +0.000 A 
ATOM     19  C   UNL     1      -2.364   9.840  16.999  0.00  0.00    +0.000 A 
ATOM     20  N   UNL     1      -2.936  11.041  17.232  0.00  0.00    +0.000 N 
ATOM     21  C   UNL     1      -2.381  11.912  18.110  0.00  0.00    +0.000 A 
ATOM     22  C   UNL     1      -1.139  11.655  18.696  0.00  0.00    +0.000 A 
BRANCH  22  23
ATOM     23  C   UNL     1      -0.541  12.688  19.595  0.00  0.00    +0.000 C 
ATOM     24  C   UNL     1       0.220  13.855  19.009  0.00  0.00    +0.000 C 
ATOM     25  O   UNL     1      -0.695  12.587  20.806  0.00  0.00    +0.000 OA
ENDBRANCH  22  23
BRANCH  20  26
ATOM     26  C   UNL     1      -4.162  11.423  16.481  0.00  0.00    +0.000 C 
BRANCH  26  27
ATOM     27  C   UNL     1      -5.290  11.683  17.434  0.00  0.00    +0.000 A 
ATOM     28  C   UNL     1      -5.725  10.679  18.311  0.00  0.00    +0.000 A 
ATOM     29  C   UNL     1      -6.843  10.888  19.118  0.00  0.00    +0.000 A 
ATOM     30  C   UNL     1      -7.529  12.098  19.062  0.00  0.00    +0.000 A 
ATOM     31  C   UNL     1      -7.083  13.116  18.224  0.00  0.00    +0.000 A 
ATOM     32  C   UNL     1      -5.965  12.914  17.417  0.00  0.00    +0.000 A 
ENDBRANCH  26  27
ENDBRANCH  20  26
ENDBRANCH   1  17
TORSDOF 7
ENDMDL
MODEL 5
REMARK VINA RESULT:      -8.6      3.739     10.610
REMARK  Name = 
REMARK  10 active torsions:
REMARK  status: ('A' for Active; 'I' for Inactive)
REMARK    1  A    between atoms: C_1  and  O_2
REMARK    2  A    between atoms: O_2  and  C_3
REMARK    3  A    between atoms: C_8  and  O_9
REMARK    4  A    between atoms: O_9  and  C_10
REMARK    5  A    between atoms: C_13  and  C_14
REMARK    6  A    between atoms: C_14  and  C_15
REMARK    7  A    between atoms: N_18  and  C_19
REMARK    8  A    between atoms: C_19  and  C_20
REMARK    9  A    between atoms: C_27  and  C_28
REMARK   10  A    between atoms: C_28  and  C_29
REMARK                            x       y       z     vdW  Elec       q    Type
REMARK                         _______ _______ _______ _____ _____    ______ ____
ROOT
ATOM      1  C   UNL     1       0.444  11.096  20.032  0.00  0.00    +0.000 C 
ENDROOT
BRANCH   1  10
ATOM      2  C   UNL     1       2.868   5.067  19.040  0.00  0.00    +0.000 A 
ATOM      3  C   UNL     1       2.860   6.184  18.184  0.00  0.00    +0.000 A 
ATOM      4  C   UNL     1       2.330   7.415  18.599  0.00  0.00    +0.000 A 
ATOM      5  C   UNL     1       1.810   7.502  19.888  0.00  0.00    +0.000 A 
ATOM      6  C   UNL     1       1.838   6.408  20.759  0.00  0.00    +0.000 A 
ATOM      7  C   UNL     1       2.367   5.182  20.350  0.00  0.00    +0.000 A 
ATOM      8  C   UNL     1       1.215   8.769  20.370  0.00  0.00    +0.000 C 
ATOM      9  O   UNL     1       1.051   8.950  21.573  0.00  0.00    +0.000 OA
ATOM     10  C   UNL     1       0.828   9.790  19.310  0.00  0.00    +0.000 C 
ATOM     11  C   UNL     1       2.011   9.920  18.344  0.00  0.00    +0.000 C 
ATOM     12  C   UNL     1       2.297   8.582  17.648  0.00  0.00    +0.000 C 
BRANCH   2  14
ATOM     13  C   UNL     1       4.860   3.853  18.553  0.00  0.00    +0.000 C 
ATOM     14  O   UNL     1       3.441   3.955  18.473  0.00  0.00    +0.000 OA
ENDBRANCH   2  14
BRANCH   7  15
ATOM     15  O   UNL     1       2.448   4.095  21.173  0.00  0.00    +0.000 OA
ATOM     16  C   UNL     1       1.373   3.161  21.165  0.00  0.00    +0.000 C 
ENDBRANCH   7  15
ENDBRANCH   1  10
BRANCH   1  17
ATOM     17  C   UNL     1      -1.022  11.476  20.053  0.00  0.00    +0.000 A 
ATOM     18  C   UNL     1      -1.757  11.240  18.884  0.00  0.00    +0.000 A 
ATOM     19  C   UNL     1      -3.049  11.722  18.762  0.00  0.00    +0.000 A 
ATOM     20  N   UNL     1      -3.625  12.405  19.774  0.00  0.00    +0.000 N 
ATOM     21  C   UNL     1      -2.980  12.559  20.958  0.00  0.00    +0.000 A 
ATOM     22  C   UNL     1      -1.658  12.137  21.122  0.00  0.00    +0.000 A 
BRANCH  22  23
ATOM     23  C   UNL     1      -0.975  12.404  22.423  0.00  0.00    +0.000 C 
ATOM     24  C   UNL     1      -0.705  13.826  22.861  0.00  0.00    +0.000 C 
ATOM     25  O   UNL     1      -0.657  11.460  23.136  0.00  0.00    +0.000 OA
ENDBRANCH  22  23
BRANCH  20  26
ATOM     26  C   UNL     1      -4.958  13.030  19.568  0.00  0.00    +0.000 C 
BRANCH  26  27
ATOM     27  C   UNL     1      -6.041  12.091  20.011  0.00  0.00    +0.000 A 
ATOM     28  C   UNL     1      -6.759  12.341  21.190  0.00  0.00    +0.000 A 
ATOM     29  C   UNL     1      -7.688  11.411  21.655  0.00  0.00    +0.000 A 
ATOM     30  C   UNL     1      -7.913  10.233  20.947  0.00  0.00    +0.000 A 
ATOM     31  C   UNL     1      -7.234   9.993  19.756  0.00  0.00    +0.000 A 
ATOM     32  C   UNL     1      -6.307  10.920  19.284  0.00  0.00    +0.000 A 
ENDBRANCH  26  27
ENDBRANCH  20  26
ENDBRANCH   1  17
TORSDOF 7
ENDMDL
MODEL 6
REMARK VINA RESULT:      -8.6      3.812     10.559
REMARK  Name = 
REMARK  10 active torsions:
REMARK  status: ('A' for Active; 'I' for Inactive)
REMARK    1  A    between atoms: C_1  and  O_2
REMARK    2  A    between atoms: O_2  and  C_3
REMARK    3  A    between atoms: C_8  and  O_9
REMARK    4  A    between atoms: O_9  and  C_10
REMARK    5  A    between atoms: C_13  and  C_14
REMARK    6  A    between atoms: C_14  and  C_15
REMARK    7  A    between atoms: N_18  and  C_19
REMARK    8  A    between atoms: C_19  and  C_20
REMARK    9  A    between atoms: C_27  and  C_28
REMARK   10  A    between atoms: C_28  and  C_29
REMARK                            x       y       z     vdW  Elec       q    Type
REMARK                         _______ _______ _______ _____ _____    ______ ____
ROOT
ATOM      1  C   UNL     1       0.549  11.290  19.109  0.00  0.00    +0.000 C 
ENDROOT
BRANCH   1  10
ATOM      2  C   UNL     1       3.008   5.218  19.654  0.00  0.00    +0.000 A 
ATOM      3  C   UNL     1       2.187   5.938  20.543  0.00  0.00    +0.000 A 
ATOM      4  C   UNL     1       1.720   7.223  20.223  0.00  0.00    +0.000 A 
ATOM      5  C   UNL     1       2.094   7.768  18.998  0.00  0.00    +0.000 A 
ATOM      6  C   UNL     1       2.884   7.052  18.093  0.00  0.00    +0.000 A 
ATOM      7  C   UNL     1       3.349   5.773  18.407  0.00  0.00    +0.000 A 
ATOM      8  C   UNL     1       1.651   9.129  18.619  0.00  0.00    +0.000 C 
ATOM      9  O   UNL     1       1.701   9.486  17.446  0.00  0.00    +0.000 OA
ATOM     10  C   UNL     1       1.156  10.026  19.745  0.00  0.00    +0.000 C 
ATOM     11  C   UNL     1       0.176   9.203  20.590  0.00  0.00    +0.000 C 
ATOM     12  C   UNL     1       0.877   7.986  21.210  0.00  0.00    +0.000 C 
BRANCH   2  14
ATOM     13  C   UNL     1       2.372   3.287  20.896  0.00  0.00    +0.000 C 
ATOM     14  O   UNL     1       3.352   3.975  20.124  0.00  0.00    +0.000 OA
ENDBRANCH   2  14
BRANCH   7  15
ATOM     15  O   UNL     1       4.095   5.020  17.545  0.00  0.00    +0.000 OA
ATOM     16  C   UNL     1       5.265   5.603  16.981  0.00  0.00    +0.000 C 
ENDBRANCH   7  15
ENDBRANCH   1  10
BRANCH   1  17
ATOM     17  C   UNL     1      -0.961  11.380  19.041  0.00  0.00    +0.000 A 
ATOM     18  C   UNL     1      -1.592  10.716  17.981  0.00  0.00    +0.000 A 
ATOM     19  C   UNL     1      -2.944  10.898  17.747  0.00  0.00    +0.000 A 
ATOM     20  N   UNL     1      -3.677  11.699  18.550  0.00  0.00    +0.000 N 
ATOM     21  C   UNL     1      -3.122  12.272  19.647  0.00  0.00    +0.000 A 
ATOM     22  C   UNL     1      -1.752  12.163  19.905  0.00  0.00    +0.000 A 
BRANCH  22  23
ATOM     23  C   UNL     1      -1.184  12.882  21.085  0.00  0.00    +0.000 C 
ATOM     24  C   UNL     1      -1.038  12.168  22.410  0.00  0.00    +0.000 C 
ATOM     25  O   UNL     1      -0.821  14.045  20.959  0.00  0.00    +0.000 OA
ENDBRANCH  22  23
BRANCH  20  26
ATOM     26  C   UNL     1      -5.093  11.987  18.199  0.00  0.00    +0.000 C 
BRANCH  26  27
ATOM     27  C   UNL     1      -6.012  11.340  19.191  0.00  0.00    +0.000 A 
ATOM     28  C   UNL     1      -6.393   9.999  19.037  0.00  0.00    +0.000 A 
ATOM     29  C   UNL     1      -7.332   9.433  19.899  0.00  0.00    +0.000 A 
ATOM     30  C   UNL     1      -7.892  10.196  20.921  0.00  0.00    +0.000 A 
ATOM     31  C   UNL     1      -7.492  11.516  21.107  0.00  0.00    +0.000 A 
ATOM     32  C   UNL     1      -6.552  12.086  20.251  0.00  0.00    +0.000 A 
ENDBRANCH  26  27
ENDBRANCH  20  26
ENDBRANCH   1  17
TORSDOF 7
ENDMDL
MODEL 7
REMARK VINA RESULT:      -8.5      3.829     10.418
REMARK  Name = 
REMARK  10 active torsions:
REMARK  status: ('A' for Active; 'I' for Inactive)
REMARK    1  A    between atoms: C_1  and  O_2
REMARK    2  A    between atoms: O_2  and  C_3
REMARK    3  A    between atoms: C_8  and  O_9
REMARK    4  A    between atoms: O_9  and  C_10
REMARK    5  A    between atoms: C_13  and  C_14
REMARK    6  A    between atoms: C_14  and  C_15
REMARK    7  A    between atoms: N_18  and  C_19
REMARK    8  A    between atoms: C_19  and  C_20
REMARK    9  A    between atoms: C_27  and  C_28
REMARK   10  A    between atoms: C_28  and  C_29
REMARK                            x       y       z     vdW  Elec       q    Type
REMARK                         _______ _______ _______ _____ _____    ______ ____
ROOT
ATOM      1  C   UNL     1       0.384  10.738  19.055  0.00  0.00    +0.000 C 
ENDROOT
BRANCH   1  10
ATOM      2  C   UNL     1       3.276   4.848  19.443  0.00  0.00    +0.000 A 
ATOM      3  C   UNL     1       3.422   5.858  18.473  0.00  0.00    +0.000 A 
ATOM      4  C   UNL     1       2.745   7.082  18.591  0.00  0.00    +0.000 A 
ATOM      5  C   UNL     1       1.922   7.271  19.698  0.00  0.00    +0.000 A 
ATOM      6  C   UNL     1       1.791   6.287  20.683  0.00  0.00    +0.000 A 
ATOM      7  C   UNL     1       2.465   5.069  20.571  0.00  0.00    +0.000 A 
ATOM      8  C   UNL     1       1.164   8.532  19.860  0.00  0.00    +0.000 C 
ATOM      9  O   UNL     1       0.702   8.833  20.957  0.00  0.00    +0.000 OA
ATOM     10  C   UNL     1       0.997   9.395  18.617  0.00  0.00    +0.000 C 
ATOM     11  C   UNL     1       2.373   9.510  17.950  0.00  0.00    +0.000 C 
ATOM     12  C   UNL     1       2.887   8.129  17.518  0.00  0.00    +0.000 C 
BRANCH   2  14
ATOM     13  C   UNL     1       4.980   3.834  18.121  0.00  0.00    +0.000 C 
ATOM     14  O   UNL     1       4.026   3.729  19.174  0.00  0.00    +0.000 OA
ENDBRANCH   2  14
BRANCH   7  15
ATOM     15  O   UNL     1       2.396   4.090  21.522  0.00  0.00    +0.000 OA
ATOM     16  C   UNL     1       1.413   3.071  21.372  0.00  0.00    +0.000 C 
ENDBRANCH   7  15
ENDBRANCH   1  10
BRANCH   1  17
ATOM     17  C   UNL     1      -1.109  10.916  18.869  0.00  0.00    +0.000 A 
ATOM     18  C   UNL     1      -1.730  10.115  17.902  0.00  0.00    +0.000 A 
ATOM     19  C   UNL     1      -3.049  10.342  17.548  0.00  0.00    +0.000 A 
ATOM     20  N   UNL     1      -3.759  11.324  18.143  0.00  0.00    +0.000 N 
ATOM     21  C   UNL     1      -3.222  12.048  19.156  0.00  0.00    +0.000 A 
ATOM     22  C   UNL     1      -1.882  11.896  19.523  0.00  0.00    +0.000 A 
BRANCH  22  23
ATOM     23  C   UNL     1      -1.325  12.777  20.593  0.00  0.00    +0.000 C 
ATOM     24  C   UNL     1      -0.837  14.167  20.255  0.00  0.00    +0.000 C 
ATOM     25  O   UNL     1      -1.290  12.366  21.747  0.00  0.00    +0.000 OA
ENDBRANCH  22  23
BRANCH  20  26
ATOM     26  C   UNL     1      -5.126  11.638  17.649  0.00  0.00    +0.000 C 
BRANCH  26  27
ATOM     27  C   UNL     1      -6.138  11.362  18.722  0.00  0.00    +0.000 A 
ATOM     28  C   UNL     1      -6.688  12.416  19.466  0.00  0.00    +0.000 A 
ATOM     29  C   UNL     1      -7.545  12.148  20.534  0.00  0.00    +0.000 A 
ATOM     30  C   UNL     1      -7.863  10.833  20.862  0.00  0.00    +0.000 A 
ATOM     31  C   UNL     1      -7.353   9.781  20.106  0.00  0.00    +0.000 A 
ATOM     32  C   UNL     1      -6.499  10.043  19.036  0.00  0.00    +0.000 A 
ENDBRANCH  26  27
ENDBRANCH  20  26
ENDBRANCH   1  17
TORSDOF 7
ENDMDL
MODEL 8
REMARK VINA RESULT:      -8.5      3.642     10.261
REMARK  Name = 
REMARK  10 active torsions:
REMARK  status: ('A' for Active; 'I' for Inactive)
REMARK    1  A    between atoms: C_1  and  O_2
REMARK    2  A    between atoms: O_2  and  C_3
REMARK    3  A    between atoms: C_8  and  O_9
REMARK    4  A    between atoms: O_9  and  C_10
REMARK    5  A    between atoms: C_13  and  C_14
REMARK    6  A    between atoms: C_14  and  C_15
REMARK    7  A    between atoms: N_18  and  C_19
REMARK    8  A    between atoms: C_19  and  C_20
REMARK    9  A    between atoms: C_27  and  C_28
REMARK   10  A    between atoms: C_28  and  C_29
REMARK                            x       y       z     vdW  Elec       q    Type
REMARK                         _______ _______ _______ _____ _____    ______ ____
ROOT
ATOM      1  C   UNL     1       1.071  10.266  19.513  0.00  0.00    +0.000 C 
ENDROOT
BRANCH   1  10
ATOM      2  C   UNL     1       3.332   4.139  18.769  0.00  0.00    +0.000 A 
ATOM      3  C   UNL     1       3.426   5.243  17.900  0.00  0.00    +0.000 A 
ATOM      4  C   UNL     1       2.914   6.499  18.262  0.00  0.00    +0.000 A 
ATOM      5  C   UNL     1       2.309   6.623  19.510  0.00  0.00    +0.000 A 
ATOM      6  C   UNL     1       2.235   5.543  20.394  0.00  0.00    +0.000 A 
ATOM      7  C   UNL     1       2.745   4.292  20.038  0.00  0.00    +0.000 A 
ATOM      8  C   UNL     1       1.729   7.918  19.934  0.00  0.00    +0.000 C 
ATOM      9  O   UNL     1       1.488   8.123  21.120  0.00  0.00    +0.000 OA
ATOM     10  C   UNL     1       1.456   8.937  18.836  0.00  0.00    +0.000 C 
ATOM     11  C   UNL     1       2.707   9.009  17.954  0.00  0.00    +0.000 C 
ATOM     12  C   UNL     1       2.991   7.651  17.296  0.00  0.00    +0.000 C 
BRANCH   2  14
ATOM     13  C   UNL     1       3.010   1.976  17.823  0.00  0.00    +0.000 C 
ATOM     14  O   UNL     1       3.902   2.999  18.257  0.00  0.00    +0.000 OA
ENDBRANCH   2  14
BRANCH   7  15
ATOM     15  O   UNL     1       2.728   3.215  20.879  0.00  0.00    +0.000 OA
ATOM     16  C   UNL     1       1.525   2.930  21.585  0.00  0.00    +0.000 C 
ENDBRANCH   7  15
ENDBRANCH   1  10
BRANCH   1  17
ATOM     17  C   UNL     1      -0.367  10.723  19.387  0.00  0.00    +0.000 A 
ATOM     18  C   UNL     1      -1.113  10.192  18.326  0.00  0.00    +0.000 A 
ATOM     19  C   UNL     1      -2.371  10.692  18.037  0.00  0.00    +0.000 A 
ATOM     20  N   UNL     1      -2.904  11.681  18.785  0.00  0.00    +0.000 N 
ATOM     21  C   UNL     1      -2.255  12.144  19.882  0.00  0.00    +0.000 A 
ATOM     22  C   UNL     1      -0.964  11.712  20.194  0.00  0.00    +0.000 A 
BRANCH  22  23
ATOM     23  C   UNL     1      -0.268  12.316  21.370  0.00  0.00    +0.000 C 
ATOM     24  C   UNL     1       0.323  13.703  21.273  0.00  0.00    +0.000 C 
ATOM     25  O   UNL     1      -0.203  11.681  22.417  0.00  0.00    +0.000 OA
ENDBRANCH  22  23
BRANCH  20  26
ATOM     26  C   UNL     1      -4.195  12.294  18.372  0.00  0.00    +0.000 C 
BRANCH  26  27
ATOM     27  C   UNL     1      -5.328  11.675  19.137  0.00  0.00    +0.000 A 
ATOM     28  C   UNL     1      -5.931  10.495  18.680  0.00  0.00    +0.000 A 
ATOM     29  C   UNL     1      -7.053   9.983  19.331  0.00  0.00    +0.000 A 
ATOM     30  C   UNL     1      -7.575  10.639  20.444  0.00  0.00    +0.000 A 
ATOM     31  C   UNL     1      -6.960  11.790  20.929  0.00  0.00    +0.000 A 
ATOM     32  C   UNL     1      -5.837  12.304  20.283  0.00  0.00    +0.000 A 
ENDBRANCH  26  27
ENDBRANCH  20  26
ENDBRANCH   1  17
TORSDOF 7
ENDMDL
MODEL 9
REMARK VINA RESULT:      -8.3      0.600      1.047
REMARK  Name = 
REMARK  10 active torsions:
REMARK  status: ('A' for Active; 'I' for Inactive)
REMARK    1  A    between atoms: C_1  and  O_2
REMARK    2  A    between atoms: O_2  and  C_3
REMARK    3  A    between atoms: C_8  and  O_9
REMARK    4  A    between atoms: O_9  and  C_10
REMARK    5  A    between atoms: C_13  and  C_14
REMARK    6  A    between atoms: C_14  and  C_15
REMARK    7  A    between atoms: N_18  and  C_19
REMARK    8  A    between atoms: C_19  and  C_20
REMARK    9  A    between atoms: C_27  and  C_28
REMARK   10  A    between atoms: C_28  and  C_29
REMARK                            x       y       z     vdW  Elec       q    Type
REMARK                         _______ _______ _______ _____ _____    ______ ____
ROOT
ATOM      1  C   UNL     1       2.507   6.461  18.536  0.00  0.00    +0.000 C 
ENDROOT
BRANCH   1  10
ATOM      2  C   UNL     1       0.153  12.109  20.935  0.00  0.00    +0.000 A 
ATOM      3  C   UNL     1       0.630  11.811  19.644  0.00  0.00    +0.000 A 
ATOM      4  C   UNL     1       1.052  10.516  19.307  0.00  0.00    +0.000 A 
ATOM      5  C   UNL     1       0.987   9.530  20.288  0.00  0.00    +0.000 A 
ATOM      6  C   UNL     1       0.488   9.806  21.565  0.00  0.00    +0.000 A 
ATOM      7  C   UNL     1       0.065  11.093  21.904  0.00  0.00    +0.000 A 
ATOM      8  C   UNL     1       1.443   8.152  19.995  0.00  0.00    +0.000 C 
ATOM      9  O   UNL     1       1.103   7.225  20.724  0.00  0.00    +0.000 OA
ATOM     10  C   UNL     1       2.338   7.972  18.777  0.00  0.00    +0.000 C 
ATOM     11  C   UNL     1       1.691   8.735  17.615  0.00  0.00    +0.000 C 
ATOM     12  C   UNL     1       1.596  10.234  17.931  0.00  0.00    +0.000 C 
BRANCH   2  14
ATOM     13  C   UNL     1       0.664  14.280  21.774  0.00  0.00    +0.000 C 
ATOM     14  O   UNL     1      -0.233  13.420  21.079  0.00  0.00    +0.000 OA
ENDBRANCH   2  14
BRANCH   7  15
ATOM     15  O   UNL     1      -0.461  11.406  23.126  0.00  0.00    +0.000 OA
ATOM     16  C   UNL     1      -1.877  11.392  23.274  0.00  0.00    +0.000 C 
ENDBRANCH   7  15
ENDBRANCH   1  10
BRANCH   1  17
ATOM     17  C   UNL     1       3.862   5.977  18.063  0.00  0.00    +0.000 A 
ATOM     18  C   UNL     1       4.694   6.919  17.444  0.00  0.00    +0.000 A 
ATOM     19  C   UNL     1       5.867   6.518  16.827  0.00  0.00    +0.000 A 
ATOM     20  N   UNL     1       6.235   5.219  16.833  0.00  0.00    +0.000 N 
ATOM     21  C   UNL     1       5.508   4.298  17.513  0.00  0.00    +0.000 A 
ATOM     22  C   UNL     1       4.291   4.636  18.112  0.00  0.00    +0.000 A 
BRANCH  22  23
ATOM     23  C   UNL     1       3.497   3.561  18.780  0.00  0.00    +0.000 C 
ATOM     24  C   UNL     1       2.699   2.580  17.951  0.00  0.00    +0.000 C 
ATOM     25  O   UNL     1       3.517   3.475  20.002  0.00  0.00    +0.000 OA
ENDBRANCH  22  23
BRANCH  20  26
ATOM     26  C   UNL     1       7.424   4.794  16.047  0.00  0.00    +0.000 C 
BRANCH  26  27
ATOM     27  C   UNL     1       7.026   4.488  14.634  0.00  0.00    +0.000 A 
ATOM     28  C   UNL     1       7.739   5.040  13.561  0.00  0.00    +0.000 A 
ATOM     29  C   UNL     1       7.301   4.843  12.251  0.00  0.00    +0.000 A 
ATOM     30  C   UNL     1       6.156   4.089  12.004  0.00  0.00    +0.000 A 
ATOM     31  C   UNL     1       5.463   3.504  13.059  0.00  0.00    +0.000 A 
ATOM     32  C   UNL     1       5.898   3.696  14.369  0.00  0.00    +0.000 A 
ENDBRANCH  26  27
ENDBRANCH  20  26
ENDBRANCH   1  17
TORSDOF 7
ENDMDL
