MODEL 1
REMARK VINA RESULT:      -7.8      0.000      0.000
REMARK  Name = 
REMARK  3 active torsions:
REMARK  status: ('A' for Active; 'I' for Inactive)
REMARK    1  A    between atoms: C_1  and  N_2
REMARK    2  A    between atoms: N_2  and  C_11
REMARK    3  A    between atoms: C_3  and  C_5
REMARK                            x       y       z     vdW  Elec       q    Type
REMARK                         _______ _______ _______ _____ _____    ______ ____
ROOT
ATOM      1  C   UNL     1       4.255   5.572  16.777  0.00  0.00    +0.000 C 
ATOM      2  C   UNL     1       3.177   4.634  17.390  0.00  0.00    +0.000 C 
ATOM      3  C   UNL     1       2.216   5.335  18.362  0.00  0.00    +0.000 C 
ATOM      4  N   UNL     1       2.918   6.434  18.982  0.00  0.00    +0.000 NA
ATOM      5  C   UNL     1       2.539   6.807  20.353  0.00  0.00    +0.000 C 
ATOM      6  C   UNL     1       1.422   7.834  20.454  0.00  0.00    +0.000 C 
ATOM      7  C   UNL     1       1.752   9.006  19.551  0.00  0.00    +0.000 A 
ATOM      8  C   UNL     1       2.031   8.639  18.244  0.00  0.00    +0.000 A 
ATOM      9  N   UNL     1       0.771   8.988  17.696  0.00  0.00    +0.000 N 
ATOM     10  C   UNL     1       0.142   9.933  18.557  0.00  0.00    +0.000 A 
ATOM     11  C   UNL     1      -1.150  10.479  18.719  0.00  0.00    +0.000 A 
ATOM     12  C   UNL     1      -1.360  11.473  19.726  0.00  0.00    +0.000 A 
ATOM     13  C   UNL     1      -0.324  11.890  20.551  0.00  0.00    +0.000 A 
ATOM     14  C   UNL     1       0.914  11.259  20.472  0.00  0.00    +0.000 A 
ATOM     15  C   UNL     1       1.096  10.229  19.522  0.00  0.00    +0.000 A 
ATOM     16  C   UNL     1       3.139   7.562  18.055  0.00  0.00    +0.000 C 
ATOM     17  C   UNL     1       3.684   7.049  16.705  0.00  0.00    +0.000 C 
ATOM     18  H   UNL     1       0.300   8.525  16.933  0.00  0.00    +0.000 HD
ENDROOT
BRANCH   1  20
ATOM     19  C   UNL     1       5.859   5.330  18.765  0.00  0.00    +0.000 C 
ATOM     20  N   UNL     1       5.667   5.338  17.308  0.00  0.00    +0.000 N 
ATOM     21  C   UNL     1       6.808   4.797  16.635  0.00  0.00    +0.000 C 
ATOM     22  O   UNL     1       7.800   4.409  17.280  0.00  0.00    +0.000 OA
BRANCH  21  23
ATOM     23  C   UNL     1       6.987   4.666  15.153  0.00  0.00    +0.000 A 
ATOM     24  C   UNL     1       6.112   3.780  14.484  0.00  0.00    +0.000 A 
ATOM     25  C   UNL     1       6.157   3.617  13.095  0.00  0.00    +0.000 A 
ATOM     26  C   UNL     1       7.078   4.336  12.345  0.00  0.00    +0.000 A 
ATOM     27  C   UNL     1       7.910   5.253  12.982  0.00  0.00    +0.000 A 
ATOM     28  C   UNL     1       7.839   5.441  14.368  0.00  0.00    +0.000 A 
ENDBRANCH  21  23
ENDBRANCH   1  20
TORSDOF 2
ENDMDL
MODEL 2
REMARK VINA RESULT:      -7.3      0.564      1.077
REMARK  Name = 
REMARK  3 active torsions:
REMARK  status: ('A' for Active; 'I' for Inactive)
REMARK    1  A    between atoms: C_1  and  N_2
REMARK    2  A    between atoms: N_2  and  C_11
REMARK    3  A    between atoms: C_3  and  C_5
REMARK                            x       y       z     vdW  Elec       q    Type
REMARK                         _______ _______ _______ _____ _____    ______ ____
ROOT
ATOM      1  C   UNL     1       3.815   5.610  17.209  0.00  0.00    +0.000 C 
ATOM      2  C   UNL     1       2.686   4.742  17.833  0.00  0.00    +0.000 C 
ATOM      3  C   UNL     1       1.759   5.510  18.787  0.00  0.00    +0.000 C 
ATOM      4  N   UNL     1       2.515   6.583  19.390  0.00  0.00    +0.000 NA
ATOM      5  C   UNL     1       2.150   7.000  20.752  0.00  0.00    +0.000 C 
ATOM      6  C   UNL     1       1.088   8.087  20.828  0.00  0.00    +0.000 C 
ATOM      7  C   UNL     1       1.483   9.223  19.905  0.00  0.00    +0.000 A 
ATOM      8  C   UNL     1       1.748   8.816  18.607  0.00  0.00    +0.000 A 
ATOM      9  N   UNL     1       0.511   9.221  18.045  0.00  0.00    +0.000 N 
ATOM     10  C   UNL     1      -0.072  10.213  18.886  0.00  0.00    +0.000 A 
ATOM     11  C   UNL     1      -1.334  10.830  19.030  0.00  0.00    +0.000 A 
ATOM     12  C   UNL     1      -1.496  11.852  20.018  0.00  0.00    +0.000 A 
ATOM     13  C   UNL     1      -0.443  12.230  20.841  0.00  0.00    +0.000 A 
ATOM     14  C   UNL     1       0.760  11.533  20.780  0.00  0.00    +0.000 A 
ATOM     15  C   UNL     1       0.892  10.477  19.850  0.00  0.00    +0.000 A 
ATOM     16  C   UNL     1       2.799   7.680  18.444  0.00  0.00    +0.000 C 
ATOM     17  C   UNL     1       3.322   7.113  17.107  0.00  0.00    +0.000 C 
ATOM     18  H   UNL     1       0.020   8.769  17.289  0.00  0.00    +0.000 HD
ENDROOT
BRANCH   1  20
ATOM     19  C   UNL     1       5.386   5.284  19.211  0.00  0.00    +0.000 C 
ATOM     20  N   UNL     1       5.210   5.313  17.753  0.00  0.00    +0.000 N 
ATOM     21  C   UNL     1       6.334   4.730  17.086  0.00  0.00    +0.000 C 
ATOM     22  O   UNL     1       7.302   4.296  17.737  0.00  0.00    +0.000 OA
BRANCH  21  23
ATOM     23  C   UNL     1       6.524   4.605  15.605  0.00  0.00    +0.000 A 
ATOM     24  C   UNL     1       7.561   5.375  15.031  0.00  0.00    +0.000 A 
ATOM     25  C   UNL     1       7.860   5.300  13.666  0.00  0.00    +0.000 A 
ATOM     26  C   UNL     1       7.126   4.453  12.846  0.00  0.00    +0.000 A 
ATOM     27  C   UNL     1       6.137   3.648  13.404  0.00  0.00    +0.000 A 
ATOM     28  C   UNL     1       5.865   3.699  14.777  0.00  0.00    +0.000 A 
ENDBRANCH  21  23
ENDBRANCH   1  20
TORSDOF 2
ENDMDL
MODEL 3
REMARK VINA RESULT:      -7.2      4.027     10.048
REMARK  Name = 
REMARK  3 active torsions:
REMARK  status: ('A' for Active; 'I' for Inactive)
REMARK    1  A    between atoms: C_1  and  N_2
REMARK    2  A    between atoms: N_2  and  C_11
REMARK    3  A    between atoms: C_3  and  C_5
REMARK                            x       y       z     vdW  Elec       q    Type
REMARK                         _______ _______ _______ _____ _____    ______ ____
ROOT
ATOM      1  C   UNL     1      -0.399  10.655  21.006  0.00  0.00    +0.000 C 
ATOM      2  C   UNL     1      -0.974  10.506  19.569  0.00  0.00    +0.000 C 
ATOM      3  C   UNL     1      -0.194   9.526  18.680  0.00  0.00    +0.000 C 
ATOM      4  N   UNL     1       1.186   9.524  19.108  0.00  0.00    +0.000 NA
ATOM      5  C   UNL     1       2.221   9.268  18.095  0.00  0.00    +0.000 C 
ATOM      6  C   UNL     1       2.576   7.803  17.894  0.00  0.00    +0.000 C 
ATOM      7  C   UNL     1       2.851   7.176  19.246  0.00  0.00    +0.000 A 
ATOM      8  C   UNL     1       1.828   7.363  20.163  0.00  0.00    +0.000 A 
ATOM      9  N   UNL     1       1.254   6.073  20.044  0.00  0.00    +0.000 N 
ATOM     10  C   UNL     1       2.233   5.181  19.520  0.00  0.00    +0.000 A 
ATOM     11  C   UNL     1       2.254   3.882  18.965  0.00  0.00    +0.000 A 
ATOM     12  C   UNL     1       3.509   3.312  18.583  0.00  0.00    +0.000 A 
ATOM     13  C   UNL     1       4.695   4.020  18.733  0.00  0.00    +0.000 A 
ATOM     14  C   UNL     1       4.655   5.343  19.162  0.00  0.00    +0.000 A 
ATOM     15  C   UNL     1       3.406   5.924  19.472  0.00  0.00    +0.000 A 
ATOM     16  C   UNL     1       1.378   8.834  20.400  0.00  0.00    +0.000 C 
ATOM     17  C   UNL     1       0.323   9.307  21.423  0.00  0.00    +0.000 C 
ATOM     18  H   UNL     1       0.275   5.842  20.129  0.00  0.00    +0.000 HD
ENDROOT
BRANCH   1  20
ATOM     19  C   UNL     1       1.482  12.317  20.472  0.00  0.00    +0.000 C 
ATOM     20  N   UNL     1       0.293  11.990  21.271  0.00  0.00    +0.000 N 
ATOM     21  C   UNL     1      -0.205  13.146  21.951  0.00  0.00    +0.000 C 
ATOM     22  O   UNL     1       0.370  14.245  21.837  0.00  0.00    +0.000 OA
BRANCH  21  23
ATOM     23  C   UNL     1      -1.383  13.196  22.875  0.00  0.00    +0.000 A 
ATOM     24  C   UNL     1      -1.505  14.348  23.685  0.00  0.00    +0.000 A 
ATOM     25  C   UNL     1      -2.592  14.524  24.549  0.00  0.00    +0.000 A 
ATOM     26  C   UNL     1      -3.580  13.551  24.621  0.00  0.00    +0.000 A 
ATOM     27  C   UNL     1      -3.504  12.436  23.790  0.00  0.00    +0.000 A 
ATOM     28  C   UNL     1      -2.433  12.280  22.900  0.00  0.00    +0.000 A 
ENDBRANCH  21  23
ENDBRANCH   1  20
TORSDOF 2
ENDMDL
MODEL 4
REMARK VINA RESULT:      -7.2      3.890      8.730
REMARK  Name = 
REMARK  3 active torsions:
REMARK  status: ('A' for Active; 'I' for Inactive)
REMARK    1  A    between atoms: C_1  and  N_2
REMARK    2  A    between atoms: N_2  and  C_11
REMARK    3  A    between atoms: C_3  and  C_5
REMARK                            x       y       z     vdW  Elec       q    Type
REMARK                         _______ _______ _______ _____ _____    ______ ____
ROOT
ATOM      1  C   UNL     1      -0.690  12.260  19.398  0.00  0.00    +0.000 C 
ATOM      2  C   UNL     1       0.308  12.394  20.583  0.00  0.00    +0.000 C 
ATOM      3  C   UNL     1       1.179  11.150  20.812  0.00  0.00    +0.000 C 
ATOM      4  N   UNL     1       0.436   9.989  20.380  0.00  0.00    +0.000 NA
ATOM      5  C   UNL     1       0.684   8.716  21.074  0.00  0.00    +0.000 C 
ATOM      6  C   UNL     1       1.801   7.869  20.484  0.00  0.00    +0.000 C 
ATOM      7  C   UNL     1       1.580   7.740  18.990  0.00  0.00    +0.000 A 
ATOM      8  C   UNL     1       1.426   8.956  18.344  0.00  0.00    +0.000 A 
ATOM      9  N   UNL     1       2.739   9.037  17.815  0.00  0.00    +0.000 N 
ATOM     10  C   UNL     1       3.295   7.726  17.766  0.00  0.00    +0.000 A 
ATOM     11  C   UNL     1       4.573   7.155  17.580  0.00  0.00    +0.000 A 
ATOM     12  C   UNL     1       4.698   5.730  17.561  0.00  0.00    +0.000 A 
ATOM     13  C   UNL     1       3.592   4.908  17.739  0.00  0.00    +0.000 A 
ATOM     14  C   UNL     1       2.358   5.475  18.047  0.00  0.00    +0.000 A 
ATOM     15  C   UNL     1       2.255   6.881  18.133  0.00  0.00    +0.000 A 
ATOM     16  C   UNL     1       0.326   9.900  18.911  0.00  0.00    +0.000 C 
ATOM     17  C   UNL     1      -0.092  11.264  18.320  0.00  0.00    +0.000 C 
ATOM     18  H   UNL     1       3.276   9.879  17.669  0.00  0.00    +0.000 HD
ENDROOT
BRANCH   1  20
ATOM     19  C   UNL     1      -2.550  12.697  21.111  0.00  0.00    +0.000 C 
ATOM     20  N   UNL     1      -2.151  12.122  19.819  0.00  0.00    +0.000 N 
ATOM     21  C   UNL     1      -3.295  11.805  19.020  0.00  0.00    +0.000 C 
ATOM     22  O   UNL     1      -4.445  12.007  19.452  0.00  0.00    +0.000 OA
BRANCH  21  23
ATOM     23  C   UNL     1      -3.284  11.182  17.657  0.00  0.00    +0.000 A 
ATOM     24  C   UNL     1      -2.761   9.873  17.563  0.00  0.00    +0.000 A 
ATOM     25  C   UNL     1      -2.747   9.176  16.349  0.00  0.00    +0.000 A 
ATOM     26  C   UNL     1      -3.254   9.775  15.204  0.00  0.00    +0.000 A 
ATOM     27  C   UNL     1      -3.822  11.043  15.290  0.00  0.00    +0.000 A 
ATOM     28  C   UNL     1      -3.867  11.724  16.514  0.00  0.00    +0.000 A 
ENDBRANCH  21  23
ENDBRANCH   1  20
TORSDOF 2
ENDMDL
MODEL 5
REMARK VINA RESULT:      -7.1      6.981     12.041
REMARK  Name = 
REMARK  3 active torsions:
REMARK  status: ('A' for Active; 'I' for Inactive)
REMARK    1  A    between atoms: C_1  and  N_2
REMARK    2  A    between atoms: N_2  and  C_11
REMARK    3  A    between atoms: C_3  and  C_5
REMARK                            x       y       z     vdW  Elec       q    Type
REMARK                         _______ _______ _______ _____ _____    ______ ____
ROOT
ATOM      1  C   UNL     1      -4.725  14.024  22.554  0.00  0.00    +0.000 C 
ATOM      2  C   UNL     1      -3.635  14.334  23.619  0.00  0.00    +0.000 C 
ATOM      3  C   UNL     1      -2.273  13.687  23.330  0.00  0.00    +0.000 C 
ATOM      4  N   UNL     1      -2.498  12.465  22.593  0.00  0.00    +0.000 NA
ATOM      5  C   UNL     1      -1.544  11.361  22.783  0.00  0.00    +0.000 C 
ATOM      6  C   UNL     1      -0.349  11.376  21.841  0.00  0.00    +0.000 C 
ATOM      7  C   UNL     1      -0.849  11.539  20.419  0.00  0.00    +0.000 A 
ATOM      8  C   UNL     1      -1.685  12.631  20.247  0.00  0.00    +0.000 A 
ATOM      9  N   UNL     1      -0.722  13.493  19.664  0.00  0.00    +0.000 N 
ATOM     10  C   UNL     1       0.331  12.703  19.118  0.00  0.00    +0.000 A 
ATOM     11  C   UNL     1       1.640  12.923  18.635  0.00  0.00    +0.000 A 
ATOM     12  C   UNL     1       2.381  11.814  18.117  0.00  0.00    +0.000 A 
ATOM     13  C   UNL     1       1.841  10.534  18.099  0.00  0.00    +0.000 A 
ATOM     14  C   UNL     1       0.603  10.303  18.691  0.00  0.00    +0.000 A 
ATOM     15  C   UNL     1      -0.094  11.389  19.264  0.00  0.00    +0.000 A 
ATOM     16  C   UNL     1      -2.914  12.712  21.198  0.00  0.00    +0.000 C 
ATOM     17  C   UNL     1      -4.029  13.779  21.151  0.00  0.00    +0.000 C 
ATOM     18  H   UNL     1      -0.674  14.496  19.769  0.00  0.00    +0.000 HD
ENDROOT
BRANCH   1  20
ATOM     19  C   UNL     1      -5.912  12.798  24.471  0.00  0.00    +0.000 C 
ATOM     20  N   UNL     1      -5.815  13.067  23.029  0.00  0.00    +0.000 N 
ATOM     21  C   UNL     1      -6.989  12.622  22.342  0.00  0.00    +0.000 C 
ATOM     22  O   UNL     1      -7.916  12.072  22.964  0.00  0.00    +0.000 OA
BRANCH  21  23
ATOM     23  C   UNL     1      -7.241  12.705  20.867  0.00  0.00    +0.000 A 
ATOM     24  C   UNL     1      -7.694  13.947  20.370  0.00  0.00    +0.000 A 
ATOM     25  C   UNL     1      -7.914  14.153  19.003  0.00  0.00    +0.000 A 
ATOM     26  C   UNL     1      -7.687  13.118  18.105  0.00  0.00    +0.000 A 
ATOM     27  C   UNL     1      -7.190  11.905  18.572  0.00  0.00    +0.000 A 
ATOM     28  C   UNL     1      -6.936  11.714  19.937  0.00  0.00    +0.000 A 
ENDBRANCH  21  23
ENDBRANCH   1  20
TORSDOF 2
ENDMDL
MODEL 6
REMARK VINA RESULT:      -6.9      3.888      9.831
REMARK  Name = 
REMARK  3 active torsions:
REMARK  status: ('A' for Active; 'I' for Inactive)
REMARK    1  A    between atoms: C_1  and  N_2
REMARK    2  A    between atoms: N_2  and  C_11
REMARK    3  A    between atoms: C_3  and  C_5
REMARK                            x       y       z     vdW  Elec       q    Type
REMARK                         _______ _______ _______ _____ _____    ______ ____
ROOT
ATOM      1  C   UNL     1      -0.482  10.295  20.540  0.00  0.00    +0.000 C 
ATOM      2  C   UNL     1      -0.869  10.174  19.040  0.00  0.00    +0.000 C 
ATOM      3  C   UNL     1       0.063   9.269  18.222  0.00  0.00    +0.000 C 
ATOM      4  N   UNL     1       1.379   9.316  18.817  0.00  0.00    +0.000 NA
ATOM      5  C   UNL     1       2.541   9.151  17.931  0.00  0.00    +0.000 C 
ATOM      6  C   UNL     1       2.995   7.714  17.728  0.00  0.00    +0.000 C 
ATOM      7  C   UNL     1       3.136   7.049  19.083  0.00  0.00    +0.000 A 
ATOM      8  C   UNL     1       2.001   7.150  19.872  0.00  0.00    +0.000 A 
ATOM      9  N   UNL     1       1.515   5.839  19.641  0.00  0.00    +0.000 N 
ATOM     10  C   UNL     1       2.597   5.016  19.213  0.00  0.00    +0.000 A 
ATOM     11  C   UNL     1       2.753   3.743  18.623  0.00  0.00    +0.000 A 
ATOM     12  C   UNL     1       4.073   3.250  18.381  0.00  0.00    +0.000 A 
ATOM     13  C   UNL     1       5.193   4.008  18.699  0.00  0.00    +0.000 A 
ATOM     14  C   UNL     1       5.032   5.310  19.163  0.00  0.00    +0.000 A 
ATOM     15  C   UNL     1       3.725   5.817  19.334  0.00  0.00    +0.000 A 
ATOM     16  C   UNL     1       1.449   8.588  20.099  0.00  0.00    +0.000 C 
ATOM     17  C   UNL     1       0.254   8.968  20.999  0.00  0.00    +0.000 C 
ATOM     18  H   UNL     1       0.546   5.558  19.596  0.00  0.00    +0.000 HD
ENDROOT
BRANCH   1  20
ATOM     19  C   UNL     1       1.470  11.960  20.498  0.00  0.00    +0.000 C 
ATOM     20  N   UNL     1       0.101  11.650  20.932  0.00  0.00    +0.000 N 
ATOM     21  C   UNL     1      -0.575  12.828  21.384  0.00  0.00    +0.000 C 
ATOM     22  O   UNL     1       0.006  13.929  21.391  0.00  0.00    +0.000 OA
BRANCH  21  23
ATOM     23  C   UNL     1      -1.971  12.901  21.923  0.00  0.00    +0.000 A 
ATOM     24  C   UNL     1      -2.196  12.304  23.184  0.00  0.00    +0.000 A 
ATOM     25  C   UNL     1      -3.448  12.355  23.806  0.00  0.00    +0.000 A 
ATOM     26  C   UNL     1      -4.503  13.005  23.179  0.00  0.00    +0.000 A 
ATOM     27  C   UNL     1      -4.285  13.645  21.962  0.00  0.00    +0.000 A 
ATOM     28  C   UNL     1      -3.021  13.623  21.359  0.00  0.00    +0.000 A 
ENDBRANCH  21  23
ENDBRANCH   1  20
TORSDOF 2
ENDMDL
MODEL 7
REMARK VINA RESULT:      -6.9      7.983     10.359
REMARK  Name = 
REMARK  3 active torsions:
REMARK  status: ('A' for Active; 'I' for Inactive)
REMARK    1  A    between atoms: C_1  and  N_2
REMARK    2  A    between atoms: N_2  and  C_11
REMARK    3  A    between atoms: C_3  and  C_5
REMARK                            x       y       z     vdW  Elec       q    Type
REMARK                         _______ _______ _______ _____ _____    ______ ____
ROOT
ATOM      1  C   UNL     1       2.595  15.049  19.727  0.00  0.00    +0.000 C 
ATOM      2  C   UNL     1       2.989  13.807  20.575  0.00  0.00    +0.000 C 
ATOM      3  C   UNL     1       1.860  12.780  20.746  0.00  0.00    +0.000 C 
ATOM      4  N   UNL     1       0.597  13.481  20.699  0.00  0.00    +0.000 NA
ATOM      5  C   UNL     1      -0.522  12.936  21.481  0.00  0.00    +0.000 C 
ATOM      6  C   UNL     1      -1.383  11.918  20.747  0.00  0.00    +0.000 C 
ATOM      7  C   UNL     1      -1.775  12.490  19.399  0.00  0.00    +0.000 A 
ATOM      8  C   UNL     1      -0.697  12.927  18.646  0.00  0.00    +0.000 A 
ATOM      9  N   UNL     1      -0.622  11.804  17.786  0.00  0.00    +0.000 N 
ATOM     10  C   UNL     1      -1.884  11.142  17.783  0.00  0.00    +0.000 A 
ATOM     11  C   UNL     1      -2.396   9.898  17.353  0.00  0.00    +0.000 A 
ATOM     12  C   UNL     1      -3.792   9.632  17.510  0.00  0.00    +0.000 A 
ATOM     13  C   UNL     1      -4.641  10.567  18.089  0.00  0.00    +0.000 A 
ATOM     14  C   UNL     1      -4.111  11.737  18.625  0.00  0.00    +0.000 A 
ATOM     15  C   UNL     1      -2.720  11.963  18.530  0.00  0.00    +0.000 A 
ATOM     16  C   UNL     1       0.256  13.945  19.339  0.00  0.00    +0.000 C 
ATOM     17  C   UNL     1       1.472  14.637  18.687  0.00  0.00    +0.000 C 
ATOM     18  H   UNL     1       0.216  11.412  17.382  0.00  0.00    +0.000 HD
ENDROOT
BRANCH   1  20
ATOM     19  C   UNL     1       3.150  16.437  21.813  0.00  0.00    +0.000 C 
ATOM     20  N   UNL     1       2.435  16.336  20.533  0.00  0.00    +0.000 N 
ATOM     21  C   UNL     1       1.960  17.616  20.105  0.00  0.00    +0.000 C 
ATOM     22  O   UNL     1       2.155  18.630  20.801  0.00  0.00    +0.000 OA
BRANCH  21  23
ATOM     23  C   UNL     1       1.169  17.903  18.865  0.00  0.00    +0.000 A 
ATOM     24  C   UNL     1      -0.224  18.081  19.028  0.00  0.00    +0.000 A 
ATOM     25  C   UNL     1      -1.053  18.402  17.947  0.00  0.00    +0.000 A 
ATOM     26  C   UNL     1      -0.506  18.550  16.680  0.00  0.00    +0.000 A 
ATOM     27  C   UNL     1       0.871  18.432  16.511  0.00  0.00    +0.000 A 
ATOM     28  C   UNL     1       1.703  18.146  17.602  0.00  0.00    +0.000 A 
ENDBRANCH  21  23
ENDBRANCH   1  20
TORSDOF 2
ENDMDL
MODEL 8
REMARK VINA RESULT:      -6.9      7.688     10.063
REMARK  Name = 
REMARK  3 active torsions:
REMARK  status: ('A' for Active; 'I' for Inactive)
REMARK    1  A    between atoms: C_1  and  N_2
REMARK    2  A    between atoms: N_2  and  C_11
REMARK    3  A    between atoms: C_3  and  C_5
REMARK                            x       y       z     vdW  Elec       q    Type
REMARK                         _______ _______ _______ _____ _____    ______ ____
ROOT
ATOM      1  C   UNL     1       1.142  13.655  18.873  0.00  0.00    +0.000 C 
ATOM      2  C   UNL     1       1.287  12.183  19.351  0.00  0.00    +0.000 C 
ATOM      3  C   UNL     1       0.138  11.698  20.247  0.00  0.00    +0.000 C 
ATOM      4  N   UNL     1      -0.389  12.835  20.965  0.00  0.00    +0.000 NA
ATOM      5  C   UNL     1      -0.951  12.603  22.304  0.00  0.00    +0.000 C 
ATOM      6  C   UNL     1      -2.432  12.259  22.329  0.00  0.00    +0.000 C 
ATOM      7  C   UNL     1      -3.185  13.280  21.498  0.00  0.00    +0.000 A 
ATOM      8  C   UNL     1      -2.687  13.426  20.213  0.00  0.00    +0.000 A 
ATOM      9  N   UNL     1      -3.671  12.645  19.557  0.00  0.00    +0.000 N 
ATOM     10  C   UNL     1      -4.830  12.580  20.383  0.00  0.00    +0.000 A 
ATOM     11  C   UNL     1      -6.016  11.815  20.436  0.00  0.00    +0.000 A 
ATOM     12  C   UNL     1      -6.983  12.108  21.449  0.00  0.00    +0.000 A 
ATOM     13  C   UNL     1      -6.765  13.114  22.382  0.00  0.00    +0.000 A 
ATOM     14  C   UNL     1      -5.542  13.778  22.403  0.00  0.00    +0.000 A 
ATOM     15  C   UNL     1      -4.563  13.436  21.444  0.00  0.00    +0.000 A 
ATOM     16  C   UNL     1      -1.167  13.743  20.098  0.00  0.00    +0.000 C 
ATOM     17  C   UNL     1      -0.396  14.029  18.792  0.00  0.00    +0.000 C 
ATOM     18  H   UNL     1      -3.533  12.070  18.739  0.00  0.00    +0.000 HD
ENDROOT
BRANCH   1  20
ATOM     19  C   UNL     1       3.122  14.077  20.450  0.00  0.00    +0.000 C 
ATOM     20  N   UNL     1       2.117  14.628  19.530  0.00  0.00    +0.000 N 
ATOM     21  C   UNL     1       2.442  15.971  19.158  0.00  0.00    +0.000 C 
ATOM     22  O   UNL     1       3.456  16.529  19.618  0.00  0.00    +0.000 OA
BRANCH  21  23
ATOM     23  C   UNL     1       1.642  16.863  18.258  0.00  0.00    +0.000 A 
ATOM     24  C   UNL     1       0.378  17.276  18.736  0.00  0.00    +0.000 A 
ATOM     25  C   UNL     1      -0.434  18.149  18.002  0.00  0.00    +0.000 A 
ATOM     26  C   UNL     1       0.003  18.626  16.773  0.00  0.00    +0.000 A 
ATOM     27  C   UNL     1       1.268  18.272  16.313  0.00  0.00    +0.000 A 
ATOM     28  C   UNL     1       2.093  17.427  17.067  0.00  0.00    +0.000 A 
ENDBRANCH  21  23
ENDBRANCH   1  20
TORSDOF 2
ENDMDL
MODEL 9
REMARK VINA RESULT:      -6.7      3.903      6.212
REMARK  Name = 
REMARK  3 active torsions:
REMARK  status: ('A' for Active; 'I' for Inactive)
REMARK    1  A    between atoms: C_1  and  N_2
REMARK    2  A    between atoms: N_2  and  C_11
REMARK    3  A    between atoms: C_3  and  C_5
REMARK                            x       y       z     vdW  Elec       q    Type
REMARK                         _______ _______ _______ _____ _____    ______ ____
ROOT
ATOM      1  C   UNL     1       0.530   9.019  19.400  0.00  0.00    +0.000 C 
ATOM      2  C   UNL     1       0.935   9.158  20.894  0.00  0.00    +0.000 C 
ATOM      3  C   UNL     1       0.887  10.598  21.426  0.00  0.00    +0.000 C 
ATOM      4  N   UNL     1       1.156  11.497  20.328  0.00  0.00    +0.000 NA
ATOM      5  C   UNL     1       1.832  12.768  20.628  0.00  0.00    +0.000 C 
ATOM      6  C   UNL     1       0.905  13.922  20.975  0.00  0.00    +0.000 C 
ATOM      7  C   UNL     1      -0.175  14.018  19.916  0.00  0.00    +0.000 A 
ATOM      8  C   UNL     1      -0.852  12.828  19.704  0.00  0.00    +0.000 A 
ATOM      9  N   UNL     1      -2.010  13.154  20.452  0.00  0.00    +0.000 N 
ATOM     10  C   UNL     1      -2.103  14.571  20.561  0.00  0.00    +0.000 A 
ATOM     11  C   UNL     1      -2.838  15.500  21.329  0.00  0.00    +0.000 A 
ATOM     12  C   UNL     1      -2.651  16.898  21.090  0.00  0.00    +0.000 A 
ATOM     13  C   UNL     1      -1.751  17.350  20.133  0.00  0.00    +0.000 A 
ATOM     14  C   UNL     1      -0.939  16.435  19.468  0.00  0.00    +0.000 A 
ATOM     15  C   UNL     1      -1.079  15.060  19.759  0.00  0.00    +0.000 A 
ATOM     16  C   UNL     1       0.029  11.586  19.379  0.00  0.00    +0.000 C 
ATOM     17  C   UNL     1      -0.488  10.175  19.025  0.00  0.00    +0.000 C 
ATOM     18  H   UNL     1      -2.580  12.513  20.984  0.00  0.00    +0.000 HD
ENDROOT
BRANCH   1  20
ATOM     19  C   UNL     1       2.346   9.835  17.781  0.00  0.00    +0.000 C 
ATOM     20  N   UNL     1       1.691   8.708  18.460  0.00  0.00    +0.000 N 
ATOM     21  C   UNL     1       2.481   7.518  18.363  0.00  0.00    +0.000 C 
ATOM     22  O   UNL     1       3.564   7.525  17.747  0.00  0.00    +0.000 OA
BRANCH  21  23
ATOM     23  C   UNL     1       2.127   6.168  18.909  0.00  0.00    +0.000 A 
ATOM     24  C   UNL     1       1.918   5.137  17.965  0.00  0.00    +0.000 A 
ATOM     25  C   UNL     1       1.632   3.827  18.364  0.00  0.00    +0.000 A 
ATOM     26  C   UNL     1       1.549   3.520  19.715  0.00  0.00    +0.000 A 
ATOM     27  C   UNL     1       1.805   4.511  20.658  0.00  0.00    +0.000 A 
ATOM     28  C   UNL     1       2.127   5.814  20.256  0.00  0.00    +0.000 A 
ENDBRANCH  21  23
ENDBRANCH   1  20
TORSDOF 2
ENDMDL
