MODEL 1
REMARK VINA RESULT:      -8.6      0.000      0.000
REMARK  Name = 
REMARK  4 active torsions:
REMARK  status: ('A' for Active; 'I' for Inactive)
REMARK    1  A    between atoms: C_2  and  C_18
REMARK    2  A    between atoms: N_3  and  C_4
REMARK    3  A    between atoms: C_4  and  C_5
REMARK    4  A    between atoms: C_5  and  C_6
REMARK                            x       y       z     vdW  Elec       q    Type
REMARK                         _______ _______ _______ _____ _____    ______ ____
ROOT
ATOM      1  C   UNL     1       2.155   5.199  19.478  0.00  0.00    +0.000 C 
ATOM      2  C   UNL     1       2.145   4.691  17.998  0.00  0.00    +0.000 C 
ATOM      3  C   UNL     1       2.167   3.166  17.835  0.00  0.00    +0.000 C 
ATOM      4  C   UNL     1       1.073   2.479  18.638  0.00  0.00    +0.000 C 
ATOM      5  C   UNL     1       1.092   2.916  20.093  0.00  0.00    +0.000 C 
ATOM      6  C   UNL     1       1.018   4.432  20.220  0.00  0.00    +0.000 C 
ENDROOT
BRANCH   1   7
ATOM      7  C   UNL     1       1.902   6.738  19.541  0.00  0.00    +0.000 A 
ATOM      8  C   UNL     1       1.435   7.370  20.713  0.00  0.00    +0.000 A 
ATOM      9  C   UNL     1       1.170   8.748  20.744  0.00  0.00    +0.000 A 
ATOM     10  C   UNL     1       1.347   9.526  19.606  0.00  0.00    +0.000 A 
ATOM     11  C   UNL     1       1.804   8.921  18.448  0.00  0.00    +0.000 A 
ATOM     12  F   UNL     1       1.967   9.652  17.338  0.00  0.00    +0.000 F 
ATOM     13  C   UNL     1       2.084   7.557  18.413  0.00  0.00    +0.000 A 
ENDBRANCH   1   7
BRANCH   1  14
ATOM     14  C   UNL     1       3.556   4.904  20.130  0.00  0.00    +0.000 C 
BRANCH  14  17
ATOM     15  O   UNL     1       5.865   3.633  19.014  0.00  0.00    +0.000 OA
ATOM     16  C   UNL     1       5.725   4.841  18.870  0.00  0.00    +0.000 C 
ATOM     17  N   UNL     1       4.671   5.536  19.431  0.00  0.00    +0.000 N 
ATOM     18  H   UNL     1       4.597   6.522  19.216  0.00  0.00    +0.000 HD
BRANCH  16  19
ATOM     19  C   UNL     1       6.625   5.719  17.979  0.00  0.00    +0.000 C 
ATOM     20  C   UNL     1       5.843   6.836  17.278  0.00  0.00    +0.000 C 
ATOM     21  C   UNL     1       5.046   6.323  16.079  0.00  0.00    +0.000 C 
ATOM     22  N   UNL     1       5.897   5.607  15.126  0.00  0.00    +0.000 NA
ATOM     23  C   UNL     1       6.563   4.475  15.766  0.00  0.00    +0.000 C 
ATOM     24  C   UNL     1       7.431   4.928  16.938  0.00  0.00    +0.000 C 
ATOM     25  H   UNL     1       6.596   6.249  14.753  0.00  0.00    +0.000 HD
ENDBRANCH  16  19
ENDBRANCH  14  17
ENDBRANCH   1  14
TORSDOF 4
ENDMDL
MODEL 2
REMARK VINA RESULT:      -8.4      0.898      1.340
REMARK  Name = 
REMARK  4 active torsions:
REMARK  status: ('A' for Active; 'I' for Inactive)
REMARK    1  A    between atoms: C_2  and  C_18
REMARK    2  A    between atoms: N_3  and  C_4
REMARK    3  A    between atoms: C_4  and  C_5
REMARK    4  A    between atoms: C_5  and  C_6
REMARK                            x       y       z     vdW  Elec       q    Type
REMARK                         _______ _______ _______ _____ _____    ______ ____
ROOT
ATOM      1  C   UNL     1       2.247   5.256  19.292  0.00  0.00    +0.000 C 
ATOM      2  C   UNL     1       2.306   4.566  17.889  0.00  0.00    +0.000 C 
ATOM      3  C   UNL     1       2.329   3.033  17.922  0.00  0.00    +0.000 C 
ATOM      4  C   UNL     1       1.194   2.451  18.752  0.00  0.00    +0.000 C 
ATOM      5  C   UNL     1       1.145   3.068  20.138  0.00  0.00    +0.000 C 
ATOM      6  C   UNL     1       1.072   4.588  20.069  0.00  0.00    +0.000 C 
ENDROOT
BRANCH   1   7
ATOM      7  C   UNL     1       1.999   6.791  19.148  0.00  0.00    +0.000 A 
ATOM      8  C   UNL     1       2.208   7.470  17.929  0.00  0.00    +0.000 A 
ATOM      9  C   UNL     1       2.023   8.857  17.824  0.00  0.00    +0.000 A 
ATOM     10  C   UNL     1       1.643   9.604  18.933  0.00  0.00    +0.000 A 
ATOM     11  C   UNL     1       1.434   8.953  20.137  0.00  0.00    +0.000 A 
ATOM     12  F   UNL     1       1.081   9.658  21.220  0.00  0.00    +0.000 F 
ATOM     13  C   UNL     1       1.601   7.574  20.246  0.00  0.00    +0.000 A 
ENDBRANCH   1   7
BRANCH   1  14
ATOM     14  C   UNL     1       3.614   5.048  20.044  0.00  0.00    +0.000 C 
BRANCH  14  17
ATOM     15  O   UNL     1       5.832   3.609  18.949  0.00  0.00    +0.000 OA
ATOM     16  C   UNL     1       5.768   4.820  18.779  0.00  0.00    +0.000 C 
ATOM     17  N   UNL     1       4.763   5.593  19.328  0.00  0.00    +0.000 N 
ATOM     18  H   UNL     1       4.752   6.576  19.092  0.00  0.00    +0.000 HD
BRANCH  16  19
ATOM     19  C   UNL     1       6.719   5.619  17.867  0.00  0.00    +0.000 C 
ATOM     20  C   UNL     1       6.009   6.775  17.150  0.00  0.00    +0.000 C 
ATOM     21  C   UNL     1       5.169   6.295  15.966  0.00  0.00    +0.000 C 
ATOM     22  N   UNL     1       5.963   5.506  15.021  0.00  0.00    +0.000 NA
ATOM     23  C   UNL     1       6.556   4.344  15.677  0.00  0.00    +0.000 C 
ATOM     24  C   UNL     1       7.462   4.758  16.835  0.00  0.00    +0.000 C 
ATOM     25  H   UNL     1       6.701   6.093  14.632  0.00  0.00    +0.000 HD
ENDBRANCH  16  19
ENDBRANCH  14  17
ENDBRANCH   1  14
TORSDOF 4
ENDMDL
MODEL 3
REMARK VINA RESULT:      -8.2      2.978      6.967
REMARK  Name = 
REMARK  4 active torsions:
REMARK  status: ('A' for Active; 'I' for Inactive)
REMARK    1  A    between atoms: C_2  and  C_18
REMARK    2  A    between atoms: N_3  and  C_4
REMARK    3  A    between atoms: C_4  and  C_5
REMARK    4  A    between atoms: C_5  and  C_6
REMARK                            x       y       z     vdW  Elec       q    Type
REMARK                         _______ _______ _______ _____ _____    ______ ____
ROOT
ATOM      1  C   UNL     1       6.128   4.632  15.922  0.00  0.00    +0.000 C 
ATOM      2  C   UNL     1       5.397   5.998  16.138  0.00  0.00    +0.000 C 
ATOM      3  C   UNL     1       5.255   6.434  17.601  0.00  0.00    +0.000 C 
ATOM      4  C   UNL     1       6.584   6.423  18.343  0.00  0.00    +0.000 C 
ATOM      5  C   UNL     1       7.293   5.088  18.193  0.00  0.00    +0.000 C 
ATOM      6  C   UNL     1       7.462   4.709  16.728  0.00  0.00    +0.000 C 
ENDROOT
BRANCH   1   7
ATOM      7  C   UNL     1       6.422   4.389  14.409  0.00  0.00    +0.000 A 
ATOM      8  C   UNL     1       7.441   5.086  13.724  0.00  0.00    +0.000 A 
ATOM      9  C   UNL     1       7.666   4.890  12.353  0.00  0.00    +0.000 A 
ATOM     10  C   UNL     1       6.874   4.010  11.627  0.00  0.00    +0.000 A 
ATOM     11  C   UNL     1       5.870   3.318  12.283  0.00  0.00    +0.000 A 
ATOM     12  F   UNL     1       5.087   2.476  11.596  0.00  0.00    +0.000 F 
ATOM     13  C   UNL     1       5.649   3.495  13.647  0.00  0.00    +0.000 A 
ENDBRANCH   1   7
BRANCH   1  14
ATOM     14  C   UNL     1       5.221   3.456  16.441  0.00  0.00    +0.000 C 
BRANCH  14  17
ATOM     15  O   UNL     1       3.213   1.920  17.784  0.00  0.00    +0.000 OA
ATOM     16  C   UNL     1       2.977   3.088  17.501  0.00  0.00    +0.000 C 
ATOM     17  N   UNL     1       3.869   3.875  16.798  0.00  0.00    +0.000 N 
ATOM     18  H   UNL     1       3.621   4.845  16.656  0.00  0.00    +0.000 HD
BRANCH  16  19
ATOM     19  C   UNL     1       1.724   3.856  17.964  0.00  0.00    +0.000 C 
ATOM     20  C   UNL     1       2.072   5.181  18.655  0.00  0.00    +0.000 C 
ATOM     21  C   UNL     1       2.558   4.976  20.089  0.00  0.00    +0.000 C 
ATOM     22  N   UNL     1       1.597   4.212  20.887  0.00  0.00    +0.000 NA
ATOM     23  C   UNL     1       1.342   2.904  20.287  0.00  0.00    +0.000 C 
ATOM     24  C   UNL     1       0.791   3.038  18.869  0.00  0.00    +0.000 C 
ATOM     25  H   UNL     1       0.723   4.734  20.950  0.00  0.00    +0.000 HD
ENDBRANCH  16  19
ENDBRANCH  14  17
ENDBRANCH   1  14
TORSDOF 4
ENDMDL
MODEL 4
REMARK VINA RESULT:      -7.9      2.949      6.996
REMARK  Name = 
REMARK  4 active torsions:
REMARK  status: ('A' for Active; 'I' for Inactive)
REMARK    1  A    between atoms: C_2  and  C_18
REMARK    2  A    between atoms: N_3  and  C_4
REMARK    3  A    between atoms: C_4  and  C_5
REMARK    4  A    between atoms: C_5  and  C_6
REMARK                            x       y       z     vdW  Elec       q    Type
REMARK                         _______ _______ _______ _____ _____    ______ ____
ROOT
ATOM      1  C   UNL     1       6.087   4.993  15.735  0.00  0.00    +0.000 C 
ATOM      2  C   UNL     1       5.155   6.249  15.764  0.00  0.00    +0.000 C 
ATOM      3  C   UNL     1       4.986   6.899  17.142  0.00  0.00    +0.000 C 
ATOM      4  C   UNL     1       6.318   7.213  17.806  0.00  0.00    +0.000 C 
ATOM      5  C   UNL     1       7.225   5.995  17.837  0.00  0.00    +0.000 C 
ATOM      6  C   UNL     1       7.413   5.405  16.446  0.00  0.00    +0.000 C 
ENDROOT
BRANCH   1   7
ATOM      7  C   UNL     1       6.375   4.546  14.268  0.00  0.00    +0.000 A 
ATOM      8  C   UNL     1       7.446   5.081  13.520  0.00  0.00    +0.000 A 
ATOM      9  C   UNL     1       7.669   4.703  12.188  0.00  0.00    +0.000 A 
ATOM     10  C   UNL     1       6.821   3.798  11.561  0.00  0.00    +0.000 A 
ATOM     11  C   UNL     1       5.765   3.263  12.279  0.00  0.00    +0.000 A 
ATOM     12  F   UNL     1       4.930   2.400  11.687  0.00  0.00    +0.000 F 
ATOM     13  C   UNL     1       5.547   3.622  13.607  0.00  0.00    +0.000 A 
ENDBRANCH   1   7
BRANCH   1  14
ATOM     14  C   UNL     1       5.391   3.798  16.485  0.00  0.00    +0.000 C 
BRANCH  14  17
ATOM     15  O   UNL     1       4.518   3.885  19.209  0.00  0.00    +0.000 OA
ATOM     16  C   UNL     1       3.731   4.195  18.324  0.00  0.00    +0.000 C 
ATOM     17  N   UNL     1       4.057   4.118  16.983  0.00  0.00    +0.000 N 
ATOM     18  H   UNL     1       3.369   4.447  16.318  0.00  0.00    +0.000 HD
BRANCH  16  19
ATOM     19  C   UNL     1       2.335   4.795  18.576  0.00  0.00    +0.000 C 
ATOM     20  C   UNL     1       2.078   5.075  20.062  0.00  0.00    +0.000 C 
ATOM     21  C   UNL     1       1.745   3.805  20.843  0.00  0.00    +0.000 C 
ATOM     22  N   UNL     1       0.620   3.079  20.250  0.00  0.00    +0.000 NA
ATOM     23  C   UNL     1       0.904   2.717  18.863  0.00  0.00    +0.000 C 
ATOM     24  C   UNL     1       1.183   3.952  18.009  0.00  0.00    +0.000 C 
ATOM     25  H   UNL     1      -0.213   3.666  20.285  0.00  0.00    +0.000 HD
ENDBRANCH  16  19
ENDBRANCH  14  17
ENDBRANCH   1  14
TORSDOF 4
ENDMDL
MODEL 5
REMARK VINA RESULT:      -7.9      1.216      1.877
REMARK  Name = 
REMARK  4 active torsions:
REMARK  status: ('A' for Active; 'I' for Inactive)
REMARK    1  A    between atoms: C_2  and  C_18
REMARK    2  A    between atoms: N_3  and  C_4
REMARK    3  A    between atoms: C_4  and  C_5
REMARK    4  A    between atoms: C_5  and  C_6
REMARK                            x       y       z     vdW  Elec       q    Type
REMARK                         _______ _______ _______ _____ _____    ______ ____
ROOT
ATOM      1  C   UNL     1       2.095   5.479  19.437  0.00  0.00    +0.000 C 
ATOM      2  C   UNL     1       1.950   4.729  18.072  0.00  0.00    +0.000 C 
ATOM      3  C   UNL     1       1.949   3.199  18.169  0.00  0.00    +0.000 C 
ATOM      4  C   UNL     1       0.926   2.680  19.170  0.00  0.00    +0.000 C 
ATOM      5  C   UNL     1       1.078   3.356  20.521  0.00  0.00    +0.000 C 
ATOM      6  C   UNL     1       1.024   4.872  20.395  0.00  0.00    +0.000 C 
ENDROOT
BRANCH   1   7
ATOM      7  C   UNL     1       1.857   7.012  19.260  0.00  0.00    +0.000 A 
ATOM      8  C   UNL     1       2.111   7.671  18.038  0.00  0.00    +0.000 A 
ATOM      9  C   UNL     1       1.936   9.056  17.904  0.00  0.00    +0.000 A 
ATOM     10  C   UNL     1       1.519   9.822  18.987  0.00  0.00    +0.000 A 
ATOM     11  C   UNL     1       1.266   9.192  20.193  0.00  0.00    +0.000 A 
ATOM     12  F   UNL     1       0.878   9.915  21.251  0.00  0.00    +0.000 F 
ATOM     13  C   UNL     1       1.424   7.814  20.330  0.00  0.00    +0.000 A 
ENDBRANCH   1   7
BRANCH   1  14
ATOM     14  C   UNL     1       3.546   5.270  20.006  0.00  0.00    +0.000 C 
BRANCH  14  17
ATOM     15  O   UNL     1       5.485   3.251  19.409  0.00  0.00    +0.000 OA
ATOM     16  C   UNL     1       5.450   4.262  18.719  0.00  0.00    +0.000 C 
ATOM     17  N   UNL     1       4.586   5.308  18.982  0.00  0.00    +0.000 N 
ATOM     18  H   UNL     1       4.581   6.081  18.330  0.00  0.00    +0.000 HD
BRANCH  16  19
ATOM     19  C   UNL     1       6.273   4.463  17.432  0.00  0.00    +0.000 C 
ATOM     20  C   UNL     1       7.661   5.055  17.712  0.00  0.00    +0.000 C 
ATOM     21  C   UNL     1       7.606   6.556  17.991  0.00  0.00    +0.000 C 
ATOM     22  N   UNL     1       6.938   7.287  16.911  0.00  0.00    +0.000 NA
ATOM     23  C   UNL     1       5.576   6.796  16.712  0.00  0.00    +0.000 C 
ATOM     24  C   UNL     1       5.563   5.309  16.366  0.00  0.00    +0.000 C 
ATOM     25  H   UNL     1       7.471   7.172  16.049  0.00  0.00    +0.000 HD
ENDBRANCH  16  19
ENDBRANCH  14  17
ENDBRANCH   1  14
TORSDOF 4
ENDMDL
MODEL 6
REMARK VINA RESULT:      -7.9      3.189      6.883
REMARK  Name = 
REMARK  4 active torsions:
REMARK  status: ('A' for Active; 'I' for Inactive)
REMARK    1  A    between atoms: C_2  and  C_18
REMARK    2  A    between atoms: N_3  and  C_4
REMARK    3  A    between atoms: C_4  and  C_5
REMARK    4  A    between atoms: C_5  and  C_6
REMARK                            x       y       z     vdW  Elec       q    Type
REMARK                         _______ _______ _______ _____ _____    ______ ____
ROOT
ATOM      1  C   UNL     1       6.503   5.462  16.094  0.00  0.00    +0.000 C 
ATOM      2  C   UNL     1       7.377   6.724  16.395  0.00  0.00    +0.000 C 
ATOM      3  C   UNL     1       7.396   7.165  17.863  0.00  0.00    +0.000 C 
ATOM      4  C   UNL     1       7.763   6.030  18.807  0.00  0.00    +0.000 C 
ATOM      5  C   UNL     1       6.895   4.807  18.571  0.00  0.00    +0.000 C 
ATOM      6  C   UNL     1       6.938   4.365  17.115  0.00  0.00    +0.000 C 
ENDROOT
BRANCH   1   7
ATOM      7  C   UNL     1       6.729   4.962  14.632  0.00  0.00    +0.000 A 
ATOM      8  C   UNL     1       7.693   5.546  13.784  0.00  0.00    +0.000 A 
ATOM      9  C   UNL     1       7.856   5.117  12.458  0.00  0.00    +0.000 A 
ATOM     10  C   UNL     1       7.053   4.109  11.939  0.00  0.00    +0.000 A 
ATOM     11  C   UNL     1       6.101   3.526  12.758  0.00  0.00    +0.000 A 
ATOM     12  F   UNL     1       5.308   2.563  12.271  0.00  0.00    +0.000 F 
ATOM     13  C   UNL     1       5.943   3.936  14.080  0.00  0.00    +0.000 A 
ENDBRANCH   1   7
BRANCH   1  14
ATOM     14  C   UNL     1       4.980   5.818  16.261  0.00  0.00    +0.000 C 
BRANCH  14  17
ATOM     15  O   UNL     1       2.801   6.164  18.085  0.00  0.00    +0.000 OA
ATOM     16  C   UNL     1       3.127   5.030  17.758  0.00  0.00    +0.000 C 
ATOM     17  N   UNL     1       4.207   4.779  16.933  0.00  0.00    +0.000 N 
ATOM     18  H   UNL     1       4.374   3.817  16.666  0.00  0.00    +0.000 HD
BRANCH  16  19
ATOM     19  C   UNL     1       2.339   3.760  18.131  0.00  0.00    +0.000 C 
ATOM     20  C   UNL     1       1.454   3.962  19.368  0.00  0.00    +0.000 C 
ATOM     21  C   UNL     1       2.257   3.924  20.667  0.00  0.00    +0.000 C 
ATOM     22  N   UNL     1       3.044   2.694  20.786  0.00  0.00    +0.000 NA
ATOM     23  C   UNL     1       3.965   2.552  19.661  0.00  0.00    +0.000 C 
ATOM     24  C   UNL     1       3.218   2.517  18.329  0.00  0.00    +0.000 C 
ATOM     25  H   UNL     1       2.412   1.894  20.814  0.00  0.00    +0.000 HD
ENDBRANCH  16  19
ENDBRANCH  14  17
ENDBRANCH   1  14
TORSDOF 4
ENDMDL
MODEL 7
REMARK VINA RESULT:      -7.8      2.939      6.857
REMARK  Name = 
REMARK  4 active torsions:
REMARK  status: ('A' for Active; 'I' for Inactive)
REMARK    1  A    between atoms: C_2  and  C_18
REMARK    2  A    between atoms: N_3  and  C_4
REMARK    3  A    between atoms: C_4  and  C_5
REMARK    4  A    between atoms: C_5  and  C_6
REMARK                            x       y       z     vdW  Elec       q    Type
REMARK                         _______ _______ _______ _____ _____    ______ ____
ROOT
ATOM      1  C   UNL     1       6.150   4.594  16.117  0.00  0.00    +0.000 C 
ATOM      2  C   UNL     1       5.438   5.942  16.468  0.00  0.00    +0.000 C 
ATOM      3  C   UNL     1       5.319   6.242  17.967  0.00  0.00    +0.000 C 
ATOM      4  C   UNL     1       6.656   6.146  18.689  0.00  0.00    +0.000 C 
ATOM      5  C   UNL     1       7.347   4.823  18.405  0.00  0.00    +0.000 C 
ATOM      6  C   UNL     1       7.494   4.580  16.909  0.00  0.00    +0.000 C 
ENDROOT
BRANCH   1   7
ATOM      7  C   UNL     1       6.423   4.490  14.584  0.00  0.00    +0.000 A 
ATOM      8  C   UNL     1       5.800   3.514  13.778  0.00  0.00    +0.000 A 
ATOM      9  C   UNL     1       6.087   3.403  12.410  0.00  0.00    +0.000 A 
ATOM     10  C   UNL     1       7.014   4.249  11.813  0.00  0.00    +0.000 A 
ATOM     11  C   UNL     1       7.635   5.213  12.589  0.00  0.00    +0.000 A 
ATOM     12  F   UNL     1       8.541   6.028  12.034  0.00  0.00    +0.000 F 
ATOM     13  C   UNL     1       7.344   5.339  13.945  0.00  0.00    +0.000 A 
ENDBRANCH   1   7
BRANCH   1  14
ATOM     14  C   UNL     1       5.234   3.386  16.536  0.00  0.00    +0.000 C 
BRANCH  14  17
ATOM     15  O   UNL     1       3.227   1.798  17.817  0.00  0.00    +0.000 OA
ATOM     16  C   UNL     1       2.974   2.964  17.541  0.00  0.00    +0.000 C 
ATOM     17  N   UNL     1       3.867   3.775  16.866  0.00  0.00    +0.000 N 
ATOM     18  H   UNL     1       3.604   4.742  16.728  0.00  0.00    +0.000 HD
BRANCH  16  19
ATOM     19  C   UNL     1       1.697   3.704  17.983  0.00  0.00    +0.000 C 
ATOM     20  C   UNL     1       2.001   5.061  18.629  0.00  0.00    +0.000 C 
ATOM     21  C   UNL     1       2.497   4.921  20.068  0.00  0.00    +0.000 C 
ATOM     22  N   UNL     1       1.565   4.150  20.893  0.00  0.00    +0.000 NA
ATOM     23  C   UNL     1       1.354   2.816  20.337  0.00  0.00    +0.000 C 
ATOM     24  C   UNL     1       0.795   2.884  18.917  0.00  0.00    +0.000 C 
ATOM     25  H   UNL     1       0.674   4.645  20.942  0.00  0.00    +0.000 HD
ENDBRANCH  16  19
ENDBRANCH  14  17
ENDBRANCH   1  14
TORSDOF 4
ENDMDL
MODEL 8
REMARK VINA RESULT:      -7.7      3.186      6.923
REMARK  Name = 
REMARK  4 active torsions:
REMARK  status: ('A' for Active; 'I' for Inactive)
REMARK    1  A    between atoms: C_2  and  C_18
REMARK    2  A    between atoms: N_3  and  C_4
REMARK    3  A    between atoms: C_4  and  C_5
REMARK    4  A    between atoms: C_5  and  C_6
REMARK                            x       y       z     vdW  Elec       q    Type
REMARK                         _______ _______ _______ _____ _____    ______ ____
ROOT
ATOM      1  C   UNL     1       6.552   5.396  16.115  0.00  0.00    +0.000 C 
ATOM      2  C   UNL     1       7.166   6.818  16.336  0.00  0.00    +0.000 C 
ATOM      3  C   UNL     1       7.212   7.284  17.796  0.00  0.00    +0.000 C 
ATOM      4  C   UNL     1       7.882   6.269  18.711  0.00  0.00    +0.000 C 
ATOM      5  C   UNL     1       7.270   4.888  18.553  0.00  0.00    +0.000 C 
ATOM      6  C   UNL     1       7.286   4.435  17.100  0.00  0.00    +0.000 C 
ENDROOT
BRANCH   1   7
ATOM      7  C   UNL     1       6.756   4.923  14.642  0.00  0.00    +0.000 A 
ATOM      8  C   UNL     1       7.710   5.521  13.791  0.00  0.00    +0.000 A 
ATOM      9  C   UNL     1       7.855   5.116  12.455  0.00  0.00    +0.000 A 
ATOM     10  C   UNL     1       7.043   4.119  11.929  0.00  0.00    +0.000 A 
ATOM     11  C   UNL     1       6.101   3.521  12.750  0.00  0.00    +0.000 A 
ATOM     12  F   UNL     1       5.300   2.568  12.257  0.00  0.00    +0.000 F 
ATOM     13  C   UNL     1       5.962   3.907  14.081  0.00  0.00    +0.000 A 
ENDBRANCH   1   7
BRANCH   1  14
ATOM     14  C   UNL     1       5.006   5.434  16.408  0.00  0.00    +0.000 C 
BRANCH  14  17
ATOM     15  O   UNL     1       2.655   5.880  17.978  0.00  0.00    +0.000 OA
ATOM     16  C   UNL     1       3.445   5.012  18.326  0.00  0.00    +0.000 C 
ATOM     17  N   UNL     1       4.632   4.779  17.658  0.00  0.00    +0.000 N 
ATOM     18  H   UNL     1       5.201   4.006  17.976  0.00  0.00    +0.000 HD
BRANCH  16  19
ATOM     19  C   UNL     1       3.187   4.012  19.471  0.00  0.00    +0.000 C 
ATOM     20  C   UNL     1       3.945   2.692  19.277  0.00  0.00    +0.000 C 
ATOM     21  C   UNL     1       3.274   1.786  18.245  0.00  0.00    +0.000 C 
ATOM     22  N   UNL     1       1.869   1.535  18.572  0.00  0.00    +0.000 NA
ATOM     23  C   UNL     1       1.119   2.787  18.654  0.00  0.00    +0.000 C 
ATOM     24  C   UNL     1       1.701   3.717  19.716  0.00  0.00    +0.000 C 
ATOM     25  H   UNL     1       1.814   1.046  19.465  0.00  0.00    +0.000 HD
ENDBRANCH  16  19
ENDBRANCH  14  17
ENDBRANCH   1  14
TORSDOF 4
ENDMDL
MODEL 9
REMARK VINA RESULT:      -7.7      2.079      4.989
REMARK  Name = 
REMARK  4 active torsions:
REMARK  status: ('A' for Active; 'I' for Inactive)
REMARK    1  A    between atoms: C_2  and  C_18
REMARK    2  A    between atoms: N_3  and  C_4
REMARK    3  A    between atoms: C_4  and  C_5
REMARK    4  A    between atoms: C_5  and  C_6
REMARK                            x       y       z     vdW  Elec       q    Type
REMARK                         _______ _______ _______ _____ _____    ______ ____
ROOT
ATOM      1  C   UNL     1       4.530   6.185  17.870  0.00  0.00    +0.000 C 
ATOM      2  C   UNL     1       5.309   5.668  19.125  0.00  0.00    +0.000 C 
ATOM      3  C   UNL     1       6.598   4.898  18.816  0.00  0.00    +0.000 C 
ATOM      4  C   UNL     1       7.532   5.670  17.895  0.00  0.00    +0.000 C 
ATOM      5  C   UNL     1       6.813   6.141  16.642  0.00  0.00    +0.000 C 
ATOM      6  C   UNL     1       5.566   6.945  16.985  0.00  0.00    +0.000 C 
ENDROOT
BRANCH   1   7
ATOM      7  C   UNL     1       3.370   7.142  18.289  0.00  0.00    +0.000 A 
ATOM      8  C   UNL     1       2.949   8.210  17.468  0.00  0.00    +0.000 A 
ATOM      9  C   UNL     1       1.934   9.089  17.875  0.00  0.00    +0.000 A 
ATOM     10  C   UNL     1       1.326   8.937  19.115  0.00  0.00    +0.000 A 
ATOM     11  C   UNL     1       1.727   7.895  19.933  0.00  0.00    +0.000 A 
ATOM     12  F   UNL     1       1.162   7.742  21.138  0.00  0.00    +0.000 F 
ATOM     13  C   UNL     1       2.723   7.009  19.530  0.00  0.00    +0.000 A 
ENDBRANCH   1   7
BRANCH   1  14
ATOM     14  C   UNL     1       3.907   4.968  17.093  0.00  0.00    +0.000 C 
BRANCH  14  17
ATOM     15  O   UNL     1       1.133   4.303  17.326  0.00  0.00    +0.000 OA
ATOM     16  C   UNL     1       1.952   3.665  17.975  0.00  0.00    +0.000 C 
ATOM     17  N   UNL     1       3.301   3.966  17.965  0.00  0.00    +0.000 N 
ATOM     18  H   UNL     1       3.918   3.355  18.484  0.00  0.00    +0.000 HD
BRANCH  16  19
ATOM     19  C   UNL     1       1.618   2.405  18.796  0.00  0.00    +0.000 C 
ATOM     20  C   UNL     1       0.629   2.694  19.933  0.00  0.00    +0.000 C 
ATOM     21  C   UNL     1       1.299   3.374  21.126  0.00  0.00    +0.000 C 
ATOM     22  N   UNL     1       2.446   2.607  21.617  0.00  0.00    +0.000 NA
ATOM     23  C   UNL     1       3.441   2.421  20.564  0.00  0.00    +0.000 C 
ATOM     24  C   UNL     1       2.850   1.686  19.362  0.00  0.00    +0.000 C 
ATOM     25  H   UNL     1       2.124   1.697  21.947  0.00  0.00    +0.000 HD
ENDBRANCH  16  19
ENDBRANCH  14  17
ENDBRANCH   1  14
TORSDOF 4
ENDMDL
