MODEL 1
REMARK VINA RESULT:      -5.7      0.000      0.000
REMARK  Name = 
REMARK  2 active torsions:
REMARK  status: ('A' for Active; 'I' for Inactive)
REMARK    1  A    between atoms: C_2  and  C_3
REMARK    2  A    between atoms: C_8  and  C_9
REMARK                            x       y       z     vdW  Elec       q    Type
REMARK                         _______ _______ _______ _____ _____    ______ ____
ROOT
ATOM      1  C   UNL     1       1.937   4.684  20.066  0.00  0.00    +0.000 A 
ATOM      2  C   UNL     1       1.944   5.987  20.588  0.00  0.00    +0.000 A 
ATOM      3  C   UNL     1       2.218   7.082  19.768  0.00  0.00    +0.000 A 
ATOM      4  C   UNL     1       2.487   6.886  18.419  0.00  0.00    +0.000 A 
ATOM      5  C   UNL     1       2.494   5.593  17.895  0.00  0.00    +0.000 A 
ATOM      6  C   UNL     1       2.226   4.472  18.708  0.00  0.00    +0.000 A 
ENDROOT
BRANCH   6   7
ATOM      7  C   UNL     1       2.260   3.110  18.053  0.00  0.00    +0.000 C 
ATOM      8  F   UNL     1       1.145   2.345  18.184  0.00  0.00    +0.000 F 
ATOM      9  F   UNL     1       2.485   3.199  16.710  0.00  0.00    +0.000 F 
ATOM     10  F   UNL     1       3.280   2.342  18.538  0.00  0.00    +0.000 F 
ENDBRANCH   6   7
BRANCH   1  12
ATOM     11  C   UNL     1       1.339   2.685  21.670  0.00  0.00    +0.000 C 
ATOM     12  C   UNL     1       1.612   3.608  20.955  0.00  0.00    +0.000 C 
ENDBRANCH   1  12
TORSDOF 2
ENDMDL
MODEL 2
REMARK VINA RESULT:      -5.7      0.053      1.077
REMARK  Name = 
REMARK  2 active torsions:
REMARK  status: ('A' for Active; 'I' for Inactive)
REMARK    1  A    between atoms: C_2  and  C_3
REMARK    2  A    between atoms: C_8  and  C_9
REMARK                            x       y       z     vdW  Elec       q    Type
REMARK                         _______ _______ _______ _____ _____    ______ ____
ROOT
ATOM      1  C   UNL     1       1.948   4.683  20.069  0.00  0.00    +0.000 A 
ATOM      2  C   UNL     1       1.947   5.984  20.594  0.00  0.00    +0.000 A 
ATOM      3  C   UNL     1       2.203   7.085  19.776  0.00  0.00    +0.000 A 
ATOM      4  C   UNL     1       2.463   6.896  18.424  0.00  0.00    +0.000 A 
ATOM      5  C   UNL     1       2.479   5.604  17.896  0.00  0.00    +0.000 A 
ATOM      6  C   UNL     1       2.228   4.478  18.708  0.00  0.00    +0.000 A 
ENDROOT
BRANCH   6   7
ATOM      7  C   UNL     1       2.269   3.119  18.047  0.00  0.00    +0.000 C 
ATOM      8  F   UNL     1       3.224   2.258  18.488  0.00  0.00    +0.000 F 
ATOM      9  F   UNL     1       1.087   2.452  18.185  0.00  0.00    +0.000 F 
ATOM     10  F   UNL     1       2.471   3.219  16.700  0.00  0.00    +0.000 F 
ENDBRANCH   6   7
BRANCH   1  12
ATOM     11  C   UNL     1       1.354   2.711  21.707  0.00  0.00    +0.000 C 
ATOM     12  C   UNL     1       1.642   3.601  20.956  0.00  0.00    +0.000 C 
ENDBRANCH   1  12
TORSDOF 2
ENDMDL
MODEL 3
REMARK VINA RESULT:      -5.7      4.150      5.430
REMARK  Name = 
REMARK  2 active torsions:
REMARK  status: ('A' for Active; 'I' for Inactive)
REMARK    1  A    between atoms: C_2  and  C_3
REMARK    2  A    between atoms: C_8  and  C_9
REMARK                            x       y       z     vdW  Elec       q    Type
REMARK                         _______ _______ _______ _____ _____    ______ ____
ROOT
ATOM      1  C   UNL     1       5.143   4.387  16.935  0.00  0.00    +0.000 A 
ATOM      2  C   UNL     1       3.781   4.121  17.146  0.00  0.00    +0.000 A 
ATOM      3  C   UNL     1       3.185   4.387  18.379  0.00  0.00    +0.000 A 
ATOM      4  C   UNL     1       3.943   4.922  19.413  0.00  0.00    +0.000 A 
ATOM      5  C   UNL     1       5.301   5.179  19.215  0.00  0.00    +0.000 A 
ATOM      6  C   UNL     1       5.924   4.911  17.978  0.00  0.00    +0.000 A 
ENDROOT
BRANCH   6   7
ATOM      7  C   UNL     1       7.399   5.217  17.858  0.00  0.00    +0.000 C 
ATOM      8  F   UNL     1       8.205   4.190  17.484  0.00  0.00    +0.000 F 
ATOM      9  F   UNL     1       7.638   6.215  16.958  0.00  0.00    +0.000 F 
ATOM     10  F   UNL     1       7.917   5.667  19.039  0.00  0.00    +0.000 F 
ENDBRANCH   6   7
BRANCH   1  12
ATOM     11  C   UNL     1       6.169   3.909  14.559  0.00  0.00    +0.000 C 
ATOM     12  C   UNL     1       5.683   4.124  15.635  0.00  0.00    +0.000 C 
ENDBRANCH   1  12
TORSDOF 2
ENDMDL
MODEL 4
REMARK VINA RESULT:      -5.7      4.151      5.494
REMARK  Name = 
REMARK  2 active torsions:
REMARK  status: ('A' for Active; 'I' for Inactive)
REMARK    1  A    between atoms: C_2  and  C_3
REMARK    2  A    between atoms: C_8  and  C_9
REMARK                            x       y       z     vdW  Elec       q    Type
REMARK                         _______ _______ _______ _____ _____    ______ ____
ROOT
ATOM      1  C   UNL     1       5.145   4.379  16.926  0.00  0.00    +0.000 A 
ATOM      2  C   UNL     1       3.801   4.048  17.157  0.00  0.00    +0.000 A 
ATOM      3  C   UNL     1       3.210   4.285  18.398  0.00  0.00    +0.000 A 
ATOM      4  C   UNL     1       3.956   4.856  19.422  0.00  0.00    +0.000 A 
ATOM      5  C   UNL     1       5.297   5.177  19.205  0.00  0.00    +0.000 A 
ATOM      6  C   UNL     1       5.915   4.940  17.959  0.00  0.00    +0.000 A 
ENDROOT
BRANCH   6   7
ATOM      7  C   UNL     1       7.371   5.317  17.819  0.00  0.00    +0.000 C 
ATOM      8  F   UNL     1       7.668   6.261  16.888  0.00  0.00    +0.000 F 
ATOM      9  F   UNL     1       7.888   5.787  18.991  0.00  0.00    +0.000 F 
ATOM     10  F   UNL     1       8.143   4.238  17.493  0.00  0.00    +0.000 F 
ENDBRANCH   6   7
BRANCH   1  12
ATOM     11  C   UNL     1       6.153   3.928  14.538  0.00  0.00    +0.000 C 
ATOM     12  C   UNL     1       5.678   4.143  15.618  0.00  0.00    +0.000 C 
ENDBRANCH   1  12
TORSDOF 2
ENDMDL
MODEL 5
REMARK VINA RESULT:      -5.6      4.165      5.502
REMARK  Name = 
REMARK  2 active torsions:
REMARK  status: ('A' for Active; 'I' for Inactive)
REMARK    1  A    between atoms: C_2  and  C_3
REMARK    2  A    between atoms: C_8  and  C_9
REMARK                            x       y       z     vdW  Elec       q    Type
REMARK                         _______ _______ _______ _____ _____    ______ ____
ROOT
ATOM      1  C   UNL     1       5.162   4.400  16.930  0.00  0.00    +0.000 A 
ATOM      2  C   UNL     1       3.809   4.100  17.154  0.00  0.00    +0.000 A 
ATOM      3  C   UNL     1       3.217   4.354  18.392  0.00  0.00    +0.000 A 
ATOM      4  C   UNL     1       3.971   4.910  19.419  0.00  0.00    +0.000 A 
ATOM      5  C   UNL     1       5.320   5.200  19.208  0.00  0.00    +0.000 A 
ATOM      6  C   UNL     1       5.938   4.946  17.965  0.00  0.00    +0.000 A 
ENDROOT
BRANCH   6   7
ATOM      7  C   UNL     1       7.404   5.290  17.832  0.00  0.00    +0.000 C 
ATOM      8  F   UNL     1       8.016   5.780  18.942  0.00  0.00    +0.000 F 
ATOM      9  F   UNL     1       8.146   4.209  17.455  0.00  0.00    +0.000 F 
ATOM     10  F   UNL     1       7.616   6.227  16.862  0.00  0.00    +0.000 F 
ENDBRANCH   6   7
BRANCH   1  12
ATOM     11  C   UNL     1       6.177   3.931  14.549  0.00  0.00    +0.000 C 
ATOM     12  C   UNL     1       5.697   4.149  15.626  0.00  0.00    +0.000 C 
ENDBRANCH   1  12
TORSDOF 2
ENDMDL
MODEL 6
REMARK VINA RESULT:      -5.6      0.080      1.108
REMARK  Name = 
REMARK  2 active torsions:
REMARK  status: ('A' for Active; 'I' for Inactive)
REMARK    1  A    between atoms: C_2  and  C_3
REMARK    2  A    between atoms: C_8  and  C_9
REMARK                            x       y       z     vdW  Elec       q    Type
REMARK                         _______ _______ _______ _____ _____    ______ ____
ROOT
ATOM      1  C   UNL     1       1.932   4.701  20.064  0.00  0.00    +0.000 A 
ATOM      2  C   UNL     1       1.944   5.998  20.600  0.00  0.00    +0.000 A 
ATOM      3  C   UNL     1       2.209   7.103  19.790  0.00  0.00    +0.000 A 
ATOM      4  C   UNL     1       2.465   6.922  18.436  0.00  0.00    +0.000 A 
ATOM      5  C   UNL     1       2.467   5.635  17.898  0.00  0.00    +0.000 A 
ATOM      6  C   UNL     1       2.207   4.504  18.701  0.00  0.00    +0.000 A 
ENDROOT
BRANCH   6   7
ATOM      7  C   UNL     1       2.234   3.150  18.031  0.00  0.00    +0.000 C 
ATOM      8  F   UNL     1       2.513   3.136  16.701  0.00  0.00    +0.000 F 
ATOM      9  F   UNL     1       3.152   2.319  18.604  0.00  0.00    +0.000 F 
ATOM     10  F   UNL     1       1.038   2.502  18.153  0.00  0.00    +0.000 F 
ENDBRANCH   6   7
BRANCH   1  12
ATOM     11  C   UNL     1       1.387   2.697  21.681  0.00  0.00    +0.000 C 
ATOM     12  C   UNL     1       1.616   3.615  20.944  0.00  0.00    +0.000 C 
ENDBRANCH   1  12
TORSDOF 2
ENDMDL
MODEL 7
REMARK VINA RESULT:      -5.5      2.505      4.227
REMARK  Name = 
REMARK  2 active torsions:
REMARK  status: ('A' for Active; 'I' for Inactive)
REMARK    1  A    between atoms: C_2  and  C_3
REMARK    2  A    between atoms: C_8  and  C_9
REMARK                            x       y       z     vdW  Elec       q    Type
REMARK                         _______ _______ _______ _____ _____    ______ ____
ROOT
ATOM      1  C   UNL     1       2.893   3.677  18.021  0.00  0.00    +0.000 A 
ATOM      2  C   UNL     1       2.200   2.460  17.934  0.00  0.00    +0.000 A 
ATOM      3  C   UNL     1       1.142   2.178  18.799  0.00  0.00    +0.000 A 
ATOM      4  C   UNL     1       0.766   3.110  19.759  0.00  0.00    +0.000 A 
ATOM      5  C   UNL     1       1.458   4.317  19.860  0.00  0.00    +0.000 A 
ATOM      6  C   UNL     1       2.535   4.619  18.999  0.00  0.00    +0.000 A 
ENDROOT
BRANCH   6   7
ATOM      7  C   UNL     1       3.226   5.950  19.186  0.00  0.00    +0.000 C 
ATOM      8  F   UNL     1       3.368   6.722  18.077  0.00  0.00    +0.000 F 
ATOM      9  F   UNL     1       2.579   6.734  20.096  0.00  0.00    +0.000 F 
ATOM     10  F   UNL     1       4.490   5.796  19.680  0.00  0.00    +0.000 F 
ENDBRANCH   6   7
BRANCH   1  12
ATOM     11  C   UNL     1       4.822   4.155  16.296  0.00  0.00    +0.000 C 
ATOM     12  C   UNL     1       3.945   3.918  17.079  0.00  0.00    +0.000 C 
ENDBRANCH   1  12
TORSDOF 2
ENDMDL
MODEL 8
REMARK VINA RESULT:      -5.5      2.220      3.977
REMARK  Name = 
REMARK  2 active torsions:
REMARK  status: ('A' for Active; 'I' for Inactive)
REMARK    1  A    between atoms: C_2  and  C_3
REMARK    2  A    between atoms: C_8  and  C_9
REMARK                            x       y       z     vdW  Elec       q    Type
REMARK                         _______ _______ _______ _____ _____    ______ ____
ROOT
ATOM      1  C   UNL     1       2.848   4.558  18.620  0.00  0.00    +0.000 A 
ATOM      2  C   UNL     1       3.571   4.101  17.508  0.00  0.00    +0.000 A 
ATOM      3  C   UNL     1       3.771   2.735  17.299  0.00  0.00    +0.000 A 
ATOM      4  C   UNL     1       3.251   1.814  18.200  0.00  0.00    +0.000 A 
ATOM      5  C   UNL     1       2.541   2.261  19.315  0.00  0.00    +0.000 A 
ATOM      6  C   UNL     1       2.332   3.638  19.547  0.00  0.00    +0.000 A 
ENDROOT
BRANCH   6   7
ATOM      7  C   UNL     1       1.555   4.027  20.783  0.00  0.00    +0.000 C 
ATOM      8  F   UNL     1       0.477   4.833  20.595  0.00  0.00    +0.000 F 
ATOM      9  F   UNL     1       1.080   2.934  21.449  0.00  0.00    +0.000 F 
ATOM     10  F   UNL     1       2.341   4.684  21.687  0.00  0.00    +0.000 F 
ENDBRANCH   6   7
BRANCH   1  12
ATOM     11  C   UNL     1       2.485   7.156  18.832  0.00  0.00    +0.000 C 
ATOM     12  C   UNL     1       2.648   5.970  18.755  0.00  0.00    +0.000 C 
ENDBRANCH   1  12
TORSDOF 2
ENDMDL
MODEL 9
REMARK VINA RESULT:      -5.5      2.764      4.101
REMARK  Name = 
REMARK  2 active torsions:
REMARK  status: ('A' for Active; 'I' for Inactive)
REMARK    1  A    between atoms: C_2  and  C_3
REMARK    2  A    between atoms: C_8  and  C_9
REMARK                            x       y       z     vdW  Elec       q    Type
REMARK                         _______ _______ _______ _____ _____    ______ ____
ROOT
ATOM      1  C   UNL     1       2.599   5.073  17.953  0.00  0.00    +0.000 A 
ATOM      2  C   UNL     1       1.512   4.293  18.373  0.00  0.00    +0.000 A 
ATOM      3  C   UNL     1       1.566   2.900  18.308  0.00  0.00    +0.000 A 
ATOM      4  C   UNL     1       2.708   2.274  17.823  0.00  0.00    +0.000 A 
ATOM      5  C   UNL     1       3.789   3.043  17.393  0.00  0.00    +0.000 A 
ATOM      6  C   UNL     1       3.752   4.453  17.445  0.00  0.00    +0.000 A 
ENDROOT
BRANCH   6   7
ATOM      7  C   UNL     1       4.969   5.201  16.953  0.00  0.00    +0.000 C 
ATOM      8  F   UNL     1       4.766   6.108  15.962  0.00  0.00    +0.000 F 
ATOM      9  F   UNL     1       5.580   5.892  17.959  0.00  0.00    +0.000 F 
ATOM     10  F   UNL     1       5.923   4.351  16.470  0.00  0.00    +0.000 F 
ENDBRANCH   6   7
BRANCH   1  12
ATOM     11  C   UNL     1       2.434   7.691  18.171  0.00  0.00    +0.000 C 
ATOM     12  C   UNL     1       2.492   6.496  18.081  0.00  0.00    +0.000 C 
ENDBRANCH   1  12
TORSDOF 2
ENDMDL
