MODEL 1
REMARK VINA RESULT:      -7.5      0.000      0.000
REMARK  Name = 
REMARK  8 active torsions:
REMARK  status: ('A' for Active; 'I' for Inactive)
REMARK    1  A    between atoms: C_1  and  C_2
REMARK    2  A    between atoms: C_2  and  C_3
REMARK    3  A    between atoms: C_2  and  O_4
REMARK    4  A    between atoms: O_4  and  C_5
REMARK    5  A    between atoms: C_10  and  N_11
REMARK    6  A    between atoms: N_14  and  C_15
REMARK    7  A    between atoms: C_15  and  C_16
REMARK    8  A    between atoms: C_19  and  C_20
REMARK                            x       y       z     vdW  Elec       q    Type
REMARK                         _______ _______ _______ _____ _____    ______ ____
ROOT
ATOM      1  N   UNL     1       2.495   7.528  18.514  0.00  0.00    +0.000 N 
ATOM      2  C   UNL     1       2.298   8.817  17.841  0.00  0.00    +0.000 C 
ATOM      3  C   UNL     1       0.885   9.368  18.189  0.00  0.00    +0.000 C 
ATOM      4  N   UNL     1       0.511   9.425  19.620  0.00  0.00    +0.000 NA
ATOM      5  C   UNL     1       0.844   8.130  20.265  0.00  0.00    +0.000 C 
ATOM      6  C   UNL     1       2.267   7.590  19.972  0.00  0.00    +0.000 C 
ENDROOT
BRANCH   1  12
ATOM      7  C   UNL     1       2.715   5.068  18.055  0.00  0.00    +0.000 A 
ATOM      8  C   UNL     1       3.393   4.059  17.343  0.00  0.00    +0.000 A 
ATOM      9  C   UNL     1       4.542   4.337  16.606  0.00  0.00    +0.000 A 
ATOM     10  C   UNL     1       5.005   5.636  16.545  0.00  0.00    +0.000 A 
ATOM     11  C   UNL     1       4.293   6.653  17.185  0.00  0.00    +0.000 A 
ATOM     12  C   UNL     1       3.114   6.428  17.935  0.00  0.00    +0.000 A 
BRANCH   7  13
ATOM     13  O   UNL     1       1.635   4.730  18.853  0.00  0.00    +0.000 OA
BRANCH  13  15
ATOM     14  C   UNL     1       1.445   3.530  21.010  0.00  0.00    +0.000 C 
ATOM     15  C   UNL     1       1.695   3.437  19.499  0.00  0.00    +0.000 C 
ATOM     16  C   UNL     1       0.640   2.538  18.853  0.00  0.00    +0.000 C 
ENDBRANCH  13  15
ENDBRANCH   7  13
ENDBRANCH   1  12
BRANCH   4  17
ATOM     17  C   UNL     1       1.135  10.531  20.355  0.00  0.00    +0.000 C 
BRANCH  17  18
ATOM     18  C   UNL     1       0.278  11.147  21.430  0.00  0.00    +0.000 A 
ATOM     19  C   UNL     1      -0.474  10.467  22.364  0.00  0.00    +0.000 A 
ATOM     20  C   UNL     1      -1.344  11.330  23.079  0.00  0.00    +0.000 A 
ATOM     21  C   UNL     1      -1.088  12.671  22.850  0.00  0.00    +0.000 A 
ATOM     22  S   UNL     1       0.042  12.840  21.557  0.00  0.00    +0.000 S 
BRANCH  21  23
ATOM     23  C   UNL     1      -1.674  13.868  23.458  0.00  0.00    +0.000 C 
ATOM     24  O   UNL     1      -1.066  14.515  24.319  0.00  0.00    +0.000 OA
ATOM     25  N   UNL     1      -2.952  14.296  23.045  0.00  0.00    +0.000 N 
ATOM     26  C   UNL     1      -3.421  15.620  23.457  0.00  0.00    +0.000 C 
ATOM     27  C   UNL     1      -4.805  15.548  24.099  0.00  0.00    +0.000 C 
ATOM     28  C   UNL     1      -5.801  14.849  23.179  0.00  0.00    +0.000 C 
ATOM     29  C   UNL     1      -5.280  13.476  22.782  0.00  0.00    +0.000 C 
ATOM     30  C   UNL     1      -3.878  13.551  22.192  0.00  0.00    +0.000 C 
ENDBRANCH  21  23
ENDBRANCH  17  18
ENDBRANCH   4  17
TORSDOF 6
ENDMDL
MODEL 2
REMARK VINA RESULT:      -7.4      1.166      1.620
REMARK  Name = 
REMARK  8 active torsions:
REMARK  status: ('A' for Active; 'I' for Inactive)
REMARK    1  A    between atoms: C_1  and  C_2
REMARK    2  A    between atoms: C_2  and  C_3
REMARK    3  A    between atoms: C_2  and  O_4
REMARK    4  A    between atoms: O_4  and  C_5
REMARK    5  A    between atoms: C_10  and  N_11
REMARK    6  A    between atoms: N_14  and  C_15
REMARK    7  A    between atoms: C_15  and  C_16
REMARK    8  A    between atoms: C_19  and  C_20
REMARK                            x       y       z     vdW  Elec       q    Type
REMARK                         _______ _______ _______ _____ _____    ______ ____
ROOT
ATOM      1  N   UNL     1       2.628   7.562  18.426  0.00  0.00    +0.000 N 
ATOM      2  C   UNL     1       2.486   8.874  17.786  0.00  0.00    +0.000 C 
ATOM      3  C   UNL     1       1.026   9.380  17.968  0.00  0.00    +0.000 C 
ATOM      4  N   UNL     1       0.468   9.368  19.339  0.00  0.00    +0.000 NA
ATOM      5  C   UNL     1       0.749   8.053  19.969  0.00  0.00    +0.000 C 
ATOM      6  C   UNL     1       2.211   7.556  19.843  0.00  0.00    +0.000 C 
ENDROOT
BRANCH   1  12
ATOM      7  C   UNL     1       2.930   5.142  17.823  0.00  0.00    +0.000 A 
ATOM      8  C   UNL     1       3.731   4.181  17.174  0.00  0.00    +0.000 A 
ATOM      9  C   UNL     1       5.000   4.498  16.693  0.00  0.00    +0.000 A 
ATOM     10  C   UNL     1       5.466   5.791  16.824  0.00  0.00    +0.000 A 
ATOM     11  C   UNL     1       4.646   6.766  17.396  0.00  0.00    +0.000 A 
ATOM     12  C   UNL     1       3.346   6.501  17.889  0.00  0.00    +0.000 A 
BRANCH   7  13
ATOM     13  O   UNL     1       1.718   4.759  18.373  0.00  0.00    +0.000 OA
BRANCH  13  15
ATOM     14  C   UNL     1       1.282   4.060  20.707  0.00  0.00    +0.000 C 
ATOM     15  C   UNL     1       1.758   3.655  19.306  0.00  0.00    +0.000 C 
ATOM     16  C   UNL     1       0.865   2.542  18.757  0.00  0.00    +0.000 C 
ENDBRANCH  13  15
ENDBRANCH   7  13
ENDBRANCH   1  12
BRANCH   4  17
ATOM     17  C   UNL     1       0.962  10.453  20.194  0.00  0.00    +0.000 C 
BRANCH  17  18
ATOM     18  C   UNL     1       0.027  10.873  21.297  0.00  0.00    +0.000 A 
ATOM     19  C   UNL     1      -0.054  10.317  22.555  0.00  0.00    +0.000 A 
ATOM     20  C   UNL     1      -1.187  10.780  23.271  0.00  0.00    +0.000 A 
ATOM     21  C   UNL     1      -1.825  11.841  22.653  0.00  0.00    +0.000 A 
ATOM     22  S   UNL     1      -1.175  12.075  21.072  0.00  0.00    +0.000 S 
BRANCH  21  23
ATOM     23  C   UNL     1      -2.950  12.666  23.101  0.00  0.00    +0.000 C 
ATOM     24  O   UNL     1      -4.119  12.347  22.855  0.00  0.00    +0.000 OA
ATOM     25  N   UNL     1      -2.693  13.842  23.834  0.00  0.00    +0.000 N 
ATOM     26  C   UNL     1      -3.809  14.519  24.497  0.00  0.00    +0.000 C 
ATOM     27  C   UNL     1      -3.854  16.003  24.141  0.00  0.00    +0.000 C 
ATOM     28  C   UNL     1      -2.518  16.679  24.436  0.00  0.00    +0.000 C 
ATOM     29  C   UNL     1      -1.388  15.951  23.724  0.00  0.00    +0.000 C 
ATOM     30  C   UNL     1      -1.384  14.462  24.043  0.00  0.00    +0.000 C 
ENDBRANCH  21  23
ENDBRANCH  17  18
ENDBRANCH   4  17
TORSDOF 6
ENDMDL
MODEL 3
REMARK VINA RESULT:      -7.4      1.059      1.442
REMARK  Name = 
REMARK  8 active torsions:
REMARK  status: ('A' for Active; 'I' for Inactive)
REMARK    1  A    between atoms: C_1  and  C_2
REMARK    2  A    between atoms: C_2  and  C_3
REMARK    3  A    between atoms: C_2  and  O_4
REMARK    4  A    between atoms: O_4  and  C_5
REMARK    5  A    between atoms: C_10  and  N_11
REMARK    6  A    between atoms: N_14  and  C_15
REMARK    7  A    between atoms: C_15  and  C_16
REMARK    8  A    between atoms: C_19  and  C_20
REMARK                            x       y       z     vdW  Elec       q    Type
REMARK                         _______ _______ _______ _____ _____    ______ ____
ROOT
ATOM      1  N   UNL     1       2.139   7.605  18.692  0.00  0.00    +0.000 N 
ATOM      2  C   UNL     1       1.695   7.528  20.088  0.00  0.00    +0.000 C 
ATOM      3  C   UNL     1       1.769   8.944  20.730  0.00  0.00    +0.000 C 
ATOM      4  N   UNL     1       1.121  10.057  20.001  0.00  0.00    +0.000 NA
ATOM      5  C   UNL     1       1.523  10.005  18.572  0.00  0.00    +0.000 C 
ATOM      6  C   UNL     1       1.406   8.613  17.901  0.00  0.00    +0.000 C 
ENDROOT
BRANCH   1  12
ATOM      7  C   UNL     1       2.682   5.260  17.971  0.00  0.00    +0.000 A 
ATOM      8  C   UNL     1       3.548   4.425  17.238  0.00  0.00    +0.000 A 
ATOM      9  C   UNL     1       4.739   4.906  16.699  0.00  0.00    +0.000 A 
ATOM     10  C   UNL     1       5.060   6.239  16.858  0.00  0.00    +0.000 A 
ATOM     11  C   UNL     1       4.169   7.089  17.517  0.00  0.00    +0.000 A 
ATOM     12  C   UNL     1       2.941   6.656  18.071  0.00  0.00    +0.000 A 
BRANCH   7  13
ATOM     13  O   UNL     1       1.558   4.718  18.572  0.00  0.00    +0.000 OA
BRANCH  13  15
ATOM     14  C   UNL     1       1.419   3.746  20.844  0.00  0.00    +0.000 C 
ATOM     15  C   UNL     1       1.767   3.528  19.366  0.00  0.00    +0.000 C 
ATOM     16  C   UNL     1       0.894   2.415  18.786  0.00  0.00    +0.000 C 
ENDBRANCH  13  15
ENDBRANCH   7  13
ENDBRANCH   1  12
BRANCH   4  17
ATOM     17  C   UNL     1      -0.341  10.071  20.114  0.00  0.00    +0.000 C 
BRANCH  17  18
ATOM     18  C   UNL     1      -0.897  11.074  21.090  0.00  0.00    +0.000 A 
ATOM     19  C   UNL     1      -0.869  10.978  22.464  0.00  0.00    +0.000 A 
ATOM     20  C   UNL     1      -1.677  11.964  23.085  0.00  0.00    +0.000 A 
ATOM     21  C   UNL     1      -2.126  12.933  22.204  0.00  0.00    +0.000 A 
ATOM     22  S   UNL     1      -1.764  12.464  20.584  0.00  0.00    +0.000 S 
BRANCH  21  23
ATOM     23  C   UNL     1      -2.885  14.161  22.448  0.00  0.00    +0.000 C 
ATOM     24  O   UNL     1      -2.321  15.257  22.548  0.00  0.00    +0.000 OA
ATOM     25  N   UNL     1      -4.289  14.093  22.562  0.00  0.00    +0.000 N 
ATOM     26  C   UNL     1      -5.060  15.338  22.545  0.00  0.00    +0.000 C 
ATOM     27  C   UNL     1      -6.017  15.418  23.733  0.00  0.00    +0.000 C 
ATOM     28  C   UNL     1      -6.918  14.188  23.796  0.00  0.00    +0.000 C 
ATOM     29  C   UNL     1      -6.078  12.919  23.820  0.00  0.00    +0.000 C 
ATOM     30  C   UNL     1      -5.089  12.873  22.662  0.00  0.00    +0.000 C 
ENDBRANCH  21  23
ENDBRANCH  17  18
ENDBRANCH   4  17
TORSDOF 6
ENDMDL
MODEL 4
REMARK VINA RESULT:      -7.3      3.092     10.333
REMARK  Name = 
REMARK  8 active torsions:
REMARK  status: ('A' for Active; 'I' for Inactive)
REMARK    1  A    between atoms: C_1  and  C_2
REMARK    2  A    between atoms: C_2  and  C_3
REMARK    3  A    between atoms: C_2  and  O_4
REMARK    4  A    between atoms: O_4  and  C_5
REMARK    5  A    between atoms: C_10  and  N_11
REMARK    6  A    between atoms: N_14  and  C_15
REMARK    7  A    between atoms: C_15  and  C_16
REMARK    8  A    between atoms: C_19  and  C_20
REMARK                            x       y       z     vdW  Elec       q    Type
REMARK                         _______ _______ _______ _____ _____    ______ ____
ROOT
ATOM      1  N   UNL     1      -2.998  11.399  18.716  0.00  0.00    +0.000 N 
ATOM      2  C   UNL     1      -2.615  10.045  18.302  0.00  0.00    +0.000 C 
ATOM      3  C   UNL     1      -1.206  10.089  17.641  0.00  0.00    +0.000 C 
ATOM      4  N   UNL     1      -0.125  10.770  18.389  0.00  0.00    +0.000 NA
ATOM      5  C   UNL     1      -0.619  12.082  18.877  0.00  0.00    +0.000 C 
ATOM      6  C   UNL     1      -1.997  12.050  19.585  0.00  0.00    +0.000 C 
ENDROOT
BRANCH   1  12
ATOM      7  C   UNL     1      -5.086  12.471  19.614  0.00  0.00    +0.000 A 
ATOM      8  C   UNL     1      -6.334  13.050  19.313  0.00  0.00    +0.000 A 
ATOM      9  C   UNL     1      -6.869  12.999  18.028  0.00  0.00    +0.000 A 
ATOM     10  C   UNL     1      -6.142  12.397  17.020  0.00  0.00    +0.000 A 
ATOM     11  C   UNL     1      -4.870  11.890  17.295  0.00  0.00    +0.000 A 
ATOM     12  C   UNL     1      -4.275  11.929  18.578  0.00  0.00    +0.000 A 
BRANCH   7  13
ATOM     13  O   UNL     1      -4.638  12.459  20.924  0.00  0.00    +0.000 OA
BRANCH  13  15
ATOM     14  C   UNL     1      -5.574  13.018  23.146  0.00  0.00    +0.000 C 
ATOM     15  C   UNL     1      -5.115  13.528  21.774  0.00  0.00    +0.000 C 
ATOM     16  C   UNL     1      -3.978  14.534  21.948  0.00  0.00    +0.000 C 
ENDBRANCH  13  15
ENDBRANCH   7  13
ENDBRANCH   1  12
BRANCH   4  17
ATOM     17  C   UNL     1       0.412   9.985  19.506  0.00  0.00    +0.000 C 
BRANCH  17  18
ATOM     18  C   UNL     1       1.430   8.943  19.123  0.00  0.00    +0.000 A 
ATOM     19  C   UNL     1       2.074   8.839  17.909  0.00  0.00    +0.000 A 
ATOM     20  C   UNL     1       2.791   7.621  17.788  0.00  0.00    +0.000 A 
ATOM     21  C   UNL     1       2.876   6.919  18.979  0.00  0.00    +0.000 A 
ATOM     22  S   UNL     1       1.847   7.643  20.159  0.00  0.00    +0.000 S 
BRANCH  21  23
ATOM     23  C   UNL     1       3.602   5.691  19.309  0.00  0.00    +0.000 C 
ATOM     24  O   UNL     1       4.828   5.691  19.467  0.00  0.00    +0.000 OA
ATOM     25  N   UNL     1       2.885   4.486  19.458  0.00  0.00    +0.000 N 
ATOM     26  C   UNL     1       3.566   3.326  20.036  0.00  0.00    +0.000 C 
ATOM     27  C   UNL     1       3.407   2.089  19.155  0.00  0.00    +0.000 C 
ATOM     28  C   UNL     1       1.936   1.804  18.868  0.00  0.00    +0.000 C 
ATOM     29  C   UNL     1       1.269   3.029  18.262  0.00  0.00    +0.000 C 
ATOM     30  C   UNL     1       1.478   4.270  19.121  0.00  0.00    +0.000 C 
ENDBRANCH  21  23
ENDBRANCH  17  18
ENDBRANCH   4  17
TORSDOF 6
ENDMDL
MODEL 5
REMARK VINA RESULT:      -7.2      1.363      2.845
REMARK  Name = 
REMARK  8 active torsions:
REMARK  status: ('A' for Active; 'I' for Inactive)
REMARK    1  A    between atoms: C_1  and  C_2
REMARK    2  A    between atoms: C_2  and  C_3
REMARK    3  A    between atoms: C_2  and  O_4
REMARK    4  A    between atoms: O_4  and  C_5
REMARK    5  A    between atoms: C_10  and  N_11
REMARK    6  A    between atoms: N_14  and  C_15
REMARK    7  A    between atoms: C_15  and  C_16
REMARK    8  A    between atoms: C_19  and  C_20
REMARK                            x       y       z     vdW  Elec       q    Type
REMARK                         _______ _______ _______ _____ _____    ______ ____
ROOT
ATOM      1  N   UNL     1       2.136   6.157  18.984  0.00  0.00    +0.000 N 
ATOM      2  C   UNL     1       1.563   6.340  20.321  0.00  0.00    +0.000 C 
ATOM      3  C   UNL     1       1.971   7.740  20.867  0.00  0.00    +0.000 C 
ATOM      4  N   UNL     1       1.726   8.909  19.992  0.00  0.00    +0.000 NA
ATOM      5  C   UNL     1       2.226   8.610  18.626  0.00  0.00    +0.000 C 
ATOM      6  C   UNL     1       1.787   7.242  18.045  0.00  0.00    +0.000 C 
ENDROOT
BRANCH   1  12
ATOM      7  C   UNL     1       4.064   4.739  18.217  0.00  0.00    +0.000 A 
ATOM      8  C   UNL     1       4.503   3.455  17.838  0.00  0.00    +0.000 A 
ATOM      9  C   UNL     1       3.604   2.411  17.630  0.00  0.00    +0.000 A 
ATOM     10  C   UNL     1       2.257   2.631  17.835  0.00  0.00    +0.000 A 
ATOM     11  C   UNL     1       1.823   3.880  18.286  0.00  0.00    +0.000 A 
ATOM     12  C   UNL     1       2.694   4.969  18.525  0.00  0.00    +0.000 A 
BRANCH   7  13
ATOM     13  O   UNL     1       4.981   5.771  18.317  0.00  0.00    +0.000 OA
BRANCH  13  15
ATOM     14  C   UNL     1       5.048   6.621  15.993  0.00  0.00    +0.000 C 
ATOM     15  C   UNL     1       5.821   5.996  17.161  0.00  0.00    +0.000 C 
ATOM     16  C   UNL     1       6.963   6.921  17.582  0.00  0.00    +0.000 C 
ENDBRANCH  13  15
ENDBRANCH   7  13
ENDBRANCH   1  12
BRANCH   4  17
ATOM     17  C   UNL     1       0.322   9.328  19.937  0.00  0.00    +0.000 C 
BRANCH  17  18
ATOM     18  C   UNL     1      -0.146  10.151  21.108  0.00  0.00    +0.000 A 
ATOM     19  C   UNL     1      -0.468   9.677  22.361  0.00  0.00    +0.000 A 
ATOM     20  C   UNL     1      -1.094  10.667  23.162  0.00  0.00    +0.000 A 
ATOM     21  C   UNL     1      -1.037  11.933  22.604  0.00  0.00    +0.000 A 
ATOM     22  S   UNL     1      -0.450  11.834  20.984  0.00  0.00    +0.000 S 
BRANCH  21  23
ATOM     23  C   UNL     1      -1.460  13.228  23.140  0.00  0.00    +0.000 C 
ATOM     24  O   UNL     1      -0.691  13.932  23.805  0.00  0.00    +0.000 OA
ATOM     25  N   UNL     1      -2.769  13.685  22.884  0.00  0.00    +0.000 N 
ATOM     26  C   UNL     1      -3.104  15.077  23.194  0.00  0.00    +0.000 C 
ATOM     27  C   UNL     1      -4.365  15.170  24.051  0.00  0.00    +0.000 C 
ATOM     28  C   UNL     1      -5.530  14.433  23.397  0.00  0.00    +0.000 C 
ATOM     29  C   UNL     1      -5.143  12.992  23.100  0.00  0.00    +0.000 C 
ATOM     30  C   UNL     1      -3.856  12.907  22.290  0.00  0.00    +0.000 C 
ENDBRANCH  21  23
ENDBRANCH  17  18
ENDBRANCH   4  17
TORSDOF 6
ENDMDL
MODEL 6
REMARK VINA RESULT:      -7.2      3.267     10.578
REMARK  Name = 
REMARK  8 active torsions:
REMARK  status: ('A' for Active; 'I' for Inactive)
REMARK    1  A    between atoms: C_1  and  C_2
REMARK    2  A    between atoms: C_2  and  C_3
REMARK    3  A    between atoms: C_2  and  O_4
REMARK    4  A    between atoms: O_4  and  C_5
REMARK    5  A    between atoms: C_10  and  N_11
REMARK    6  A    between atoms: N_14  and  C_15
REMARK    7  A    between atoms: C_15  and  C_16
REMARK    8  A    between atoms: C_19  and  C_20
REMARK                            x       y       z     vdW  Elec       q    Type
REMARK                         _______ _______ _______ _____ _____    ______ ____
ROOT
ATOM      1  N   UNL     1      -3.639  11.594  18.679  0.00  0.00    +0.000 N 
ATOM      2  C   UNL     1      -3.167  10.269  18.262  0.00  0.00    +0.000 C 
ATOM      3  C   UNL     1      -1.782  10.412  17.567  0.00  0.00    +0.000 C 
ATOM      4  N   UNL     1      -0.735  11.175  18.285  0.00  0.00    +0.000 NA
ATOM      5  C   UNL     1      -1.313  12.450  18.779  0.00  0.00    +0.000 C 
ATOM      6  C   UNL     1      -2.668  12.322  19.520  0.00  0.00    +0.000 C 
ENDROOT
BRANCH   1  12
ATOM      7  C   UNL     1      -5.891  12.173  19.630  0.00  0.00    +0.000 A 
ATOM      8  C   UNL     1      -7.172  12.703  19.383  0.00  0.00    +0.000 A 
ATOM      9  C   UNL     1      -7.606  12.981  18.088  0.00  0.00    +0.000 A 
ATOM     10  C   UNL     1      -6.748  12.765  17.029  0.00  0.00    +0.000 A 
ATOM     11  C   UNL     1      -5.450  12.312  17.275  0.00  0.00    +0.000 A 
ATOM     12  C   UNL     1      -4.954  12.028  18.569  0.00  0.00    +0.000 A 
BRANCH   7  13
ATOM     13  O   UNL     1      -5.538  11.820  20.922  0.00  0.00    +0.000 OA
BRANCH  13  15
ATOM     14  C   UNL     1      -6.778  12.623  22.908  0.00  0.00    +0.000 C 
ATOM     15  C   UNL     1      -5.630  12.863  21.919  0.00  0.00    +0.000 C 
ATOM     16  C   UNL     1      -4.300  12.914  22.671  0.00  0.00    +0.000 C 
ENDBRANCH  13  15
ENDBRANCH   7  13
ENDBRANCH   1  12
BRANCH   4  17
ATOM     17  C   UNL     1      -0.116  10.438  19.391  0.00  0.00    +0.000 C 
BRANCH  17  18
ATOM     18  C   UNL     1       0.967   9.472  18.989  0.00  0.00    +0.000 A 
ATOM     19  C   UNL     1       1.655   9.469  17.795  0.00  0.00    +0.000 A 
ATOM     20  C   UNL     1       2.438   8.297  17.633  0.00  0.00    +0.000 A 
ATOM     21  C   UNL     1       2.520   7.535  18.785  0.00  0.00    +0.000 A 
ATOM     22  S   UNL     1       1.416   8.137  19.967  0.00  0.00    +0.000 S 
BRANCH  21  23
ATOM     23  C   UNL     1       3.297   6.327  19.073  0.00  0.00    +0.000 C 
ATOM     24  O   UNL     1       3.015   5.593  20.027  0.00  0.00    +0.000 OA
ATOM     25  N   UNL     1       4.383   5.991  18.239  0.00  0.00    +0.000 N 
ATOM     26  C   UNL     1       4.989   4.665  18.369  0.00  0.00    +0.000 C 
ATOM     27  C   UNL     1       6.504   4.757  18.538  0.00  0.00    +0.000 C 
ATOM     28  C   UNL     1       7.134   5.566  17.408  0.00  0.00    +0.000 C 
ATOM     29  C   UNL     1       6.483   6.937  17.312  0.00  0.00    +0.000 C 
ATOM     30  C   UNL     1       4.967   6.837  17.198  0.00  0.00    +0.000 C 
ENDBRANCH  21  23
ENDBRANCH  17  18
ENDBRANCH   4  17
TORSDOF 6
ENDMDL
MODEL 7
REMARK VINA RESULT:      -7.2      2.382      4.007
REMARK  Name = 
REMARK  8 active torsions:
REMARK  status: ('A' for Active; 'I' for Inactive)
REMARK    1  A    between atoms: C_1  and  C_2
REMARK    2  A    between atoms: C_2  and  C_3
REMARK    3  A    between atoms: C_2  and  O_4
REMARK    4  A    between atoms: O_4  and  C_5
REMARK    5  A    between atoms: C_10  and  N_11
REMARK    6  A    between atoms: N_14  and  C_15
REMARK    7  A    between atoms: C_15  and  C_16
REMARK    8  A    between atoms: C_19  and  C_20
REMARK                            x       y       z     vdW  Elec       q    Type
REMARK                         _______ _______ _______ _____ _____    ______ ____
ROOT
ATOM      1  N   UNL     1       3.994   6.301  17.953  0.00  0.00    +0.000 N 
ATOM      2  C   UNL     1       3.409   7.621  17.694  0.00  0.00    +0.000 C 
ATOM      3  C   UNL     1       1.911   7.611  18.117  0.00  0.00    +0.000 C 
ATOM      4  N   UNL     1       1.591   7.118  19.476  0.00  0.00    +0.000 NA
ATOM      5  C   UNL     1       2.307   5.839  19.713  0.00  0.00    +0.000 C 
ATOM      6  C   UNL     1       3.813   5.845  19.346  0.00  0.00    +0.000 C 
ENDROOT
BRANCH   1  12
ATOM      7  C   UNL     1       6.129   6.157  16.636  0.00  0.00    +0.000 A 
ATOM      8  C   UNL     1       6.967   5.355  15.836  0.00  0.00    +0.000 A 
ATOM      9  C   UNL     1       6.553   4.108  15.372  0.00  0.00    +0.000 A 
ATOM     10  C   UNL     1       5.308   3.634  15.734  0.00  0.00    +0.000 A 
ATOM     11  C   UNL     1       4.504   4.390  16.591  0.00  0.00    +0.000 A 
ATOM     12  C   UNL     1       4.881   5.655  17.100  0.00  0.00    +0.000 A 
BRANCH   7  13
ATOM     13  O   UNL     1       6.542   7.430  16.992  0.00  0.00    +0.000 OA
BRANCH  13  15
ATOM     14  C   UNL     1       8.188   8.967  18.018  0.00  0.00    +0.000 C 
ATOM     15  C   UNL     1       7.862   7.536  17.572  0.00  0.00    +0.000 C 
ATOM     16  C   UNL     1       7.927   6.592  18.772  0.00  0.00    +0.000 C 
ENDBRANCH  13  15
ENDBRANCH   7  13
ENDBRANCH   1  12
BRANCH   4  17
ATOM     17  C   UNL     1       1.898   8.075  20.544  0.00  0.00    +0.000 C 
BRANCH  17  18
ATOM     18  C   UNL     1       0.851   9.133  20.774  0.00  0.00    +0.000 A 
ATOM     19  C   UNL     1       0.092   9.754  19.806  0.00  0.00    +0.000 A 
ATOM     20  C   UNL     1      -0.629  10.861  20.323  0.00  0.00    +0.000 A 
ATOM     21  C   UNL     1      -0.595  10.935  21.705  0.00  0.00    +0.000 A 
ATOM     22  S   UNL     1       0.541   9.795  22.325  0.00  0.00    +0.000 S 
BRANCH  21  23
ATOM     23  C   UNL     1      -1.281  11.845  22.625  0.00  0.00    +0.000 C 
ATOM     24  O   UNL     1      -2.233  11.464  23.316  0.00  0.00    +0.000 OA
ATOM     25  N   UNL     1      -0.840  13.179  22.732  0.00  0.00    +0.000 N 
ATOM     26  C   UNL     1      -1.350  14.007  23.827  0.00  0.00    +0.000 C 
ATOM     27  C   UNL     1      -1.904  15.334  23.313  0.00  0.00    +0.000 C 
ATOM     28  C   UNL     1      -0.867  16.074  22.473  0.00  0.00    +0.000 C 
ATOM     29  C   UNL     1      -0.369  15.184  21.344  0.00  0.00    +0.000 C 
ATOM     30  C   UNL     1       0.131  13.841  21.860  0.00  0.00    +0.000 C 
ENDBRANCH  21  23
ENDBRANCH  17  18
ENDBRANCH   4  17
TORSDOF 6
ENDMDL
MODEL 8
REMARK VINA RESULT:      -7.0      2.023     10.752
REMARK  Name = 
REMARK  8 active torsions:
REMARK  status: ('A' for Active; 'I' for Inactive)
REMARK    1  A    between atoms: C_1  and  C_2
REMARK    2  A    between atoms: C_2  and  C_3
REMARK    3  A    between atoms: C_2  and  O_4
REMARK    4  A    between atoms: O_4  and  C_5
REMARK    5  A    between atoms: C_10  and  N_11
REMARK    6  A    between atoms: N_14  and  C_15
REMARK    7  A    between atoms: C_15  and  C_16
REMARK    8  A    between atoms: C_19  and  C_20
REMARK                            x       y       z     vdW  Elec       q    Type
REMARK                         _______ _______ _______ _____ _____    ______ ____
ROOT
ATOM      1  N   UNL     1      -1.618  12.612  22.486  0.00  0.00    +0.000 N 
ATOM      2  C   UNL     1      -1.059  12.796  21.143  0.00  0.00    +0.000 C 
ATOM      3  C   UNL     1       0.337  12.111  21.068  0.00  0.00    +0.000 C 
ATOM      4  N   UNL     1       0.429  10.704  21.521  0.00  0.00    +0.000 NA
ATOM      5  C   UNL     1      -0.257  10.566  22.830  0.00  0.00    +0.000 C 
ATOM      6  C   UNL     1      -1.670  11.197  22.908  0.00  0.00    +0.000 C 
ENDROOT
BRANCH   1  12
ATOM      7  C   UNL     1      -3.686  13.914  23.070  0.00  0.00    +0.000 A 
ATOM      8  C   UNL     1      -4.269  14.882  23.911  0.00  0.00    +0.000 A 
ATOM      9  C   UNL     1      -3.498  15.639  24.791  0.00  0.00    +0.000 A 
ATOM     10  C   UNL     1      -2.139  15.411  24.864  0.00  0.00    +0.000 A 
ATOM     11  C   UNL     1      -1.567  14.399  24.089  0.00  0.00    +0.000 A 
ATOM     12  C   UNL     1      -2.305  13.592  23.191  0.00  0.00    +0.000 A 
BRANCH   7  13
ATOM     13  O   UNL     1      -4.474  13.254  22.143  0.00  0.00    +0.000 OA
BRANCH  13  15
ATOM     14  C   UNL     1      -5.949  14.434  20.543  0.00  0.00    +0.000 C 
ATOM     15  C   UNL     1      -5.799  13.792  21.928  0.00  0.00    +0.000 C 
ATOM     16  C   UNL     1      -6.802  12.649  22.082  0.00  0.00    +0.000 C 
ENDBRANCH  13  15
ENDBRANCH   7  13
ENDBRANCH   1  12
BRANCH   4  17
ATOM     17  C   UNL     1      -0.111   9.733  20.563  0.00  0.00    +0.000 C 
BRANCH  17  18
ATOM     18  C   UNL     1       0.902   9.131  19.625  0.00  0.00    +0.000 A 
ATOM     19  C   UNL     1       1.149   9.525  18.328  0.00  0.00    +0.000 A 
ATOM     20  C   UNL     1       1.991   8.610  17.644  0.00  0.00    +0.000 A 
ATOM     21  C   UNL     1       2.557   7.662  18.479  0.00  0.00    +0.000 A 
ATOM     22  S   UNL     1       1.833   7.753  20.043  0.00  0.00    +0.000 S 
BRANCH  21  23
ATOM     23  C   UNL     1       3.547   6.620  18.201  0.00  0.00    +0.000 C 
ATOM     24  O   UNL     1       4.676   6.901  17.780  0.00  0.00    +0.000 OA
ATOM     25  N   UNL     1       3.209   5.270  18.426  0.00  0.00    +0.000 N 
ATOM     26  C   UNL     1       4.271   4.262  18.398  0.00  0.00    +0.000 C 
ATOM     27  C   UNL     1       3.916   3.104  17.467  0.00  0.00    +0.000 C 
ATOM     28  C   UNL     1       2.563   2.500  17.832  0.00  0.00    +0.000 C 
ATOM     29  C   UNL     1       1.490   3.578  17.843  0.00  0.00    +0.000 C 
ATOM     30  C   UNL     1       1.876   4.753  18.732  0.00  0.00    +0.000 C 
ENDBRANCH  21  23
ENDBRANCH  17  18
ENDBRANCH   4  17
TORSDOF 6
ENDMDL
MODEL 9
REMARK VINA RESULT:      -7.0      3.217      4.908
REMARK  Name = 
REMARK  8 active torsions:
REMARK  status: ('A' for Active; 'I' for Inactive)
REMARK    1  A    between atoms: C_1  and  C_2
REMARK    2  A    between atoms: C_2  and  C_3
REMARK    3  A    between atoms: C_2  and  O_4
REMARK    4  A    between atoms: O_4  and  C_5
REMARK    5  A    between atoms: C_10  and  N_11
REMARK    6  A    between atoms: N_14  and  C_15
REMARK    7  A    between atoms: C_15  and  C_16
REMARK    8  A    between atoms: C_19  and  C_20
REMARK                            x       y       z     vdW  Elec       q    Type
REMARK                         _______ _______ _______ _____ _____    ______ ____
ROOT
ATOM      1  N   UNL     1       4.221   5.588  17.901  0.00  0.00    +0.000 N 
ATOM      2  C   UNL     1       3.105   6.522  17.718  0.00  0.00    +0.000 C 
ATOM      3  C   UNL     1       1.856   5.986  18.477  0.00  0.00    +0.000 C 
ATOM      4  N   UNL     1       2.034   5.603  19.896  0.00  0.00    +0.000 NA
ATOM      5  C   UNL     1       3.246   4.754  20.025  0.00  0.00    +0.000 C 
ATOM      6  C   UNL     1       4.514   5.298  19.319  0.00  0.00    +0.000 C 
ENDROOT
BRANCH   1  12
ATOM      7  C   UNL     1       6.223   5.993  16.438  0.00  0.00    +0.000 A 
ATOM      8  C   UNL     1       7.097   5.466  15.467  0.00  0.00    +0.000 A 
ATOM      9  C   UNL     1       6.839   4.248  14.840  0.00  0.00    +0.000 A 
ATOM     10  C   UNL     1       5.720   3.527  15.205  0.00  0.00    +0.000 A 
ATOM     11  C   UNL     1       4.892   4.007  16.222  0.00  0.00    +0.000 A 
ATOM     12  C   UNL     1       5.115   5.229  16.900  0.00  0.00    +0.000 A 
BRANCH   7  13
ATOM     13  O   UNL     1       6.467   7.251  16.963  0.00  0.00    +0.000 OA
BRANCH  13  15
ATOM     14  C   UNL     1       8.029   8.946  17.864  0.00  0.00    +0.000 C 
ATOM     15  C   UNL     1       7.789   7.474  17.503  0.00  0.00    +0.000 C 
ATOM     16  C   UNL     1       7.943   6.603  18.749  0.00  0.00    +0.000 C 
ENDBRANCH  13  15
ENDBRANCH   7  13
ENDBRANCH   1  12
BRANCH   4  17
ATOM     17  C   UNL     1       2.116   6.743  20.815  0.00  0.00    +0.000 C 
BRANCH  17  18
ATOM     18  C   UNL     1       1.416   7.991  20.347  0.00  0.00    +0.000 A 
ATOM     19  C   UNL     1       1.831   8.830  19.336  0.00  0.00    +0.000 A 
ATOM     20  C   UNL     1       1.083  10.034  19.300  0.00  0.00    +0.000 A 
ATOM     21  C   UNL     1      -0.031  10.008  20.123  0.00  0.00    +0.000 A 
ATOM     22  S   UNL     1       0.015   8.603  21.123  0.00  0.00    +0.000 S 
BRANCH  21  23
ATOM     23  C   UNL     1      -1.107  10.985  20.299  0.00  0.00    +0.000 C 
ATOM     24  O   UNL     1      -1.255  11.594  21.365  0.00  0.00    +0.000 OA
ATOM     25  N   UNL     1      -1.985  11.243  19.227  0.00  0.00    +0.000 N 
ATOM     26  C   UNL     1      -2.887  12.394  19.314  0.00  0.00    +0.000 C 
ATOM     27  C   UNL     1      -4.333  11.993  19.029  0.00  0.00    +0.000 C 
ATOM     28  C   UNL     1      -4.450  11.275  17.687  0.00  0.00    +0.000 C 
ATOM     29  C   UNL     1      -3.504  10.084  17.641  0.00  0.00    +0.000 C 
ATOM     30  C   UNL     1      -2.074  10.484  17.980  0.00  0.00    +0.000 C 
ENDBRANCH  21  23
ENDBRANCH  17  18
ENDBRANCH   4  17
TORSDOF 6
ENDMDL
