MODEL 1
REMARK VINA RESULT:      -7.5      0.000      0.000
REMARK  Name = 
REMARK  12 active torsions:
REMARK  status: ('A' for Active; 'I' for Inactive)
REMARK    1  A    between atoms: C_1  and  O_2
REMARK    2  A    between atoms: O_2  and  C_3
REMARK    3  A    between atoms: C_9  and  C_10
REMARK    4  A    between atoms: C_10  and  C_11
REMARK    5  A    between atoms: C_11  and  N_12
REMARK    6  A    between atoms: N_15  and  C_16
REMARK    7  A    between atoms: C_16  and  C_17
REMARK    8  A    between atoms: C_17  and  C_18
REMARK    9  A    between atoms: C_18  and  O_19
REMARK   10  A    between atoms: O_19  and  N_20
REMARK   11  A    between atoms: C_23  and  C_24
REMARK   12  A    between atoms: C_26  and  C_28
REMARK                            x       y       z     vdW  Elec       q    Type
REMARK                         _______ _______ _______ _____ _____    ______ ____
ROOT
ATOM      1  C   UNL     1      -2.542  10.310  17.192  0.00  0.00    +0.000 A 
ATOM      2  C   UNL     1      -3.357  11.074  18.013  0.00  0.00    +0.000 A 
ATOM      3  C   UNL     1      -2.813  11.870  19.020  0.00  0.00    +0.000 A 
ATOM      4  C   UNL     1      -1.429  11.822  19.274  0.00  0.00    +0.000 A 
ATOM      5  C   UNL     1      -0.587  11.071  18.449  0.00  0.00    +0.000 A 
ATOM      6  C   UNL     1      -1.158  10.297  17.408  0.00  0.00    +0.000 A 
ATOM      7  C   UNL     1       0.758  11.316  18.867  0.00  0.00    +0.000 A 
ATOM      8  C   UNL     1       0.700  12.179  19.955  0.00  0.00    +0.000 A 
ATOM      9  C   UNL     1       1.804  12.738  20.794  0.00  0.00    +0.000 C 
ATOM     10  N   UNL     1      -0.643  12.444  20.253  0.00  0.00    +0.000 N 
ATOM     11  C   UNL     1      -1.113  13.218  21.355  0.00  0.00    +0.000 C 
ATOM     12  O   UNL     1      -0.355  14.064  21.832  0.00  0.00    +0.000 OA
ENDROOT
BRANCH  11  13
ATOM     13  C   UNL     1      -2.459  13.108  21.972  0.00  0.00    +0.000 A 
ATOM     14  C   UNL     1      -3.545  13.852  21.495  0.00  0.00    +0.000 A 
ATOM     15  C   UNL     1      -4.735  13.882  22.223  0.00  0.00    +0.000 A 
ATOM     16  C   UNL     1      -4.864  13.105  23.375  0.00  0.00    +0.000 A 
ATOM     17 CL   UNL     1      -6.294  13.218  24.322  0.00  0.00    +0.000 Cl
ATOM     18  C   UNL     1      -3.830  12.262  23.779  0.00  0.00    +0.000 A 
ATOM     19  C   UNL     1      -2.624  12.261  23.076  0.00  0.00    +0.000 A 
ENDBRANCH  11  13
BRANCH   1  21
ATOM     20  C   UNL     1      -3.488  10.273  15.035  0.00  0.00    +0.000 C 
ATOM     21  O   UNL     1      -3.005   9.540  16.159  0.00  0.00    +0.000 OA
ENDBRANCH   1  21
BRANCH   7  22
ATOM     22  C   UNL     1       1.982  10.724  18.215  0.00  0.00    +0.000 C 
BRANCH  22  23
ATOM     23  C   UNL     1       1.808   9.232  17.872  0.00  0.00    +0.000 C 
BRANCH  23  24
ATOM     24  N   UNL     1       1.856   8.360  19.039  0.00  0.00    +0.000 N 
ATOM     25  C   UNL     1       2.458   7.137  18.959  0.00  0.00    +0.000 C 
ATOM     26  O   UNL     1       2.885   6.660  17.910  0.00  0.00    +0.000 OA
ATOM     27  N   UNL     1       2.490   6.464  20.148  0.00  0.00    +0.000 N 
ATOM     28  H   UNL     1       1.816   8.800  19.950  0.00  0.00    +0.000 HD
ATOM     29  H   UNL     1       2.191   6.931  20.987  0.00  0.00    +0.000 HD
BRANCH  27  30
ATOM     30  C   UNL     1       3.006   5.108  20.214  0.00  0.00    +0.000 C 
BRANCH  30  31
ATOM     31  C   UNL     1       2.207   4.211  21.152  0.00  0.00    +0.000 C 
BRANCH  31  32
ATOM     32  C   UNL     1       1.925   2.841  20.548  0.00  0.00    +0.000 C 
BRANCH  32  33
ATOM     33  O   UNL     1       2.290   2.881  19.171  0.00  0.00    +0.000 OA
BRANCH  33  34
ATOM     34  N   UNL     1       1.165   2.945  18.315  0.00  0.00    +0.000 N 
ATOM     35  O   UNL     1       0.296   2.083  18.459  0.00  0.00    +0.000 OA
ATOM     36  O   UNL     1       1.216   3.888  17.528  0.00  0.00    +0.000 OA
ENDBRANCH  33  34
ENDBRANCH  32  33
ENDBRANCH  31  32
ENDBRANCH  30  31
ENDBRANCH  27  30
ENDBRANCH  23  24
ENDBRANCH  22  23
ENDBRANCH   7  22
TORSDOF 10
ENDMDL
MODEL 2
REMARK VINA RESULT:      -7.5      1.403      1.899
REMARK  Name = 
REMARK  12 active torsions:
REMARK  status: ('A' for Active; 'I' for Inactive)
REMARK    1  A    between atoms: C_1  and  O_2
REMARK    2  A    between atoms: O_2  and  C_3
REMARK    3  A    between atoms: C_9  and  C_10
REMARK    4  A    between atoms: C_10  and  C_11
REMARK    5  A    between atoms: C_11  and  N_12
REMARK    6  A    between atoms: N_15  and  C_16
REMARK    7  A    between atoms: C_16  and  C_17
REMARK    8  A    between atoms: C_17  and  C_18
REMARK    9  A    between atoms: C_18  and  O_19
REMARK   10  A    between atoms: O_19  and  N_20
REMARK   11  A    between atoms: C_23  and  C_24
REMARK   12  A    between atoms: C_26  and  C_28
REMARK                            x       y       z     vdW  Elec       q    Type
REMARK                         _______ _______ _______ _____ _____    ______ ____
ROOT
ATOM      1  C   UNL     1      -2.888  10.300  17.306  0.00  0.00    +0.000 A 
ATOM      2  C   UNL     1      -3.501  11.230  18.131  0.00  0.00    +0.000 A 
ATOM      3  C   UNL     1      -2.766  11.936  19.082  0.00  0.00    +0.000 A 
ATOM      4  C   UNL     1      -1.406  11.630  19.278  0.00  0.00    +0.000 A 
ATOM      5  C   UNL     1      -0.764  10.708  18.448  0.00  0.00    +0.000 A 
ATOM      6  C   UNL     1      -1.523  10.028  17.463  0.00  0.00    +0.000 A 
ATOM      7  C   UNL     1       0.622  10.702  18.798  0.00  0.00    +0.000 A 
ATOM      8  C   UNL     1       0.783  11.592  19.854  0.00  0.00    +0.000 A 
ATOM      9  C   UNL     1       2.014  11.953  20.622  0.00  0.00    +0.000 C 
ATOM     10  N   UNL     1      -0.469  12.119  20.198  0.00  0.00    +0.000 N 
ATOM     11  C   UNL     1      -0.727  13.001  21.289  0.00  0.00    +0.000 C 
ATOM     12  O   UNL     1       0.201  13.699  21.700  0.00  0.00    +0.000 OA
ENDROOT
BRANCH  11  13
ATOM     13  C   UNL     1      -2.037  13.169  21.967  0.00  0.00    +0.000 A 
ATOM     14  C   UNL     1      -2.433  12.325  23.012  0.00  0.00    +0.000 A 
ATOM     15  C   UNL     1      -3.746  12.377  23.483  0.00  0.00    +0.000 A 
ATOM     16  C   UNL     1      -4.630  13.326  22.970  0.00  0.00    +0.000 A 
ATOM     17 CL   UNL     1      -6.271  13.326  23.481  0.00  0.00    +0.000 Cl
ATOM     18  C   UNL     1      -4.200  14.255  22.023  0.00  0.00    +0.000 A 
ATOM     19  C   UNL     1      -2.900  14.178  21.519  0.00  0.00    +0.000 A 
ENDBRANCH  11  13
BRANCH   1  21
ATOM     20  C   UNL     1      -3.248  10.026  14.994  0.00  0.00    +0.000 C 
ATOM     21  O   UNL     1      -3.540   9.603  16.324  0.00  0.00    +0.000 OA
ENDBRANCH   1  21
BRANCH   7  22
ATOM     22  C   UNL     1       1.677   9.867  18.117  0.00  0.00    +0.000 C 
BRANCH  22  23
ATOM     23  C   UNL     1       2.013   8.584  18.900  0.00  0.00    +0.000 C 
BRANCH  23  24
ATOM     24  N   UNL     1       2.224   7.422  18.046  0.00  0.00    +0.000 N 
ATOM     25  C   UNL     1       2.715   6.262  18.572  0.00  0.00    +0.000 C 
ATOM     26  O   UNL     1       3.104   6.156  19.733  0.00  0.00    +0.000 OA
ATOM     27  N   UNL     1       2.791   5.239  17.668  0.00  0.00    +0.000 N 
ATOM     28  H   UNL     1       1.656   7.349  17.211  0.00  0.00    +0.000 HD
ATOM     29  H   UNL     1       2.393   5.360  16.752  0.00  0.00    +0.000 HD
BRANCH  27  30
ATOM     30  C   UNL     1       3.384   3.968  18.041  0.00  0.00    +0.000 C 
BRANCH  30  31
ATOM     31  C   UNL     1       2.452   2.783  17.808  0.00  0.00    +0.000 C 
BRANCH  31  32
ATOM     32  C   UNL     1       2.045   2.098  19.106  0.00  0.00    +0.000 C 
BRANCH  32  33
ATOM     33  O   UNL     1       1.879   3.102  20.104  0.00  0.00    +0.000 OA
BRANCH  33  34
ATOM     34  N   UNL     1       2.579   2.800  21.296  0.00  0.00    +0.000 N 
ATOM     35  O   UNL     1       3.724   2.357  21.182  0.00  0.00    +0.000 OA
ATOM     36  O   UNL     1       1.924   3.037  22.309  0.00  0.00    +0.000 OA
ENDBRANCH  33  34
ENDBRANCH  32  33
ENDBRANCH  31  32
ENDBRANCH  30  31
ENDBRANCH  27  30
ENDBRANCH  23  24
ENDBRANCH  22  23
ENDBRANCH   7  22
TORSDOF 10
ENDMDL
MODEL 3
REMARK VINA RESULT:      -7.5      2.048      2.748
REMARK  Name = 
REMARK  12 active torsions:
REMARK  status: ('A' for Active; 'I' for Inactive)
REMARK    1  A    between atoms: C_1  and  O_2
REMARK    2  A    between atoms: O_2  and  C_3
REMARK    3  A    between atoms: C_9  and  C_10
REMARK    4  A    between atoms: C_10  and  C_11
REMARK    5  A    between atoms: C_11  and  N_12
REMARK    6  A    between atoms: N_15  and  C_16
REMARK    7  A    between atoms: C_16  and  C_17
REMARK    8  A    between atoms: C_17  and  C_18
REMARK    9  A    between atoms: C_18  and  O_19
REMARK   10  A    between atoms: O_19  and  N_20
REMARK   11  A    between atoms: C_23  and  C_24
REMARK   12  A    between atoms: C_26  and  C_28
REMARK                            x       y       z     vdW  Elec       q    Type
REMARK                         _______ _______ _______ _____ _____    ______ ____
ROOT
ATOM      1  C   UNL     1      -3.076  10.411  16.939  0.00  0.00    +0.000 A 
ATOM      2  C   UNL     1      -3.778  11.293  17.747  0.00  0.00    +0.000 A 
ATOM      3  C   UNL     1      -3.143  11.965  18.790  0.00  0.00    +0.000 A 
ATOM      4  C   UNL     1      -1.800  11.669  19.094  0.00  0.00    +0.000 A 
ATOM      5  C   UNL     1      -1.071  10.796  18.284  0.00  0.00    +0.000 A 
ATOM      6  C   UNL     1      -1.726  10.151  17.205  0.00  0.00    +0.000 A 
ATOM      7  C   UNL     1       0.279  10.794  18.756  0.00  0.00    +0.000 A 
ATOM      8  C   UNL     1       0.329  11.635  19.861  0.00  0.00    +0.000 A 
ATOM      9  C   UNL     1       1.480  11.978  20.752  0.00  0.00    +0.000 C 
ATOM     10  N   UNL     1      -0.958  12.128  20.115  0.00  0.00    +0.000 N 
ATOM     11  C   UNL     1      -1.328  12.955  21.216  0.00  0.00    +0.000 C 
ATOM     12  O   UNL     1      -0.454  13.646  21.740  0.00  0.00    +0.000 OA
ENDROOT
BRANCH  11  13
ATOM     13  C   UNL     1      -2.696  13.073  21.781  0.00  0.00    +0.000 A 
ATOM     14  C   UNL     1      -3.648  13.934  21.220  0.00  0.00    +0.000 A 
ATOM     15  C   UNL     1      -4.845  14.176  21.894  0.00  0.00    +0.000 A 
ATOM     16  C   UNL     1      -5.123  13.495  23.079  0.00  0.00    +0.000 A 
ATOM     17 CL   UNL     1      -6.554  13.864  23.958  0.00  0.00    +0.000 Cl
ATOM     18  C   UNL     1      -4.236  12.538  23.571  0.00  0.00    +0.000 A 
ATOM     19  C   UNL     1      -3.019  12.325  22.921  0.00  0.00    +0.000 A 
ENDBRANCH  11  13
BRANCH   1  21
ATOM     20  C   UNL     1      -3.067  10.090  14.605  0.00  0.00    +0.000 C 
ATOM     21  O   UNL     1      -3.626   9.750  15.872  0.00  0.00    +0.000 OA
ENDBRANCH   1  21
BRANCH   7  22
ATOM     22  C   UNL     1       1.406  10.006  18.136  0.00  0.00    +0.000 C 
BRANCH  22  23
ATOM     23  C   UNL     1       1.774   8.754  18.955  0.00  0.00    +0.000 C 
BRANCH  23  24
ATOM     24  N   UNL     1       2.340   7.680  18.148  0.00  0.00    +0.000 N 
ATOM     25  C   UNL     1       2.424   6.413  18.651  0.00  0.00    +0.000 C 
ATOM     26  O   UNL     1       2.142   6.126  19.813  0.00  0.00    +0.000 OA
ATOM     27  N   UNL     1       2.908   5.500  17.757  0.00  0.00    +0.000 N 
ATOM     28  H   UNL     1       2.290   7.778  17.142  0.00  0.00    +0.000 HD
ATOM     29  H   UNL     1       3.054   5.776  16.801  0.00  0.00    +0.000 HD
BRANCH  27  30
ATOM     30  C   UNL     1       3.152   4.128  18.164  0.00  0.00    +0.000 C 
BRANCH  30  31
ATOM     31  C   UNL     1       4.590   3.682  17.926  0.00  0.00    +0.000 C 
BRANCH  31  32
ATOM     32  C   UNL     1       5.560   4.281  18.936  0.00  0.00    +0.000 C 
BRANCH  32  33
ATOM     33  O   UNL     1       6.033   5.521  18.416  0.00  0.00    +0.000 OA
BRANCH  33  34
ATOM     34  N   UNL     1       7.446   5.604  18.417  0.00  0.00    +0.000 N 
ATOM     35  O   UNL     1       7.945   6.727  18.503  0.00  0.00    +0.000 OA
ATOM     36  O   UNL     1       7.989   4.504  18.334  0.00  0.00    +0.000 OA
ENDBRANCH  33  34
ENDBRANCH  32  33
ENDBRANCH  31  32
ENDBRANCH  30  31
ENDBRANCH  27  30
ENDBRANCH  23  24
ENDBRANCH  22  23
ENDBRANCH   7  22
TORSDOF 10
ENDMDL
MODEL 4
REMARK VINA RESULT:      -7.4      1.327      1.723
REMARK  Name = 
REMARK  12 active torsions:
REMARK  status: ('A' for Active; 'I' for Inactive)
REMARK    1  A    between atoms: C_1  and  O_2
REMARK    2  A    between atoms: O_2  and  C_3
REMARK    3  A    between atoms: C_9  and  C_10
REMARK    4  A    between atoms: C_10  and  C_11
REMARK    5  A    between atoms: C_11  and  N_12
REMARK    6  A    between atoms: N_15  and  C_16
REMARK    7  A    between atoms: C_16  and  C_17
REMARK    8  A    between atoms: C_17  and  C_18
REMARK    9  A    between atoms: C_18  and  O_19
REMARK   10  A    between atoms: O_19  and  N_20
REMARK   11  A    between atoms: C_23  and  C_24
REMARK   12  A    between atoms: C_26  and  C_28
REMARK                            x       y       z     vdW  Elec       q    Type
REMARK                         _______ _______ _______ _____ _____    ______ ____
ROOT
ATOM      1  C   UNL     1      -3.295  10.855  17.399  0.00  0.00    +0.000 A 
ATOM      2  C   UNL     1      -3.804  11.739  18.339  0.00  0.00    +0.000 A 
ATOM      3  C   UNL     1      -2.990  12.256  19.346  0.00  0.00    +0.000 A 
ATOM      4  C   UNL     1      -1.664  11.800  19.474  0.00  0.00    +0.000 A 
ATOM      5  C   UNL     1      -1.127  10.923  18.529  0.00  0.00    +0.000 A 
ATOM      6  C   UNL     1      -1.962  10.437  17.491  0.00  0.00    +0.000 A 
ATOM      7  C   UNL     1       0.256  10.743  18.842  0.00  0.00    +0.000 A 
ATOM      8  C   UNL     1       0.518  11.485  19.988  0.00  0.00    +0.000 A 
ATOM      9  C   UNL     1       1.788  11.635  20.763  0.00  0.00    +0.000 C 
ATOM     10  N   UNL     1      -0.672  12.086  20.421  0.00  0.00    +0.000 N 
ATOM     11  C   UNL     1      -0.828  12.857  21.610  0.00  0.00    +0.000 C 
ATOM     12  O   UNL     1       0.168  13.411  22.075  0.00  0.00    +0.000 OA
ENDROOT
BRANCH  11  13
ATOM     13  C   UNL     1      -2.106  13.072  22.334  0.00  0.00    +0.000 A 
ATOM     14  C   UNL     1      -2.585  12.141  23.265  0.00  0.00    +0.000 A 
ATOM     15  C   UNL     1      -3.879  12.269  23.769  0.00  0.00    +0.000 A 
ATOM     16  C   UNL     1      -4.659  13.368  23.408  0.00  0.00    +0.000 A 
ATOM     17 CL   UNL     1      -6.286  13.474  23.952  0.00  0.00    +0.000 Cl
ATOM     18  C   UNL     1      -4.138  14.365  22.584  0.00  0.00    +0.000 A 
ATOM     19  C   UNL     1      -2.857  14.219  22.046  0.00  0.00    +0.000 A 
ENDBRANCH  11  13
BRANCH   1  21
ATOM     20  C   UNL     1      -3.329  10.269  15.118  0.00  0.00    +0.000 C 
ATOM     21  O   UNL     1      -4.025  10.342  16.360  0.00  0.00    +0.000 OA
ENDBRANCH   1  21
BRANCH   7  22
ATOM     22  C   UNL     1       1.215   9.894  18.046  0.00  0.00    +0.000 C 
BRANCH  22  23
ATOM     23  C   UNL     1       1.648   8.623  18.800  0.00  0.00    +0.000 C 
BRANCH  23  24
ATOM     24  N   UNL     1       2.732   7.901  18.145  0.00  0.00    +0.000 N 
ATOM     25  C   UNL     1       3.027   6.621  18.516  0.00  0.00    +0.000 C 
ATOM     26  O   UNL     1       2.495   6.050  19.466  0.00  0.00    +0.000 OA
ATOM     27  N   UNL     1       4.017   6.048  17.766  0.00  0.00    +0.000 N 
ATOM     28  H   UNL     1       2.972   8.179  17.202  0.00  0.00    +0.000 HD
ATOM     29  H   UNL     1       4.366   6.534  16.958  0.00  0.00    +0.000 HD
BRANCH  27  30
ATOM     30  C   UNL     1       4.519   4.727  18.094  0.00  0.00    +0.000 C 
BRANCH  30  31
ATOM     31  C   UNL     1       4.215   3.689  17.019  0.00  0.00    +0.000 C 
BRANCH  31  32
ATOM     32  C   UNL     1       3.359   2.543  17.543  0.00  0.00    +0.000 C 
BRANCH  32  33
ATOM     33  O   UNL     1       2.005   2.987  17.590  0.00  0.00    +0.000 OA
BRANCH  33  34
ATOM     34  N   UNL     1       1.334   2.550  18.756  0.00  0.00    +0.000 N 
ATOM     35  O   UNL     1       1.975   2.549  19.809  0.00  0.00    +0.000 OA
ATOM     36  O   UNL     1       0.166   2.228  18.544  0.00  0.00    +0.000 OA
ENDBRANCH  33  34
ENDBRANCH  32  33
ENDBRANCH  31  32
ENDBRANCH  30  31
ENDBRANCH  27  30
ENDBRANCH  23  24
ENDBRANCH  22  23
ENDBRANCH   7  22
TORSDOF 10
ENDMDL
MODEL 5
REMARK VINA RESULT:      -7.4      2.004      2.699
REMARK  Name = 
REMARK  12 active torsions:
REMARK  status: ('A' for Active; 'I' for Inactive)
REMARK    1  A    between atoms: C_1  and  O_2
REMARK    2  A    between atoms: O_2  and  C_3
REMARK    3  A    between atoms: C_9  and  C_10
REMARK    4  A    between atoms: C_10  and  C_11
REMARK    5  A    between atoms: C_11  and  N_12
REMARK    6  A    between atoms: N_15  and  C_16
REMARK    7  A    between atoms: C_16  and  C_17
REMARK    8  A    between atoms: C_17  and  C_18
REMARK    9  A    between atoms: C_18  and  O_19
REMARK   10  A    between atoms: O_19  and  N_20
REMARK   11  A    between atoms: C_23  and  C_24
REMARK   12  A    between atoms: C_26  and  C_28
REMARK                            x       y       z     vdW  Elec       q    Type
REMARK                         _______ _______ _______ _____ _____    ______ ____
ROOT
ATOM      1  C   UNL     1      -2.798  10.311  17.175  0.00  0.00    +0.000 A 
ATOM      2  C   UNL     1      -3.564  11.218  17.889  0.00  0.00    +0.000 A 
ATOM      3  C   UNL     1      -2.981  12.049  18.845  0.00  0.00    +0.000 A 
ATOM      4  C   UNL     1      -1.618  11.896  19.162  0.00  0.00    +0.000 A 
ATOM      5  C   UNL     1      -0.824  10.999  18.443  0.00  0.00    +0.000 A 
ATOM      6  C   UNL     1      -1.430  10.189  17.450  0.00  0.00    +0.000 A 
ATOM      7  C   UNL     1       0.523  11.155  18.896  0.00  0.00    +0.000 A 
ATOM      8  C   UNL     1       0.511  12.115  19.901  0.00  0.00    +0.000 A 
ATOM      9  C   UNL     1       1.634  12.643  20.735  0.00  0.00    +0.000 C 
ATOM     10  N   UNL     1      -0.811  12.529  20.116  0.00  0.00    +0.000 N 
ATOM     11  C   UNL     1      -1.242  13.441  21.124  0.00  0.00    +0.000 C 
ATOM     12  O   UNL     1      -0.423  14.253  21.558  0.00  0.00    +0.000 OA
ENDROOT
BRANCH  11  13
ATOM     13  C   UNL     1      -2.612  13.512  21.690  0.00  0.00    +0.000 A 
ATOM     14  C   UNL     1      -3.478  14.568  21.378  0.00  0.00    +0.000 A 
ATOM     15  C   UNL     1      -4.673  14.714  22.084  0.00  0.00    +0.000 A 
ATOM     16  C   UNL     1      -5.037  13.762  23.036  0.00  0.00    +0.000 A 
ATOM     17 CL   UNL     1      -6.460  13.995  23.972  0.00  0.00    +0.000 Cl
ATOM     18  C   UNL     1      -4.240  12.639  23.255  0.00  0.00    +0.000 A 
ATOM     19  C   UNL     1      -3.024  12.512  22.581  0.00  0.00    +0.000 A 
ENDBRANCH  11  13
BRANCH   1  21
ATOM     20  C   UNL     1      -3.176  10.009  14.868  0.00  0.00    +0.000 C 
ATOM     21  O   UNL     1      -3.297   9.495  16.193  0.00  0.00    +0.000 OA
ENDBRANCH   1  21
BRANCH   7  22
ATOM     22  C   UNL     1       1.707  10.395  18.352  0.00  0.00    +0.000 C 
BRANCH  22  23
ATOM     23  C   UNL     1       1.349   8.952  17.948  0.00  0.00    +0.000 C 
BRANCH  23  24
ATOM     24  N   UNL     1       2.516   8.106  17.729  0.00  0.00    +0.000 N 
ATOM     25  C   UNL     1       2.845   7.140  18.636  0.00  0.00    +0.000 C 
ATOM     26  O   UNL     1       2.270   6.998  19.713  0.00  0.00    +0.000 OA
ATOM     27  N   UNL     1       3.918   6.380  18.262  0.00  0.00    +0.000 N 
ATOM     28  H   UNL     1       2.816   7.966  16.772  0.00  0.00    +0.000 HD
ATOM     29  H   UNL     1       4.305   6.494  17.341  0.00  0.00    +0.000 HD
BRANCH  27  30
ATOM     30  C   UNL     1       4.458   5.376  19.160  0.00  0.00    +0.000 C 
BRANCH  30  31
ATOM     31  C   UNL     1       5.346   4.358  18.451  0.00  0.00    +0.000 C 
BRANCH  31  32
ATOM     32  C   UNL     1       6.759   4.878  18.221  0.00  0.00    +0.000 C 
BRANCH  32  33
ATOM     33  O   UNL     1       6.665   6.136  17.557  0.00  0.00    +0.000 OA
BRANCH  33  34
ATOM     34  N   UNL     1       6.600   5.999  16.150  0.00  0.00    +0.000 N 
ATOM     35  O   UNL     1       7.535   5.418  15.595  0.00  0.00    +0.000 OA
ATOM     36  O   UNL     1       5.582   6.493  15.668  0.00  0.00    +0.000 OA
ENDBRANCH  33  34
ENDBRANCH  32  33
ENDBRANCH  31  32
ENDBRANCH  30  31
ENDBRANCH  27  30
ENDBRANCH  23  24
ENDBRANCH  22  23
ENDBRANCH   7  22
TORSDOF 10
ENDMDL
MODEL 6
REMARK VINA RESULT:      -7.3      2.000      2.879
REMARK  Name = 
REMARK  12 active torsions:
REMARK  status: ('A' for Active; 'I' for Inactive)
REMARK    1  A    between atoms: C_1  and  O_2
REMARK    2  A    between atoms: O_2  and  C_3
REMARK    3  A    between atoms: C_9  and  C_10
REMARK    4  A    between atoms: C_10  and  C_11
REMARK    5  A    between atoms: C_11  and  N_12
REMARK    6  A    between atoms: N_15  and  C_16
REMARK    7  A    between atoms: C_16  and  C_17
REMARK    8  A    between atoms: C_17  and  C_18
REMARK    9  A    between atoms: C_18  and  O_19
REMARK   10  A    between atoms: O_19  and  N_20
REMARK   11  A    between atoms: C_23  and  C_24
REMARK   12  A    between atoms: C_26  and  C_28
REMARK                            x       y       z     vdW  Elec       q    Type
REMARK                         _______ _______ _______ _____ _____    ______ ____
ROOT
ATOM      1  C   UNL     1      -2.650  10.368  17.518  0.00  0.00    +0.000 A 
ATOM      2  C   UNL     1      -3.297  11.262  18.357  0.00  0.00    +0.000 A 
ATOM      3  C   UNL     1      -2.578  12.035  19.268  0.00  0.00    +0.000 A 
ATOM      4  C   UNL     1      -1.192  11.834  19.410  0.00  0.00    +0.000 A 
ATOM      5  C   UNL     1      -0.518  10.949  18.565  0.00  0.00    +0.000 A 
ATOM      6  C   UNL     1      -1.263  10.200  17.621  0.00  0.00    +0.000 A 
ATOM      7  C   UNL     1       0.879  11.051  18.857  0.00  0.00    +0.000 A 
ATOM      8  C   UNL     1       1.016  11.966  19.894  0.00  0.00    +0.000 A 
ATOM      9  C   UNL     1       2.247  12.429  20.607  0.00  0.00    +0.000 C 
ATOM     10  N   UNL     1      -0.257  12.404  20.285  0.00  0.00    +0.000 N 
ATOM     11  C   UNL     1      -0.535  13.281  21.374  0.00  0.00    +0.000 C 
ATOM     12  O   UNL     1       0.353  14.052  21.738  0.00  0.00    +0.000 OA
ENDROOT
BRANCH  11  13
ATOM     13  C   UNL     1      -1.825  13.362  22.104  0.00  0.00    +0.000 A 
ATOM     14  C   UNL     1      -2.209  12.378  23.025  0.00  0.00    +0.000 A 
ATOM     15  C   UNL     1      -3.508  12.375  23.533  0.00  0.00    +0.000 A 
ATOM     16  C   UNL     1      -4.390  13.398  23.188  0.00  0.00    +0.000 A 
ATOM     17 CL   UNL     1      -6.018  13.341  23.738  0.00  0.00    +0.000 Cl
ATOM     18  C   UNL     1      -3.970  14.451  22.377  0.00  0.00    +0.000 A 
ATOM     19  C   UNL     1      -2.684  14.436  21.833  0.00  0.00    +0.000 A 
ENDBRANCH  11  13
BRANCH   1  21
ATOM     20  C   UNL     1      -3.141  10.075  15.233  0.00  0.00    +0.000 C 
ATOM     21  O   UNL     1      -3.288   9.609  16.572  0.00  0.00    +0.000 OA
ENDBRANCH   1  21
BRANCH   7  22
ATOM     22  C   UNL     1       1.964  10.286  18.143  0.00  0.00    +0.000 C 
BRANCH  22  23
ATOM     23  C   UNL     1       1.658   8.780  18.040  0.00  0.00    +0.000 C 
BRANCH  23  24
ATOM     24  N   UNL     1       2.387   7.973  19.011  0.00  0.00    +0.000 N 
ATOM     25  C   UNL     1       2.493   6.622  18.842  0.00  0.00    +0.000 C 
ATOM     26  O   UNL     1       1.909   6.003  17.955  0.00  0.00    +0.000 OA
ATOM     27  N   UNL     1       3.265   6.010  19.789  0.00  0.00    +0.000 N 
ATOM     28  H   UNL     1       3.115   8.433  19.545  0.00  0.00    +0.000 HD
ATOM     29  H   UNL     1       3.775   6.573  20.448  0.00  0.00    +0.000 HD
BRANCH  27  30
ATOM     30  C   UNL     1       3.397   4.565  19.811  0.00  0.00    +0.000 C 
BRANCH  30  31
ATOM     31  C   UNL     1       4.675   4.073  19.141  0.00  0.00    +0.000 C 
BRANCH  31  32
ATOM     32  C   UNL     1       5.549   5.216  18.642  0.00  0.00    +0.000 C 
BRANCH  32  33
ATOM     33  O   UNL     1       6.908   4.787  18.688  0.00  0.00    +0.000 OA
BRANCH  33  34
ATOM     34  N   UNL     1       7.740   5.702  19.376  0.00  0.00    +0.000 N 
ATOM     35  O   UNL     1       8.221   6.630  18.722  0.00  0.00    +0.000 OA
ATOM     36  O   UNL     1       7.862   5.433  20.570  0.00  0.00    +0.000 OA
ENDBRANCH  33  34
ENDBRANCH  32  33
ENDBRANCH  31  32
ENDBRANCH  30  31
ENDBRANCH  27  30
ENDBRANCH  23  24
ENDBRANCH  22  23
ENDBRANCH   7  22
TORSDOF 10
ENDMDL
MODEL 7
REMARK VINA RESULT:      -7.1      4.976      8.565
REMARK  Name = 
REMARK  12 active torsions:
REMARK  status: ('A' for Active; 'I' for Inactive)
REMARK    1  A    between atoms: C_1  and  O_2
REMARK    2  A    between atoms: O_2  and  C_3
REMARK    3  A    between atoms: C_9  and  C_10
REMARK    4  A    between atoms: C_10  and  C_11
REMARK    5  A    between atoms: C_11  and  N_12
REMARK    6  A    between atoms: N_15  and  C_16
REMARK    7  A    between atoms: C_16  and  C_17
REMARK    8  A    between atoms: C_17  and  C_18
REMARK    9  A    between atoms: C_18  and  O_19
REMARK   10  A    between atoms: O_19  and  N_20
REMARK   11  A    between atoms: C_23  and  C_24
REMARK   12  A    between atoms: C_26  and  C_28
REMARK                            x       y       z     vdW  Elec       q    Type
REMARK                         _______ _______ _______ _____ _____    ______ ____
ROOT
ATOM      1  C   UNL     1       2.348   3.479  20.575  0.00  0.00    +0.000 A 
ATOM      2  C   UNL     1       1.458   4.507  20.849  0.00  0.00    +0.000 A 
ATOM      3  C   UNL     1       1.478   5.686  20.105  0.00  0.00    +0.000 A 
ATOM      4  C   UNL     1       2.476   5.878  19.132  0.00  0.00    +0.000 A 
ATOM      5  C   UNL     1       3.372   4.850  18.829  0.00  0.00    +0.000 A 
ATOM      6  C   UNL     1       3.312   3.645  19.573  0.00  0.00    +0.000 A 
ATOM      7  C   UNL     1       4.173   5.285  17.727  0.00  0.00    +0.000 A 
ATOM      8  C   UNL     1       3.770   6.577  17.411  0.00  0.00    +0.000 A 
ATOM      9  C   UNL     1       4.286   7.513  16.364  0.00  0.00    +0.000 C 
ATOM     10  N   UNL     1       2.772   6.974  18.311  0.00  0.00    +0.000 N 
ATOM     11  C   UNL     1       2.167   8.265  18.364  0.00  0.00    +0.000 C 
ATOM     12  O   UNL     1       2.165   8.945  17.338  0.00  0.00    +0.000 OA
ENDROOT
BRANCH  11  13
ATOM     13  C   UNL     1       1.512   8.859  19.556  0.00  0.00    +0.000 A 
ATOM     14  C   UNL     1       1.892   8.497  20.856  0.00  0.00    +0.000 A 
ATOM     15  C   UNL     1       1.122   8.914  21.942  0.00  0.00    +0.000 A 
ATOM     16  C   UNL     1       0.029   9.756  21.736  0.00  0.00    +0.000 A 
ATOM     17 CL   UNL     1      -0.975  10.189  23.062  0.00  0.00    +0.000 Cl
ATOM     18  C   UNL     1      -0.272  10.224  20.458  0.00  0.00    +0.000 A 
ATOM     19  C   UNL     1       0.471   9.776  19.364  0.00  0.00    +0.000 A 
ENDBRANCH  11  13
BRANCH   1  21
ATOM     20  C   UNL     1       1.370   2.152  22.258  0.00  0.00    +0.000 C 
ATOM     21  O   UNL     1       2.357   2.280  21.237  0.00  0.00    +0.000 OA
ENDBRANCH   1  21
BRANCH   7  22
ATOM     22  C   UNL     1       5.246   4.458  17.064  0.00  0.00    +0.000 C 
BRANCH  22  23
ATOM     23  C   UNL     1       6.583   4.502  17.826  0.00  0.00    +0.000 C 
BRANCH  23  24
ATOM     24  N   UNL     1       6.879   5.807  18.403  0.00  0.00    +0.000 N 
ATOM     25  C   UNL     1       7.447   6.785  17.637  0.00  0.00    +0.000 C 
ATOM     26  O   UNL     1       7.836   6.602  16.485  0.00  0.00    +0.000 OA
ATOM     27  N   UNL     1       7.598   7.975  18.291  0.00  0.00    +0.000 N 
ATOM     28  H   UNL     1       6.321   6.103  19.195  0.00  0.00    +0.000 HD
ATOM     29  H   UNL     1       7.198   8.089  19.207  0.00  0.00    +0.000 HD
BRANCH  27  30
ATOM     30  C   UNL     1       8.276   9.088  17.651  0.00  0.00    +0.000 C 
BRANCH  30  31
ATOM     31  C   UNL     1       8.856  10.086  18.646  0.00  0.00    +0.000 C 
BRANCH  31  32
ATOM     32  C   UNL     1       9.859  11.035  18.002  0.00  0.00    +0.000 C 
BRANCH  32  33
ATOM     33  O   UNL     1      10.020  12.159  18.863  0.00  0.00    +0.000 OA
BRANCH  33  34
ATOM     34  N   UNL     1      10.846  13.159  18.296  0.00  0.00    +0.000 N 
ATOM     35  O   UNL     1      10.643  14.324  18.645  0.00  0.00    +0.000 OA
ATOM     36  O   UNL     1      11.679  12.704  17.515  0.00  0.00    +0.000 OA
ENDBRANCH  33  34
ENDBRANCH  32  33
ENDBRANCH  31  32
ENDBRANCH  30  31
ENDBRANCH  27  30
ENDBRANCH  23  24
ENDBRANCH  22  23
ENDBRANCH   7  22
TORSDOF 10
ENDMDL
MODEL 8
REMARK VINA RESULT:      -7.1      2.728      3.557
REMARK  Name = 
REMARK  12 active torsions:
REMARK  status: ('A' for Active; 'I' for Inactive)
REMARK    1  A    between atoms: C_1  and  O_2
REMARK    2  A    between atoms: O_2  and  C_3
REMARK    3  A    between atoms: C_9  and  C_10
REMARK    4  A    between atoms: C_10  and  C_11
REMARK    5  A    between atoms: C_11  and  N_12
REMARK    6  A    between atoms: N_15  and  C_16
REMARK    7  A    between atoms: C_16  and  C_17
REMARK    8  A    between atoms: C_17  and  C_18
REMARK    9  A    between atoms: C_18  and  O_19
REMARK   10  A    between atoms: O_19  and  N_20
REMARK   11  A    between atoms: C_23  and  C_24
REMARK   12  A    between atoms: C_26  and  C_28
REMARK                            x       y       z     vdW  Elec       q    Type
REMARK                         _______ _______ _______ _____ _____    ______ ____
ROOT
ATOM      1  C   UNL     1       1.896  13.910  18.725  0.00  0.00    +0.000 A 
ATOM      2  C   UNL     1       1.276  14.449  19.841  0.00  0.00    +0.000 A 
ATOM      3  C   UNL     1       0.620  13.630  20.759  0.00  0.00    +0.000 A 
ATOM      4  C   UNL     1       0.497  12.252  20.498  0.00  0.00    +0.000 A 
ATOM      5  C   UNL     1       1.127  11.686  19.388  0.00  0.00    +0.000 A 
ATOM      6  C   UNL     1       1.820  12.533  18.486  0.00  0.00    +0.000 A 
ATOM      7  C   UNL     1       0.935  10.271  19.456  0.00  0.00    +0.000 A 
ATOM      8  C   UNL     1       0.164  10.015  20.584  0.00  0.00    +0.000 A 
ATOM      9  C   UNL     1      -0.353   8.716  21.116  0.00  0.00    +0.000 C 
ATOM     10  N   UNL     1      -0.164  11.232  21.195  0.00  0.00    +0.000 N 
ATOM     11  C   UNL     1      -1.014  11.389  22.329  0.00  0.00    +0.000 C 
ATOM     12  O   UNL     1      -1.134  10.435  23.099  0.00  0.00    +0.000 OA
ENDROOT
BRANCH  11  13
ATOM     13  C   UNL     1      -1.761  12.623  22.679  0.00  0.00    +0.000 A 
ATOM     14  C   UNL     1      -3.023  12.894  22.135  0.00  0.00    +0.000 A 
ATOM     15  C   UNL     1      -3.601  14.151  22.320  0.00  0.00    +0.000 A 
ATOM     16  C   UNL     1      -2.959  15.099  23.116  0.00  0.00    +0.000 A 
ATOM     17 CL   UNL     1      -3.623  16.678  23.264  0.00  0.00    +0.000 Cl
ATOM     18  C   UNL     1      -1.766  14.787  23.766  0.00  0.00    +0.000 A 
ATOM     19  C   UNL     1      -1.164  13.545  23.550  0.00  0.00    +0.000 A 
ENDBRANCH  11  13
BRANCH   1  21
ATOM     20  C   UNL     1       3.667  15.418  18.347  0.00  0.00    +0.000 C 
ATOM     21  O   UNL     1       2.594  14.651  17.807  0.00  0.00    +0.000 OA
ENDBRANCH   1  21
BRANCH   7  22
ATOM     22  C   UNL     1       1.488   9.279  18.463  0.00  0.00    +0.000 C 
BRANCH  22  23
ATOM     23  C   UNL     1       2.205   8.097  19.142  0.00  0.00    +0.000 C 
BRANCH  23  24
ATOM     24  N   UNL     1       2.741   7.125  18.197  0.00  0.00    +0.000 N 
ATOM     25  C   UNL     1       3.399   6.018  18.650  0.00  0.00    +0.000 C 
ATOM     26  O   UNL     1       3.673   5.829  19.833  0.00  0.00    +0.000 OA
ATOM     27  N   UNL     1       3.781   5.162  17.654  0.00  0.00    +0.000 N 
ATOM     28  H   UNL     1       2.294   7.062  17.290  0.00  0.00    +0.000 HD
ATOM     29  H   UNL     1       3.469   5.331  16.713  0.00  0.00    +0.000 HD
BRANCH  27  30
ATOM     30  C   UNL     1       4.578   3.988  17.956  0.00  0.00    +0.000 C 
BRANCH  30  31
ATOM     31  C   UNL     1       3.743   2.809  18.443  0.00  0.00    +0.000 C 
BRANCH  31  32
ATOM     32  C   UNL     1       2.616   2.457  17.480  0.00  0.00    +0.000 C 
BRANCH  32  33
ATOM     33  O   UNL     1       1.539   3.362  17.709  0.00  0.00    +0.000 OA
BRANCH  33  34
ATOM     34  N   UNL     1       0.814   3.052  18.884  0.00  0.00    +0.000 N 
ATOM     35  O   UNL     1       0.816   3.892  19.787  0.00  0.00    +0.000 OA
ATOM     36  O   UNL     1       0.262   1.955  18.831  0.00  0.00    +0.000 OA
ENDBRANCH  33  34
ENDBRANCH  32  33
ENDBRANCH  31  32
ENDBRANCH  30  31
ENDBRANCH  27  30
ENDBRANCH  23  24
ENDBRANCH  22  23
ENDBRANCH   7  22
TORSDOF 10
ENDMDL
MODEL 9
REMARK VINA RESULT:      -7.0      3.130      4.442
REMARK  Name = 
REMARK  12 active torsions:
REMARK  status: ('A' for Active; 'I' for Inactive)
REMARK    1  A    between atoms: C_1  and  O_2
REMARK    2  A    between atoms: O_2  and  C_3
REMARK    3  A    between atoms: C_9  and  C_10
REMARK    4  A    between atoms: C_10  and  C_11
REMARK    5  A    between atoms: C_11  and  N_12
REMARK    6  A    between atoms: N_15  and  C_16
REMARK    7  A    between atoms: C_16  and  C_17
REMARK    8  A    between atoms: C_17  and  C_18
REMARK    9  A    between atoms: C_18  and  O_19
REMARK   10  A    between atoms: O_19  and  N_20
REMARK   11  A    between atoms: C_23  and  C_24
REMARK   12  A    between atoms: C_26  and  C_28
REMARK                            x       y       z     vdW  Elec       q    Type
REMARK                         _______ _______ _______ _____ _____    ______ ____
ROOT
ATOM      1  C   UNL     1       1.928  14.000  18.726  0.00  0.00    +0.000 A 
ATOM      2  C   UNL     1       1.353  14.601  19.835  0.00  0.00    +0.000 A 
ATOM      3  C   UNL     1       0.670  13.842  20.784  0.00  0.00    +0.000 A 
ATOM      4  C   UNL     1       0.473  12.465  20.564  0.00  0.00    +0.000 A 
ATOM      5  C   UNL     1       1.057  11.837  19.462  0.00  0.00    +0.000 A 
ATOM      6  C   UNL     1       1.779  12.622  18.528  0.00  0.00    +0.000 A 
ATOM      7  C   UNL     1       0.795  10.436  19.573  0.00  0.00    +0.000 A 
ATOM      8  C   UNL     1       0.029  10.251  20.718  0.00  0.00    +0.000 A 
ATOM      9  C   UNL     1      -0.546   8.995  21.293  0.00  0.00    +0.000 C 
ATOM     10  N   UNL     1      -0.229  11.500  21.299  0.00  0.00    +0.000 N 
ATOM     11  C   UNL     1      -1.053  11.731  22.439  0.00  0.00    +0.000 C 
ATOM     12  O   UNL     1      -1.209  10.806  23.237  0.00  0.00    +0.000 OA
ENDROOT
BRANCH  11  13
ATOM     13  C   UNL     1      -1.731  13.011  22.764  0.00  0.00    +0.000 A 
ATOM     14  C   UNL     1      -1.257  13.853  23.779  0.00  0.00    +0.000 A 
ATOM     15  C   UNL     1      -2.031  14.936  24.196  0.00  0.00    +0.000 A 
ATOM     16  C   UNL     1      -3.230  15.224  23.545  0.00  0.00    +0.000 A 
ATOM     17 CL   UNL     1      -4.228  16.499  24.122  0.00  0.00    +0.000 Cl
ATOM     18  C   UNL     1      -3.639  14.467  22.448  0.00  0.00    +0.000 A 
ATOM     19  C   UNL     1      -2.888  13.357  22.055  0.00  0.00    +0.000 A 
ENDBRANCH  11  13
BRANCH   1  21
ATOM     20  C   UNL     1       3.815  15.336  18.269  0.00  0.00    +0.000 C 
ATOM     21  O   UNL     1       2.649  14.678  17.778  0.00  0.00    +0.000 OA
ENDBRANCH   1  21
BRANCH   7  22
ATOM     22  C   UNL     1       1.281   9.390  18.601  0.00  0.00    +0.000 C 
BRANCH  22  23
ATOM     23  C   UNL     1       2.056   8.253  19.292  0.00  0.00    +0.000 C 
BRANCH  23  24
ATOM     24  N   UNL     1       2.946   7.528  18.394  0.00  0.00    +0.000 N 
ATOM     25  C   UNL     1       3.323   6.248  18.684  0.00  0.00    +0.000 C 
ATOM     26  O   UNL     1       3.041   5.681  19.738  0.00  0.00    +0.000 OA
ATOM     27  N   UNL     1       4.098   5.673  17.717  0.00  0.00    +0.000 N 
ATOM     28  H   UNL     1       2.947   7.803  17.419  0.00  0.00    +0.000 HD
ATOM     29  H   UNL     1       4.239   6.156  16.846  0.00  0.00    +0.000 HD
BRANCH  27  30
ATOM     30  C   UNL     1       4.666   4.352  17.916  0.00  0.00    +0.000 C 
BRANCH  30  31
ATOM     31  C   UNL     1       4.616   3.486  16.662  0.00  0.00    +0.000 C 
BRANCH  31  32
ATOM     32  C   UNL     1       5.851   3.654  15.788  0.00  0.00    +0.000 C 
BRANCH  32  33
ATOM     33  O   UNL     1       6.826   4.379  16.533  0.00  0.00    +0.000 OA
BRANCH  33  34
ATOM     34  N   UNL     1       7.336   5.490  15.819  0.00  0.00    +0.000 N 
ATOM     35  O   UNL     1       7.555   5.335  14.616  0.00  0.00    +0.000 OA
ATOM     36  O   UNL     1       7.487   6.484  16.526  0.00  0.00    +0.000 OA
ENDBRANCH  33  34
ENDBRANCH  32  33
ENDBRANCH  31  32
ENDBRANCH  30  31
ENDBRANCH  27  30
ENDBRANCH  23  24
ENDBRANCH  22  23
ENDBRANCH   7  22
TORSDOF 10
ENDMDL
