MODEL 1
REMARK VINA RESULT:      -6.6      0.000      0.000
REMARK  Name = 
REMARK  8 active torsions:
REMARK  status: ('A' for Active; 'I' for Inactive)
REMARK    1  A    between atoms: N_6  and  C_7
REMARK    2  A    between atoms: C_9  and  O_10
REMARK    3  A    between atoms: C_11  and  C_12
REMARK    4  A    between atoms: C_12  and  O_13
REMARK    5  A    between atoms: O_13  and  P_14
REMARK    6  A    between atoms: P_14  and  O_16
REMARK    7  A    between atoms: P_14  and  O_17
REMARK    8  A    between atoms: C_20  and  S_21
REMARK                            x       y       z     vdW  Elec       q    Type
REMARK                         _______ _______ _______ _____ _____    ______ ____
ROOT
ATOM      1  C   UNL     1       3.171   3.686  19.235  0.00  0.00    +0.000 C 
ATOM      2  C   UNL     1       2.389   2.812  18.258  0.00  0.00    +0.000 C 
ATOM      3  C   UNL     1       3.466   2.029  17.549  0.00  0.00    +0.000 C 
ATOM      4  C   UNL     1       4.624   3.012  17.493  0.00  0.00    +0.000 C 
ATOM      5  O   UNL     1       4.487   3.852  18.663  0.00  0.00    +0.000 OA
ENDROOT
BRANCH   1  11
ATOM      6  O   UNL     1       1.402   8.693  20.642  0.00  0.00    +0.000 OA
ATOM      7  C   UNL     1       1.751   7.580  20.263  0.00  0.00    +0.000 A 
ATOM      8  N   UNL     1       1.683   6.503  21.102  0.00  0.00    +0.000 N 
ATOM      9  C   UNL     1       2.168   5.247  20.859  0.00  0.00    +0.000 A 
ATOM     10  O   UNL     1       2.211   4.433  21.777  0.00  0.00    +0.000 OA
ATOM     11  N   UNL     1       2.587   4.997  19.556  0.00  0.00    +0.000 N 
ATOM     12  C   UNL     1       2.682   6.037  18.636  0.00  0.00    +0.000 A 
ATOM     13  C   UNL     1       2.302   7.293  18.908  0.00  0.00    +0.000 A 
ATOM     14  H   UNL     1       1.368   6.687  22.042  0.00  0.00    +0.000 HD
BRANCH  13  15
ATOM     15  S   UNL     1       2.449   8.600  17.790  0.00  0.00    +0.000 S 
ATOM     16  H   UNL     1       2.014   7.996  16.676  0.00  0.00    +0.000 HD
ENDBRANCH  13  15
ENDBRANCH   1  11
BRANCH   3  17
ATOM     17  O   UNL     1       3.807   0.877  18.323  0.00  0.00    +0.000 OA
ATOM     18  H   UNL     1       3.679   1.076  19.267  0.00  0.00    +0.000 HD
ENDBRANCH   3  17
BRANCH   4  19
ATOM     19  C   UNL     1       4.605   3.877  16.230  0.00  0.00    +0.000 C 
BRANCH  19  20
ATOM     20  O   UNL     1       5.892   3.824  15.626  0.00  0.00    +0.000 OA
BRANCH  20  21
ATOM     21  P   UNL     1       6.983   4.909  16.045  0.00  0.00    +0.000 P 
ATOM     22  O   UNL     1       7.683   5.607  14.931  0.00  0.00    +0.000 OA
BRANCH  21  23
ATOM     23  O   UNL     1       6.207   5.919  17.008  0.00  0.00    +0.000 OA
ATOM     24  H   UNL     1       5.630   5.431  17.623  0.00  0.00    +0.000 HD
ENDBRANCH  21  23
BRANCH  21  25
ATOM     25  O   UNL     1       7.985   4.166  17.037  0.00  0.00    +0.000 OA
ATOM     26  H   UNL     1       7.486   3.703  17.735  0.00  0.00    +0.000 HD
ENDBRANCH  21  25
ENDBRANCH  20  21
ENDBRANCH  19  20
ENDBRANCH   4  19
TORSDOF 8
ENDMDL
MODEL 2
REMARK VINA RESULT:      -6.6      0.283      1.044
REMARK  Name = 
REMARK  8 active torsions:
REMARK  status: ('A' for Active; 'I' for Inactive)
REMARK    1  A    between atoms: N_6  and  C_7
REMARK    2  A    between atoms: C_9  and  O_10
REMARK    3  A    between atoms: C_11  and  C_12
REMARK    4  A    between atoms: C_12  and  O_13
REMARK    5  A    between atoms: O_13  and  P_14
REMARK    6  A    between atoms: P_14  and  O_16
REMARK    7  A    between atoms: P_14  and  O_17
REMARK    8  A    between atoms: C_20  and  S_21
REMARK                            x       y       z     vdW  Elec       q    Type
REMARK                         _______ _______ _______ _____ _____    ______ ____
ROOT
ATOM      1  C   UNL     1       3.179   3.830  19.134  0.00  0.00    +0.000 C 
ATOM      2  C   UNL     1       2.396   2.964  18.151  0.00  0.00    +0.000 C 
ATOM      3  C   UNL     1       3.474   2.215  17.409  0.00  0.00    +0.000 C 
ATOM      4  C   UNL     1       4.615   3.218  17.356  0.00  0.00    +0.000 C 
ATOM      5  O   UNL     1       4.483   4.031  18.546  0.00  0.00    +0.000 OA
ENDROOT
BRANCH   1  11
ATOM      6  O   UNL     1       1.348   8.773  20.683  0.00  0.00    +0.000 OA
ATOM      7  C   UNL     1       1.711   7.675  20.272  0.00  0.00    +0.000 A 
ATOM      8  N   UNL     1       1.663   6.575  21.083  0.00  0.00    +0.000 N 
ATOM      9  C   UNL     1       2.165   5.333  20.805  0.00  0.00    +0.000 A 
ATOM     10  O   UNL     1       2.226   4.497  21.702  0.00  0.00    +0.000 OA
ATOM     11  N   UNL     1       2.579   5.124  19.493  0.00  0.00    +0.000 N 
ATOM     12  C   UNL     1       2.653   6.188  18.600  0.00  0.00    +0.000 A 
ATOM     13  C   UNL     1       2.257   7.431  18.907  0.00  0.00    +0.000 A 
ATOM     14  H   UNL     1       1.352   6.731  22.030  0.00  0.00    +0.000 HD
BRANCH  13  15
ATOM     15  S   UNL     1       2.378   8.768  17.823  0.00  0.00    +0.000 S 
ATOM     16  H   UNL     1       2.359   8.115  16.652  0.00  0.00    +0.000 HD
ENDBRANCH  13  15
ENDBRANCH   1  11
BRANCH   3  17
ATOM     17  O   UNL     1       3.847   1.052  18.152  0.00  0.00    +0.000 OA
ATOM     18  H   UNL     1       4.028   0.322  17.534  0.00  0.00    +0.000 HD
ENDBRANCH   3  17
BRANCH   4  19
ATOM     19  C   UNL     1       4.561   4.110  16.112  0.00  0.00    +0.000 C 
BRANCH  19  20
ATOM     20  O   UNL     1       5.803   4.006  15.427  0.00  0.00    +0.000 OA
BRANCH  20  21
ATOM     21  P   UNL     1       7.001   4.968  15.857  0.00  0.00    +0.000 P 
ATOM     22  O   UNL     1       7.944   4.433  16.877  0.00  0.00    +0.000 OA
BRANCH  21  23
ATOM     23  O   UNL     1       7.731   5.349  14.489  0.00  0.00    +0.000 OA
ATOM     24  H   UNL     1       7.337   4.863  13.743  0.00  0.00    +0.000 HD
ENDBRANCH  21  23
BRANCH  21  25
ATOM     25  O   UNL     1       6.325   6.343  16.298  0.00  0.00    +0.000 OA
ATOM     26  H   UNL     1       7.011   7.003  16.505  0.00  0.00    +0.000 HD
ENDBRANCH  21  25
ENDBRANCH  20  21
ENDBRANCH  19  20
ENDBRANCH   4  19
TORSDOF 8
ENDMDL
MODEL 3
REMARK VINA RESULT:      -6.4      1.024      1.467
REMARK  Name = 
REMARK  8 active torsions:
REMARK  status: ('A' for Active; 'I' for Inactive)
REMARK    1  A    between atoms: N_6  and  C_7
REMARK    2  A    between atoms: C_9  and  O_10
REMARK    3  A    between atoms: C_11  and  C_12
REMARK    4  A    between atoms: C_12  and  O_13
REMARK    5  A    between atoms: O_13  and  P_14
REMARK    6  A    between atoms: P_14  and  O_16
REMARK    7  A    between atoms: P_14  and  O_17
REMARK    8  A    between atoms: C_20  and  S_21
REMARK                            x       y       z     vdW  Elec       q    Type
REMARK                         _______ _______ _______ _____ _____    ______ ____
ROOT
ATOM      1  C   UNL     1       3.114   4.228  18.995  0.00  0.00    +0.000 C 
ATOM      2  C   UNL     1       3.015   3.866  17.515  0.00  0.00    +0.000 C 
ATOM      3  C   UNL     1       4.280   3.087  17.259  0.00  0.00    +0.000 C 
ATOM      4  C   UNL     1       5.286   3.752  18.186  0.00  0.00    +0.000 C 
ATOM      5  O   UNL     1       4.522   4.239  19.314  0.00  0.00    +0.000 OA
ENDROOT
BRANCH   1  11
ATOM      6  O   UNL     1       1.192   9.071  20.737  0.00  0.00    +0.000 OA
ATOM      7  C   UNL     1       1.575   7.997  20.284  0.00  0.00    +0.000 A 
ATOM      8  N   UNL     1       1.554   6.867  21.053  0.00  0.00    +0.000 N 
ATOM      9  C   UNL     1       2.079   5.647  20.726  0.00  0.00    +0.000 A 
ATOM     10  O   UNL     1       2.162   4.779  21.590  0.00  0.00    +0.000 OA
ATOM     11  N   UNL     1       2.489   5.495  19.405  0.00  0.00    +0.000 N 
ATOM     12  C   UNL     1       2.537   6.593  18.552  0.00  0.00    +0.000 A 
ATOM     13  C   UNL     1       2.117   7.815  18.908  0.00  0.00    +0.000 A 
ATOM     14  H   UNL     1       1.246   6.980  22.006  0.00  0.00    +0.000 HD
BRANCH  13  15
ATOM     15  S   UNL     1       2.205   9.194  17.873  0.00  0.00    +0.000 S 
ATOM     16  H   UNL     1       2.593  10.121  18.761  0.00  0.00    +0.000 HD
ENDBRANCH  13  15
ENDBRANCH   1  11
BRANCH   3  17
ATOM     17  O   UNL     1       4.079   1.718  17.617  0.00  0.00    +0.000 OA
ATOM     18  H   UNL     1       4.924   1.337  17.914  0.00  0.00    +0.000 HD
ENDBRANCH   3  17
BRANCH   4  19
ATOM     19  C   UNL     1       6.025   4.915  17.518  0.00  0.00    +0.000 C 
BRANCH  19  20
ATOM     20  O   UNL     1       6.918   4.386  16.547  0.00  0.00    +0.000 OA
BRANCH  20  21
ATOM     21  P   UNL     1       6.730   4.806  15.020  0.00  0.00    +0.000 P 
ATOM     22  O   UNL     1       7.879   5.504  14.379  0.00  0.00    +0.000 OA
BRANCH  21  23
ATOM     23  O   UNL     1       6.341   3.452  14.268  0.00  0.00    +0.000 OA
ATOM     24  H   UNL     1       5.799   2.883  14.845  0.00  0.00    +0.000 HD
ENDBRANCH  21  23
BRANCH  21  25
ATOM     25  O   UNL     1       5.380   5.650  14.958  0.00  0.00    +0.000 OA
ATOM     26  H   UNL     1       5.124   5.810  14.031  0.00  0.00    +0.000 HD
ENDBRANCH  21  25
ENDBRANCH  20  21
ENDBRANCH  19  20
ENDBRANCH   4  19
TORSDOF 8
ENDMDL
MODEL 4
REMARK VINA RESULT:      -6.3      3.066      5.222
REMARK  Name = 
REMARK  8 active torsions:
REMARK  status: ('A' for Active; 'I' for Inactive)
REMARK    1  A    between atoms: N_6  and  C_7
REMARK    2  A    between atoms: C_9  and  O_10
REMARK    3  A    between atoms: C_11  and  C_12
REMARK    4  A    between atoms: C_12  and  O_13
REMARK    5  A    between atoms: O_13  and  P_14
REMARK    6  A    between atoms: P_14  and  O_16
REMARK    7  A    between atoms: P_14  and  O_17
REMARK    8  A    between atoms: C_20  and  S_21
REMARK                            x       y       z     vdW  Elec       q    Type
REMARK                         _______ _______ _______ _____ _____    ______ ____
ROOT
ATOM      1  C   UNL     1       2.861   3.129  17.620  0.00  0.00    +0.000 C 
ATOM      2  C   UNL     1       2.682   1.983  18.613  0.00  0.00    +0.000 C 
ATOM      3  C   UNL     1       1.286   2.193  19.143  0.00  0.00    +0.000 C 
ATOM      4  C   UNL     1       1.143   3.707  19.141  0.00  0.00    +0.000 C 
ATOM      5  O   UNL     1       1.973   4.181  18.054  0.00  0.00    +0.000 OA
ENDROOT
BRANCH   1  11
ATOM      6  O   UNL     1       8.111   4.628  17.015  0.00  0.00    +0.000 OA
ATOM      7  C   UNL     1       6.918   4.357  17.107  0.00  0.00    +0.000 A 
ATOM      8  N   UNL     1       6.350   4.108  18.326  0.00  0.00    +0.000 N 
ATOM      9  C   UNL     1       5.079   3.659  18.557  0.00  0.00    +0.000 A 
ATOM     10  O   UNL     1       4.769   3.293  19.688  0.00  0.00    +0.000 OA
ATOM     11  N   UNL     1       4.226   3.651  17.458  0.00  0.00    +0.000 N 
ATOM     12  C   UNL     1       4.722   3.897  16.181  0.00  0.00    +0.000 A 
ATOM     13  C   UNL     1       5.996   4.237  15.943  0.00  0.00    +0.000 A 
ATOM     14  H   UNL     1       6.971   4.126  19.121  0.00  0.00    +0.000 HD
BRANCH  13  15
ATOM     15  S   UNL     1       6.633   4.509  14.362  0.00  0.00    +0.000 S 
ATOM     16  H   UNL     1       5.538   4.265  13.629  0.00  0.00    +0.000 HD
ENDBRANCH  13  15
ENDBRANCH   1  11
BRANCH   3  17
ATOM     17  O   UNL     1       0.342   1.587  18.258  0.00  0.00    +0.000 OA
ATOM     18  H   UNL     1      -0.155   0.902  18.740  0.00  0.00    +0.000 HD
ENDBRANCH   3  17
BRANCH   4  19
ATOM     19  C   UNL     1       1.597   4.346  20.456  0.00  0.00    +0.000 C 
BRANCH  19  20
ATOM     20  O   UNL     1       1.157   5.698  20.478  0.00  0.00    +0.000 OA
BRANCH  20  21
ATOM     21  P   UNL     1       2.145   6.836  19.957  0.00  0.00    +0.000 P 
ATOM     22  O   UNL     1       1.833   7.423  18.624  0.00  0.00    +0.000 OA
BRANCH  21  23
ATOM     23  O   UNL     1       2.159   7.930  21.119  0.00  0.00    +0.000 OA
ATOM     24  H   UNL     1       3.010   8.406  21.132  0.00  0.00    +0.000 HD
ENDBRANCH  21  23
BRANCH  21  25
ATOM     25  O   UNL     1       3.611   6.215  20.032  0.00  0.00    +0.000 OA
ATOM     26  H   UNL     1       4.216   6.709  19.449  0.00  0.00    +0.000 HD
ENDBRANCH  21  25
ENDBRANCH  20  21
ENDBRANCH  19  20
ENDBRANCH   4  19
TORSDOF 8
ENDMDL
MODEL 5
REMARK VINA RESULT:      -6.2      2.738      5.261
REMARK  Name = 
REMARK  8 active torsions:
REMARK  status: ('A' for Active; 'I' for Inactive)
REMARK    1  A    between atoms: N_6  and  C_7
REMARK    2  A    between atoms: C_9  and  O_10
REMARK    3  A    between atoms: C_11  and  C_12
REMARK    4  A    between atoms: C_12  and  O_13
REMARK    5  A    between atoms: O_13  and  P_14
REMARK    6  A    between atoms: P_14  and  O_16
REMARK    7  A    between atoms: P_14  and  O_17
REMARK    8  A    between atoms: C_20  and  S_21
REMARK                            x       y       z     vdW  Elec       q    Type
REMARK                         _______ _______ _______ _____ _____    ______ ____
ROOT
ATOM      1  C   UNL     1       4.188   6.076  19.404  0.00  0.00    +0.000 C 
ATOM      2  C   UNL     1       2.889   6.672  18.867  0.00  0.00    +0.000 C 
ATOM      3  C   UNL     1       1.853   6.206  19.859  0.00  0.00    +0.000 C 
ATOM      4  C   UNL     1       2.370   4.839  20.278  0.00  0.00    +0.000 C 
ATOM      5  O   UNL     1       3.811   4.910  20.168  0.00  0.00    +0.000 OA
ENDROOT
BRANCH   1  11
ATOM      6  O   UNL     1       7.955   4.304  15.820  0.00  0.00    +0.000 OA
ATOM      7  C   UNL     1       7.094   4.756  16.568  0.00  0.00    +0.000 A 
ATOM      8  N   UNL     1       7.387   5.056  17.869  0.00  0.00    +0.000 N 
ATOM      9  C   UNL     1       6.499   5.427  18.841  0.00  0.00    +0.000 A 
ATOM     10  O   UNL     1       6.874   5.474  20.010  0.00  0.00    +0.000 OA
ATOM     11  N   UNL     1       5.210   5.722  18.408  0.00  0.00    +0.000 N 
ATOM     12  C   UNL     1       4.829   5.452  17.097  0.00  0.00    +0.000 A 
ATOM     13  C   UNL     1       5.677   4.989  16.169  0.00  0.00    +0.000 A 
ATOM     14  H   UNL     1       8.326   4.850  18.175  0.00  0.00    +0.000 HD
BRANCH  13  15
ATOM     15  S   UNL     1       5.210   4.614  14.550  0.00  0.00    +0.000 S 
ATOM     16  H   UNL     1       4.010   4.065  14.780  0.00  0.00    +0.000 HD
ENDBRANCH  13  15
ENDBRANCH   1  11
BRANCH   3  17
ATOM     17  O   UNL     1       1.817   7.104  20.970  0.00  0.00    +0.000 OA
ATOM     18  H   UNL     1       2.703   7.485  21.103  0.00  0.00    +0.000 HD
ENDBRANCH   3  17
BRANCH   4  19
ATOM     19  C   UNL     1       1.838   3.709  19.392  0.00  0.00    +0.000 C 
BRANCH  19  20
ATOM     20  O   UNL     1       2.562   2.522  19.689  0.00  0.00    +0.000 OA
BRANCH  20  21
ATOM     21  P   UNL     1       3.661   2.011  18.652  0.00  0.00    +0.000 P 
ATOM     22  O   UNL     1       3.516   2.486  17.248  0.00  0.00    +0.000 OA
BRANCH  21  23
ATOM     23  O   UNL     1       5.060   2.430  19.298  0.00  0.00    +0.000 OA
ATOM     24  H   UNL     1       5.583   1.640  19.525  0.00  0.00    +0.000 HD
ENDBRANCH  21  23
BRANCH  21  25
ATOM     25  O   UNL     1       3.674   0.421  18.770  0.00  0.00    +0.000 OA
ATOM     26  H   UNL     1       2.896   0.044  18.321  0.00  0.00    +0.000 HD
ENDBRANCH  21  25
ENDBRANCH  20  21
ENDBRANCH  19  20
ENDBRANCH   4  19
TORSDOF 8
ENDMDL
MODEL 6
REMARK VINA RESULT:      -6.1      2.947      4.334
REMARK  Name = 
REMARK  8 active torsions:
REMARK  status: ('A' for Active; 'I' for Inactive)
REMARK    1  A    between atoms: N_6  and  C_7
REMARK    2  A    between atoms: C_9  and  O_10
REMARK    3  A    between atoms: C_11  and  C_12
REMARK    4  A    between atoms: C_12  and  O_13
REMARK    5  A    between atoms: O_13  and  P_14
REMARK    6  A    between atoms: P_14  and  O_16
REMARK    7  A    between atoms: P_14  and  O_17
REMARK    8  A    between atoms: C_20  and  S_21
REMARK                            x       y       z     vdW  Elec       q    Type
REMARK                         _______ _______ _______ _____ _____    ______ ____
ROOT
ATOM      1  C   UNL     1       5.556   6.160  18.531  0.00  0.00    +0.000 C 
ATOM      2  C   UNL     1       6.661   5.553  19.392  0.00  0.00    +0.000 C 
ATOM      3  C   UNL     1       7.926   5.970  18.685  0.00  0.00    +0.000 C 
ATOM      4  C   UNL     1       7.517   5.966  17.221  0.00  0.00    +0.000 C 
ATOM      5  O   UNL     1       6.107   6.292  17.203  0.00  0.00    +0.000 OA
ENDROOT
BRANCH   1  11
ATOM      6  O   UNL     1       0.837   3.425  17.876  0.00  0.00    +0.000 OA
ATOM      7  C   UNL     1       1.902   3.996  18.090  0.00  0.00    +0.000 A 
ATOM      8  N   UNL     1       1.984   5.360  18.055  0.00  0.00    +0.000 N 
ATOM      9  C   UNL     1       3.124   6.112  18.131  0.00  0.00    +0.000 A 
ATOM     10  O   UNL     1       3.066   7.314  17.889  0.00  0.00    +0.000 OA
ATOM     11  N   UNL     1       4.283   5.426  18.482  0.00  0.00    +0.000 N 
ATOM     12  C   UNL     1       4.286   4.036  18.545  0.00  0.00    +0.000 A 
ATOM     13  C   UNL     1       3.186   3.292  18.366  0.00  0.00    +0.000 A 
ATOM     14  H   UNL     1       1.138   5.852  17.811  0.00  0.00    +0.000 HD
BRANCH  13  15
ATOM     15  S   UNL     1       3.183   1.566  18.404  0.00  0.00    +0.000 S 
ATOM     16  H   UNL     1       1.953   1.330  17.928  0.00  0.00    +0.000 HD
ENDBRANCH  13  15
ENDBRANCH   1  11
BRANCH   3  17
ATOM     17  O   UNL     1       8.301   7.282  19.110  0.00  0.00    +0.000 OA
ATOM     18  H   UNL     1       8.971   7.211  19.814  0.00  0.00    +0.000 HD
ENDBRANCH   3  17
BRANCH   4  19
ATOM     19  C   UNL     1       7.744   4.610  16.547  0.00  0.00    +0.000 C 
BRANCH  19  20
ATOM     20  O   UNL     1       7.510   4.753  15.152  0.00  0.00    +0.000 OA
BRANCH  20  21
ATOM     21  P   UNL     1       6.197   4.101  14.522  0.00  0.00    +0.000 P 
ATOM     22  O   UNL     1       6.292   3.662  13.102  0.00  0.00    +0.000 OA
BRANCH  21  23
ATOM     23  O   UNL     1       5.820   2.905  15.509  0.00  0.00    +0.000 OA
ATOM     24  H   UNL     1       4.939   3.047  15.900  0.00  0.00    +0.000 HD
ENDBRANCH  21  23
BRANCH  21  25
ATOM     25  O   UNL     1       5.023   5.151  14.768  0.00  0.00    +0.000 OA
ATOM     26  H   UNL     1       4.158   4.735  14.600  0.00  0.00    +0.000 HD
ENDBRANCH  21  25
ENDBRANCH  20  21
ENDBRANCH  19  20
ENDBRANCH   4  19
TORSDOF 8
ENDMDL
MODEL 7
REMARK VINA RESULT:      -6.1      2.940      4.705
REMARK  Name = 
REMARK  8 active torsions:
REMARK  status: ('A' for Active; 'I' for Inactive)
REMARK    1  A    between atoms: N_6  and  C_7
REMARK    2  A    between atoms: C_9  and  O_10
REMARK    3  A    between atoms: C_11  and  C_12
REMARK    4  A    between atoms: C_12  and  O_13
REMARK    5  A    between atoms: O_13  and  P_14
REMARK    6  A    between atoms: P_14  and  O_16
REMARK    7  A    between atoms: P_14  and  O_17
REMARK    8  A    between atoms: C_20  and  S_21
REMARK                            x       y       z     vdW  Elec       q    Type
REMARK                         _______ _______ _______ _____ _____    ______ ____
ROOT
ATOM      1  C   UNL     1       2.135   4.443  17.873  0.00  0.00    +0.000 C 
ATOM      2  C   UNL     1       2.284   2.926  17.785  0.00  0.00    +0.000 C 
ATOM      3  C   UNL     1       1.420   2.423  18.914  0.00  0.00    +0.000 C 
ATOM      4  C   UNL     1       1.575   3.504  19.971  0.00  0.00    +0.000 C 
ATOM      5  O   UNL     1       1.803   4.736  19.248  0.00  0.00    +0.000 OA
ENDROOT
BRANCH   1  11
ATOM      6  O   UNL     1       6.628   7.391  16.732  0.00  0.00    +0.000 OA
ATOM      7  C   UNL     1       5.627   6.706  16.912  0.00  0.00    +0.000 A 
ATOM      8  N   UNL     1       4.491   7.253  17.441  0.00  0.00    +0.000 N 
ATOM      9  C   UNL     1       3.363   6.581  17.824  0.00  0.00    +0.000 A 
ATOM     10  O   UNL     1       2.499   7.175  18.463  0.00  0.00    +0.000 OA
ATOM     11  N   UNL     1       3.294   5.243  17.449  0.00  0.00    +0.000 N 
ATOM     12  C   UNL     1       4.404   4.608  16.900  0.00  0.00    +0.000 A 
ATOM     13  C   UNL     1       5.549   5.247  16.620  0.00  0.00    +0.000 A 
ATOM     14  H   UNL     1       4.542   8.226  17.701  0.00  0.00    +0.000 HD
BRANCH  13  15
ATOM     15  S   UNL     1       6.946   4.465  15.974  0.00  0.00    +0.000 S 
ATOM     16  H   UNL     1       7.904   5.241  16.497  0.00  0.00    +0.000 HD
ENDBRANCH  13  15
ENDBRANCH   1  11
BRANCH   3  17
ATOM     17  O   UNL     1       0.064   2.327  18.472  0.00  0.00    +0.000 OA
ATOM     18  H   UNL     1      -0.199   3.168  18.058  0.00  0.00    +0.000 HD
ENDBRANCH   3  17
BRANCH   4  19
ATOM     19  C   UNL     1       2.745   3.238  20.923  0.00  0.00    +0.000 C 
BRANCH  19  20
ATOM     20  O   UNL     1       3.194   1.903  20.724  0.00  0.00    +0.000 OA
BRANCH  20  21
ATOM     21  P   UNL     1       4.740   1.649  20.421  0.00  0.00    +0.000 P 
ATOM     22  O   UNL     1       5.583   1.246  21.580  0.00  0.00    +0.000 OA
BRANCH  21  23
ATOM     23  O   UNL     1       4.754   0.566  19.249  0.00  0.00    +0.000 OA
ATOM     24  H   UNL     1       3.971  -0.011  19.305  0.00  0.00    +0.000 HD
ENDBRANCH  21  23
BRANCH  21  25
ATOM     25  O   UNL     1       5.269   2.967  19.698  0.00  0.00    +0.000 OA
ATOM     26  H   UNL     1       5.158   3.739  20.282  0.00  0.00    +0.000 HD
ENDBRANCH  21  25
ENDBRANCH  20  21
ENDBRANCH  19  20
ENDBRANCH   4  19
TORSDOF 8
ENDMDL
MODEL 8
REMARK VINA RESULT:      -6.1      2.118      3.713
REMARK  Name = 
REMARK  8 active torsions:
REMARK  status: ('A' for Active; 'I' for Inactive)
REMARK    1  A    between atoms: N_6  and  C_7
REMARK    2  A    between atoms: C_9  and  O_10
REMARK    3  A    between atoms: C_11  and  C_12
REMARK    4  A    between atoms: C_12  and  O_13
REMARK    5  A    between atoms: O_13  and  P_14
REMARK    6  A    between atoms: P_14  and  O_16
REMARK    7  A    between atoms: P_14  and  O_17
REMARK    8  A    between atoms: C_20  and  S_21
REMARK                            x       y       z     vdW  Elec       q    Type
REMARK                         _______ _______ _______ _____ _____    ______ ____
ROOT
ATOM      1  C   UNL     1       4.643   3.675  16.101  0.00  0.00    +0.000 C 
ATOM      2  C   UNL     1       4.866   4.774  15.064  0.00  0.00    +0.000 C 
ATOM      3  C   UNL     1       6.286   4.545  14.610  0.00  0.00    +0.000 C 
ATOM      4  C   UNL     1       6.970   4.035  15.869  0.00  0.00    +0.000 C 
ATOM      5  O   UNL     1       5.948   3.342  16.622  0.00  0.00    +0.000 OA
ENDROOT
BRANCH   1  11
ATOM      6  O   UNL     1       1.563   4.798  20.509  0.00  0.00    +0.000 OA
ATOM      7  C   UNL     1       2.205   4.596  19.482  0.00  0.00    +0.000 A 
ATOM      8  N   UNL     1       2.463   3.322  19.059  0.00  0.00    +0.000 N 
ATOM      9  C   UNL     1       3.277   2.955  18.023  0.00  0.00    +0.000 A 
ATOM     10  O   UNL     1       3.570   1.772  17.880  0.00  0.00    +0.000 OA
ATOM     11  N   UNL     1       3.720   3.988  17.201  0.00  0.00    +0.000 N 
ATOM     12  C   UNL     1       3.496   5.314  17.557  0.00  0.00    +0.000 A 
ATOM     13  C   UNL     1       2.783   5.675  18.632  0.00  0.00    +0.000 A 
ATOM     14  H   UNL     1       2.130   2.577  19.652  0.00  0.00    +0.000 HD
BRANCH  13  15
ATOM     15  S   UNL     1       2.529   7.315  19.105  0.00  0.00    +0.000 S 
ATOM     16  H   UNL     1       3.546   7.464  19.966  0.00  0.00    +0.000 HD
ENDBRANCH  13  15
ENDBRANCH   1  11
BRANCH   3  17
ATOM     17  O   UNL     1       6.304   3.555  13.579  0.00  0.00    +0.000 OA
ATOM     18  H   UNL     1       5.393   3.262  13.400  0.00  0.00    +0.000 HD
ENDBRANCH   3  17
BRANCH   4  19
ATOM     19  C   UNL     1       7.564   5.164  16.717  0.00  0.00    +0.000 C 
BRANCH  19  20
ATOM     20  O   UNL     1       7.861   4.651  18.009  0.00  0.00    +0.000 OA
BRANCH  20  21
ATOM     21  P   UNL     1       7.628   5.585  19.280  0.00  0.00    +0.000 P 
ATOM     22  O   UNL     1       6.238   5.646  19.810  0.00  0.00    +0.000 OA
BRANCH  21  23
ATOM     23  O   UNL     1       8.675   5.066  20.368  0.00  0.00    +0.000 OA
ATOM     24  H   UNL     1       9.409   5.698  20.467  0.00  0.00    +0.000 HD
ENDBRANCH  21  23
BRANCH  21  25
ATOM     25  O   UNL     1       8.204   7.018  18.885  0.00  0.00    +0.000 OA
ATOM     26  H   UNL     1       8.409   7.531  19.688  0.00  0.00    +0.000 HD
ENDBRANCH  21  25
ENDBRANCH  20  21
ENDBRANCH  19  20
ENDBRANCH   4  19
TORSDOF 8
ENDMDL
MODEL 9
REMARK VINA RESULT:      -6.0      2.048      2.702
REMARK  Name = 
REMARK  8 active torsions:
REMARK  status: ('A' for Active; 'I' for Inactive)
REMARK    1  A    between atoms: N_6  and  C_7
REMARK    2  A    between atoms: C_9  and  O_10
REMARK    3  A    between atoms: C_11  and  C_12
REMARK    4  A    between atoms: C_12  and  O_13
REMARK    5  A    between atoms: O_13  and  P_14
REMARK    6  A    between atoms: P_14  and  O_16
REMARK    7  A    between atoms: P_14  and  O_17
REMARK    8  A    between atoms: C_20  and  S_21
REMARK                            x       y       z     vdW  Elec       q    Type
REMARK                         _______ _______ _______ _____ _____    ______ ____
ROOT
ATOM      1  C   UNL     1       3.536   5.411  19.257  0.00  0.00    +0.000 C 
ATOM      2  C   UNL     1       3.372   4.510  18.035  0.00  0.00    +0.000 C 
ATOM      3  C   UNL     1       4.607   3.645  18.069  0.00  0.00    +0.000 C 
ATOM      4  C   UNL     1       5.663   4.578  18.640  0.00  0.00    +0.000 C 
ATOM      5  O   UNL     1       4.955   5.492  19.511  0.00  0.00    +0.000 OA
ENDROOT
BRANCH   1  11
ATOM      6  O   UNL     1       1.033  10.261  18.634  0.00  0.00    +0.000 OA
ATOM      7  C   UNL     1       1.616   9.202  18.845  0.00  0.00    +0.000 A 
ATOM      8  N   UNL     1       2.501   8.698  17.933  0.00  0.00    +0.000 N 
ATOM      9  C   UNL     1       3.106   7.472  17.974  0.00  0.00    +0.000 A 
ATOM     10  O   UNL     1       3.723   7.074  16.990  0.00  0.00    +0.000 OA
ATOM     11  N   UNL     1       2.959   6.760  19.161  0.00  0.00    +0.000 N 
ATOM     12  C   UNL     1       2.081   7.205  20.144  0.00  0.00    +0.000 A 
ATOM     13  C   UNL     1       1.407   8.360  20.057  0.00  0.00    +0.000 A 
ATOM     14  H   UNL     1       2.612   9.223  17.080  0.00  0.00    +0.000 HD
BRANCH  13  15
ATOM     15  S   UNL     1       0.287   8.906  21.251  0.00  0.00    +0.000 S 
ATOM     16  H   UNL     1       0.957   8.570  22.362  0.00  0.00    +0.000 HD
ENDBRANCH  13  15
ENDBRANCH   1  11
BRANCH   3  17
ATOM     17  O   UNL     1       4.386   2.529  18.934  0.00  0.00    +0.000 OA
ATOM     18  H   UNL     1       3.733   1.933  18.527  0.00  0.00    +0.000 HD
ENDBRANCH   3  17
BRANCH   4  19
ATOM     19  C   UNL     1       6.404   5.366  17.556  0.00  0.00    +0.000 C 
BRANCH  19  20
ATOM     20  O   UNL     1       6.855   4.453  16.562  0.00  0.00    +0.000 OA
BRANCH  20  21
ATOM     21  P   UNL     1       6.610   4.806  15.026  0.00  0.00    +0.000 P 
ATOM     22  O   UNL     1       6.196   3.677  14.147  0.00  0.00    +0.000 OA
BRANCH  21  23
ATOM     23  O   UNL     1       5.541   5.991  15.044  0.00  0.00    +0.000 OA
ATOM     24  H   UNL     1       5.982   6.848  15.193  0.00  0.00    +0.000 HD
ENDBRANCH  21  23
BRANCH  21  25
ATOM     25  O   UNL     1       7.938   5.529  14.522  0.00  0.00    +0.000 OA
ATOM     26  H   UNL     1       7.765   6.014  13.696  0.00  0.00    +0.000 HD
ENDBRANCH  21  25
ENDBRANCH  20  21
ENDBRANCH  19  20
ENDBRANCH   4  19
TORSDOF 8
ENDMDL
