MODEL 1
REMARK VINA RESULT:      -8.3      0.000      0.000
REMARK  Name = 
REMARK  8 active torsions:
REMARK  status: ('A' for Active; 'I' for Inactive)
REMARK    1  A    between atoms: C_1  and  C_2
REMARK    2  A    between atoms: N_4  and  C_5
REMARK    3  A    between atoms: C_5  and  C_6
REMARK    4  A    between atoms: N_8  and  C_9
REMARK    5  A    between atoms: C_12  and  C_13
REMARK    6  A    between atoms: C_14  and  C_16
REMARK    7  A    between atoms: C_20  and  C_21
REMARK    8  A    between atoms: C_21  and  C_22
REMARK                            x       y       z     vdW  Elec       q    Type
REMARK                         _______ _______ _______ _____ _____    ______ ____
ROOT
ATOM      1  C   UNL     1       2.711   6.913  18.940  0.00  0.00    +0.000 A 
ATOM      2  C   UNL     1       2.194   6.824  20.234  0.00  0.00    +0.000 A 
ATOM      3  C   UNL     1       1.363   7.817  20.755  0.00  0.00    +0.000 A 
ATOM      4  C   UNL     1       1.032   8.950  20.004  0.00  0.00    +0.000 A 
ATOM      5  C   UNL     1       1.532   9.026  18.701  0.00  0.00    +0.000 A 
ATOM      6  F   UNL     1       1.205  10.063  17.914  0.00  0.00    +0.000 F 
ATOM      7  C   UNL     1       2.374   8.037  18.177  0.00  0.00    +0.000 A 
ENDROOT
BRANCH   1  10
ATOM      8  C   UNL     1       5.394   4.566  18.045  0.00  0.00    +0.000 C 
ATOM      9  C   UNL     1       4.981   5.973  18.426  0.00  0.00    +0.000 C 
ATOM     10  N   UNL     1       3.553   5.896  18.431  0.00  0.00    +0.000 N 
ATOM     11  C   UNL     1       3.143   4.750  17.765  0.00  0.00    +0.000 C 
ATOM     12  O   UNL     1       2.014   4.401  17.459  0.00  0.00    +0.000 OA
ATOM     13  O   UNL     1       4.234   4.005  17.411  0.00  0.00    +0.000 OA
BRANCH   8  14
ATOM     14  C   UNL     1       6.555   4.534  17.057  0.00  0.00    +0.000 C 
BRANCH  14  18
ATOM     15  C   UNL     1       6.160   3.776  13.369  0.00  0.00    +0.000 C 
ATOM     16  C   UNL     1       6.704   4.450  14.599  0.00  0.00    +0.000 C 
ATOM     17  O   UNL     1       7.537   5.345  14.555  0.00  0.00    +0.000 OA
ATOM     18  N   UNL     1       6.154   3.985  15.771  0.00  0.00    +0.000 N 
ATOM     19  H   UNL     1       5.701   3.079  15.769  0.00  0.00    +0.000 HD
ENDBRANCH  14  18
ENDBRANCH   8  14
ENDBRANCH   1  10
BRANCH   4  20
ATOM     20  C   UNL     1       0.135   9.983  20.548  0.00  0.00    +0.000 C 
ATOM     21  C   UNL     1       0.550  11.206  20.920  0.00  0.00    +0.000 C 
ATOM     22  F   UNL     1       1.844  11.558  20.723  0.00  0.00    +0.000 F 
BRANCH  21  23
ATOM     23  C   UNL     1      -0.289  12.253  21.521  0.00  0.00    +0.000 A 
ATOM     24  C   UNL     1       0.288  13.509  21.740  0.00  0.00    +0.000 A 
ATOM     25  C   UNL     1      -0.422  14.516  22.390  0.00  0.00    +0.000 A 
ATOM     26  C   UNL     1      -1.721  14.275  22.842  0.00  0.00    +0.000 A 
ATOM     27  C   UNL     1      -2.318  13.025  22.642  0.00  0.00    +0.000 A 
ATOM     28  C   UNL     1      -1.593  12.019  21.975  0.00  0.00    +0.000 A 
BRANCH  27  29
ATOM     29  C   UNL     1      -3.693  12.685  23.122  0.00  0.00    +0.000 C 
ATOM     30  C   UNL     1      -4.903  13.435  22.624  0.00  0.00    +0.000 C 
ATOM     31  O   UNL     1      -3.834  11.781  23.949  0.00  0.00    +0.000 OA
ENDBRANCH  27  29
ENDBRANCH  21  23
ENDBRANCH   4  20
TORSDOF 6
ENDMDL
MODEL 2
REMARK VINA RESULT:      -8.2      1.808      2.536
REMARK  Name = 
REMARK  8 active torsions:
REMARK  status: ('A' for Active; 'I' for Inactive)
REMARK    1  A    between atoms: C_1  and  C_2
REMARK    2  A    between atoms: N_4  and  C_5
REMARK    3  A    between atoms: C_5  and  C_6
REMARK    4  A    between atoms: N_8  and  C_9
REMARK    5  A    between atoms: C_12  and  C_13
REMARK    6  A    between atoms: C_14  and  C_16
REMARK    7  A    between atoms: C_20  and  C_21
REMARK    8  A    between atoms: C_21  and  C_22
REMARK                            x       y       z     vdW  Elec       q    Type
REMARK                         _______ _______ _______ _____ _____    ______ ____
ROOT
ATOM      1  C   UNL     1       3.435   6.524  18.084  0.00  0.00    +0.000 A 
ATOM      2  C   UNL     1       3.174   7.749  17.466  0.00  0.00    +0.000 A 
ATOM      3  C   UNL     1       2.376   8.717  18.077  0.00  0.00    +0.000 A 
ATOM      4  C   UNL     1       1.792   8.488  19.328  0.00  0.00    +0.000 A 
ATOM      5  C   UNL     1       2.073   7.271  19.955  0.00  0.00    +0.000 A 
ATOM      6  F   UNL     1       1.584   7.016  21.179  0.00  0.00    +0.000 F 
ATOM      7  C   UNL     1       2.865   6.292  19.342  0.00  0.00    +0.000 A 
ENDROOT
BRANCH   1  10
ATOM      8  C   UNL     1       6.085   4.424  16.646  0.00  0.00    +0.000 C 
ATOM      9  C   UNL     1       5.578   5.809  16.990  0.00  0.00    +0.000 C 
ATOM     10  N   UNL     1       4.246   5.556  17.446  0.00  0.00    +0.000 N 
ATOM     11  C   UNL     1       3.853   4.283  17.061  0.00  0.00    +0.000 C 
ATOM     12  O   UNL     1       2.756   3.755  17.158  0.00  0.00    +0.000 OA
ATOM     13  O   UNL     1       4.899   3.636  16.464  0.00  0.00    +0.000 OA
BRANCH   8  14
ATOM     14  C   UNL     1       6.896   4.393  15.355  0.00  0.00    +0.000 C 
BRANCH  14  18
ATOM     15  C   UNL     1       5.716   2.945  12.062  0.00  0.00    +0.000 C 
ATOM     16  C   UNL     1       6.506   3.829  12.988  0.00  0.00    +0.000 C 
ATOM     17  O   UNL     1       7.294   4.675  12.590  0.00  0.00    +0.000 OA
ATOM     18  N   UNL     1       6.233   3.616  14.320  0.00  0.00    +0.000 N 
ATOM     19  H   UNL     1       5.805   2.739  14.593  0.00  0.00    +0.000 HD
ENDBRANCH  14  18
ENDBRANCH   8  14
ENDBRANCH   1  10
BRANCH   4  20
ATOM     20  C   UNL     1       0.971   9.521  19.980  0.00  0.00    +0.000 C 
ATOM     21  C   UNL     1      -0.072  10.127  19.386  0.00  0.00    +0.000 C 
ATOM     22  F   UNL     1      -0.456   9.728  18.148  0.00  0.00    +0.000 F 
BRANCH  21  23
ATOM     23  C   UNL     1      -0.888  11.201  19.968  0.00  0.00    +0.000 A 
ATOM     24  C   UNL     1      -2.095  11.523  19.337  0.00  0.00    +0.000 A 
ATOM     25  C   UNL     1      -2.870  12.591  19.782  0.00  0.00    +0.000 A 
ATOM     26  C   UNL     1      -2.440  13.364  20.862  0.00  0.00    +0.000 A 
ATOM     27  C   UNL     1      -1.232  13.069  21.506  0.00  0.00    +0.000 A 
ATOM     28  C   UNL     1      -0.464  11.980  21.053  0.00  0.00    +0.000 A 
BRANCH  27  29
ATOM     29  C   UNL     1      -0.694  13.868  22.650  0.00  0.00    +0.000 C 
ATOM     30  C   UNL     1      -1.547  14.183  23.854  0.00  0.00    +0.000 C 
ATOM     31  O   UNL     1       0.464  14.285  22.599  0.00  0.00    +0.000 OA
ENDBRANCH  27  29
ENDBRANCH  21  23
ENDBRANCH   4  20
TORSDOF 6
ENDMDL
MODEL 3
REMARK VINA RESULT:      -8.1      1.068      1.117
REMARK  Name = 
REMARK  8 active torsions:
REMARK  status: ('A' for Active; 'I' for Inactive)
REMARK    1  A    between atoms: C_1  and  C_2
REMARK    2  A    between atoms: N_4  and  C_5
REMARK    3  A    between atoms: C_5  and  C_6
REMARK    4  A    between atoms: N_8  and  C_9
REMARK    5  A    between atoms: C_12  and  C_13
REMARK    6  A    between atoms: C_14  and  C_16
REMARK    7  A    between atoms: C_20  and  C_21
REMARK    8  A    between atoms: C_21  and  C_22
REMARK                            x       y       z     vdW  Elec       q    Type
REMARK                         _______ _______ _______ _____ _____    ______ ____
ROOT
ATOM      1  C   UNL     1       2.298   7.161  19.346  0.00  0.00    +0.000 A 
ATOM      2  C   UNL     1       1.736   7.238  20.622  0.00  0.00    +0.000 A 
ATOM      3  C   UNL     1       1.016   8.360  21.033  0.00  0.00    +0.000 A 
ATOM      4  C   UNL     1       0.845   9.460  20.185  0.00  0.00    +0.000 A 
ATOM      5  C   UNL     1       1.388   9.371  18.900  0.00  0.00    +0.000 A 
ATOM      6  F   UNL     1       1.211  10.372  18.023  0.00  0.00    +0.000 F 
ATOM      7  C   UNL     1       2.120   8.251  18.486  0.00  0.00    +0.000 A 
ENDROOT
BRANCH   1  10
ATOM      8  C   UNL     1       4.642   4.376  18.840  0.00  0.00    +0.000 C 
ATOM      9  C   UNL     1       4.421   5.829  19.205  0.00  0.00    +0.000 C 
ATOM     10  N   UNL     1       3.026   6.014  18.950  0.00  0.00    +0.000 N 
ATOM     11  C   UNL     1       2.551   4.971  18.168  0.00  0.00    +0.000 C 
ATOM     12  O   UNL     1       1.454   4.838  17.648  0.00  0.00    +0.000 OA
ATOM     13  O   UNL     1       3.540   4.045  17.982  0.00  0.00    +0.000 OA
BRANCH   8  14
ATOM     14  C   UNL     1       5.942   4.147  18.077  0.00  0.00    +0.000 C 
BRANCH  14  18
ATOM     15  C   UNL     1       5.700   4.255  14.300  0.00  0.00    +0.000 C 
ATOM     16  C   UNL     1       6.039   4.734  15.686  0.00  0.00    +0.000 C 
ATOM     17  O   UNL     1       6.543   5.825  15.908  0.00  0.00    +0.000 OA
ATOM     18  N   UNL     1       5.699   3.841  16.676  0.00  0.00    +0.000 N 
ATOM     19  H   UNL     1       5.556   2.870  16.425  0.00  0.00    +0.000 HD
ENDBRANCH  14  18
ENDBRANCH   8  14
ENDBRANCH   1  10
BRANCH   4  20
ATOM     20  C   UNL     1       0.063  10.632  20.613  0.00  0.00    +0.000 C 
ATOM     21  C   UNL     1      -0.220  10.907  21.897  0.00  0.00    +0.000 C 
ATOM     22  F   UNL     1       0.295  10.122  22.875  0.00  0.00    +0.000 F 
BRANCH  21  23
ATOM     23  C   UNL     1      -1.041  12.028  22.376  0.00  0.00    +0.000 A 
ATOM     24  C   UNL     1      -0.464  13.303  22.392  0.00  0.00    +0.000 A 
ATOM     25  C   UNL     1      -1.155  14.391  22.920  0.00  0.00    +0.000 A 
ATOM     26  C   UNL     1      -2.434  14.216  23.451  0.00  0.00    +0.000 A 
ATOM     27  C   UNL     1      -3.031  12.950  23.454  0.00  0.00    +0.000 A 
ATOM     28  C   UNL     1      -2.326  11.861  22.908  0.00  0.00    +0.000 A 
BRANCH  27  29
ATOM     29  C   UNL     1      -4.384  12.681  24.030  0.00  0.00    +0.000 C 
ATOM     30  C   UNL     1      -5.609  13.398  23.518  0.00  0.00    +0.000 C 
ATOM     31  O   UNL     1      -4.495  11.865  24.947  0.00  0.00    +0.000 OA
ENDBRANCH  27  29
ENDBRANCH  21  23
ENDBRANCH   4  20
TORSDOF 6
ENDMDL
MODEL 4
REMARK VINA RESULT:      -8.0      1.471      1.884
REMARK  Name = 
REMARK  8 active torsions:
REMARK  status: ('A' for Active; 'I' for Inactive)
REMARK    1  A    between atoms: C_1  and  C_2
REMARK    2  A    between atoms: N_4  and  C_5
REMARK    3  A    between atoms: C_5  and  C_6
REMARK    4  A    between atoms: N_8  and  C_9
REMARK    5  A    between atoms: C_12  and  C_13
REMARK    6  A    between atoms: C_14  and  C_16
REMARK    7  A    between atoms: C_20  and  C_21
REMARK    8  A    between atoms: C_21  and  C_22
REMARK                            x       y       z     vdW  Elec       q    Type
REMARK                         _______ _______ _______ _____ _____    ______ ____
ROOT
ATOM      1  C   UNL     1       2.477   7.073  19.094  0.00  0.00    +0.000 A 
ATOM      2  C   UNL     1       2.279   8.132  18.206  0.00  0.00    +0.000 A 
ATOM      3  C   UNL     1       1.590   9.283  18.589  0.00  0.00    +0.000 A 
ATOM      4  C   UNL     1       1.055   9.411  19.875  0.00  0.00    +0.000 A 
ATOM      5  C   UNL     1       1.274   8.359  20.769  0.00  0.00    +0.000 A 
ATOM      6  F   UNL     1       0.831   8.447  22.033  0.00  0.00    +0.000 F 
ATOM      7  C   UNL     1       1.957   7.198  20.387  0.00  0.00    +0.000 A 
ENDROOT
BRANCH   1  10
ATOM      8  C   UNL     1       4.786   4.272  18.514  0.00  0.00    +0.000 C 
ATOM      9  C   UNL     1       4.588   5.735  18.851  0.00  0.00    +0.000 C 
ATOM     10  N   UNL     1       3.179   5.914  18.684  0.00  0.00    +0.000 N 
ATOM     11  C   UNL     1       2.654   4.849  17.967  0.00  0.00    +0.000 C 
ATOM     12  O   UNL     1       1.525   4.702  17.525  0.00  0.00    +0.000 OA
ATOM     13  O   UNL     1       3.629   3.917  17.742  0.00  0.00    +0.000 OA
BRANCH   8  14
ATOM     14  C   UNL     1       6.032   4.019  17.673  0.00  0.00    +0.000 C 
BRANCH  14  18
ATOM     15  C   UNL     1       6.006   3.918  13.889  0.00  0.00    +0.000 C 
ATOM     16  C   UNL     1       6.514   4.243  15.267  0.00  0.00    +0.000 C 
ATOM     17  O   UNL     1       7.537   4.883  15.466  0.00  0.00    +0.000 OA
ATOM     18  N   UNL     1       5.701   3.782  16.277  0.00  0.00    +0.000 N 
ATOM     19  H   UNL     1       5.045   3.038  16.070  0.00  0.00    +0.000 HD
ENDBRANCH  14  18
ENDBRANCH   8  14
ENDBRANCH   1  10
BRANCH   4  20
ATOM     20  C   UNL     1       0.349  10.637  20.283  0.00  0.00    +0.000 C 
ATOM     21  C   UNL     1      -0.846  11.005  19.791  0.00  0.00    +0.000 C 
ATOM     22  F   UNL     1      -1.493  10.183  18.929  0.00  0.00    +0.000 F 
BRANCH  21  23
ATOM     23  C   UNL     1      -1.566  12.243  20.120  0.00  0.00    +0.000 A 
ATOM     24  C   UNL     1      -0.910  13.461  19.902  0.00  0.00    +0.000 A 
ATOM     25  C   UNL     1      -1.499  14.665  20.278  0.00  0.00    +0.000 A 
ATOM     26  C   UNL     1      -2.754  14.668  20.890  0.00  0.00    +0.000 A 
ATOM     27  C   UNL     1      -3.428  13.464  21.127  0.00  0.00    +0.000 A 
ATOM     28  C   UNL     1      -2.826  12.255  20.733  0.00  0.00    +0.000 A 
BRANCH  27  29
ATOM     29  C   UNL     1      -4.760  13.387  21.803  0.00  0.00    +0.000 C 
ATOM     30  C   UNL     1      -5.468  14.631  22.281  0.00  0.00    +0.000 C 
ATOM     31  O   UNL     1      -5.280  12.284  21.981  0.00  0.00    +0.000 OA
ENDBRANCH  27  29
ENDBRANCH  21  23
ENDBRANCH   4  20
TORSDOF 6
ENDMDL
MODEL 5
REMARK VINA RESULT:      -8.0      1.963      2.659
REMARK  Name = 
REMARK  8 active torsions:
REMARK  status: ('A' for Active; 'I' for Inactive)
REMARK    1  A    between atoms: C_1  and  C_2
REMARK    2  A    between atoms: N_4  and  C_5
REMARK    3  A    between atoms: C_5  and  C_6
REMARK    4  A    between atoms: N_8  and  C_9
REMARK    5  A    between atoms: C_12  and  C_13
REMARK    6  A    between atoms: C_14  and  C_16
REMARK    7  A    between atoms: C_20  and  C_21
REMARK    8  A    between atoms: C_21  and  C_22
REMARK                            x       y       z     vdW  Elec       q    Type
REMARK                         _______ _______ _______ _____ _____    ______ ____
ROOT
ATOM      1  C   UNL     1       3.775   5.999  18.021  0.00  0.00    +0.000 A 
ATOM      2  C   UNL     1       3.350   7.267  17.620  0.00  0.00    +0.000 A 
ATOM      3  C   UNL     1       2.460   8.014  18.392  0.00  0.00    +0.000 A 
ATOM      4  C   UNL     1       1.946   7.511  19.592  0.00  0.00    +0.000 A 
ATOM      5  C   UNL     1       2.391   6.252  20.003  0.00  0.00    +0.000 A 
ATOM      6  F   UNL     1       1.974   5.739  21.172  0.00  0.00    +0.000 F 
ATOM      7  C   UNL     1       3.276   5.494  19.227  0.00  0.00    +0.000 A 
ENDROOT
BRANCH   1  10
ATOM      8  C   UNL     1       6.520   4.669  15.970  0.00  0.00    +0.000 C 
ATOM      9  C   UNL     1       5.668   5.853  16.379  0.00  0.00    +0.000 C 
ATOM     10  N   UNL     1       4.678   5.258  17.221  0.00  0.00    +0.000 N 
ATOM     11  C   UNL     1       4.669   3.883  17.035  0.00  0.00    +0.000 C 
ATOM     12  O   UNL     1       3.892   3.053  17.480  0.00  0.00    +0.000 OA
ATOM     13  O   UNL     1       5.681   3.525  16.189  0.00  0.00    +0.000 OA
BRANCH   8  14
ATOM     14  C   UNL     1       6.924   4.706  14.501  0.00  0.00    +0.000 C 
BRANCH  14  18
ATOM     15  C   UNL     1       5.632   2.469  11.734  0.00  0.00    +0.000 C 
ATOM     16  C   UNL     1       6.455   3.553  12.374  0.00  0.00    +0.000 C 
ATOM     17  O   UNL     1       7.233   4.257  11.747  0.00  0.00    +0.000 OA
ATOM     18  N   UNL     1       6.224   3.696  13.723  0.00  0.00    +0.000 N 
ATOM     19  H   UNL     1       5.801   2.925  14.227  0.00  0.00    +0.000 HD
ENDBRANCH  14  18
ENDBRANCH   8  14
ENDBRANCH   1  10
BRANCH   4  20
ATOM     20  C   UNL     1       1.027   8.312  20.417  0.00  0.00    +0.000 C 
ATOM     21  C   UNL     1       0.747   9.605  20.176  0.00  0.00    +0.000 C 
ATOM     22  F   UNL     1       1.267  10.204  19.077  0.00  0.00    +0.000 F 
BRANCH  21  23
ATOM     23  C   UNL     1      -0.116  10.465  20.997  0.00  0.00    +0.000 A 
ATOM     24  C   UNL     1      -0.102  10.274  22.384  0.00  0.00    +0.000 A 
ATOM     25  C   UNL     1      -0.964  10.991  23.211  0.00  0.00    +0.000 A 
ATOM     26  C   UNL     1      -1.863  11.905  22.658  0.00  0.00    +0.000 A 
ATOM     27  C   UNL     1      -1.904  12.108  21.274  0.00  0.00    +0.000 A 
ATOM     28  C   UNL     1      -1.020  11.385  20.450  0.00  0.00    +0.000 A 
BRANCH  27  29
ATOM     29  C   UNL     1      -2.858  13.048  20.608  0.00  0.00    +0.000 C 
ATOM     30  C   UNL     1      -3.975  12.538  19.731  0.00  0.00    +0.000 C 
ATOM     31  O   UNL     1      -2.720  14.261  20.774  0.00  0.00    +0.000 OA
ENDBRANCH  27  29
ENDBRANCH  21  23
ENDBRANCH   4  20
TORSDOF 6
ENDMDL
MODEL 6
REMARK VINA RESULT:      -8.0      0.931      1.374
REMARK  Name = 
REMARK  8 active torsions:
REMARK  status: ('A' for Active; 'I' for Inactive)
REMARK    1  A    between atoms: C_1  and  C_2
REMARK    2  A    between atoms: N_4  and  C_5
REMARK    3  A    between atoms: C_5  and  C_6
REMARK    4  A    between atoms: N_8  and  C_9
REMARK    5  A    between atoms: C_12  and  C_13
REMARK    6  A    between atoms: C_14  and  C_16
REMARK    7  A    between atoms: C_20  and  C_21
REMARK    8  A    between atoms: C_21  and  C_22
REMARK                            x       y       z     vdW  Elec       q    Type
REMARK                         _______ _______ _______ _____ _____    ______ ____
ROOT
ATOM      1  C   UNL     1       2.674   7.279  18.678  0.00  0.00    +0.000 A 
ATOM      2  C   UNL     1       2.287   8.314  17.824  0.00  0.00    +0.000 A 
ATOM      3  C   UNL     1       1.421   9.322  18.249  0.00  0.00    +0.000 A 
ATOM      4  C   UNL     1       0.892   9.323  19.544  0.00  0.00    +0.000 A 
ATOM      5  C   UNL     1       1.298   8.299  20.404  0.00  0.00    +0.000 A 
ATOM      6  F   UNL     1       0.867   8.276  21.675  0.00  0.00    +0.000 F 
ATOM      7  C   UNL     1       2.160   7.279  19.980  0.00  0.00    +0.000 A 
ENDROOT
BRANCH   1  10
ATOM      8  C   UNL     1       5.457   5.026  17.852  0.00  0.00    +0.000 C 
ATOM      9  C   UNL     1       4.966   6.438  18.096  0.00  0.00    +0.000 C 
ATOM     10  N   UNL     1       3.552   6.265  18.226  0.00  0.00    +0.000 N 
ATOM     11  C   UNL     1       3.185   5.021  17.735  0.00  0.00    +0.000 C 
ATOM     12  O   UNL     1       2.067   4.562  17.565  0.00  0.00    +0.000 OA
ATOM     13  O   UNL     1       4.302   4.314  17.384  0.00  0.00    +0.000 OA
BRANCH   8  14
ATOM     14  C   UNL     1       6.543   4.952  16.784  0.00  0.00    +0.000 C 
BRANCH  14  18
ATOM     15  C   UNL     1       6.040   3.773  13.222  0.00  0.00    +0.000 C 
ATOM     16  C   UNL     1       6.678   4.519  14.362  0.00  0.00    +0.000 C 
ATOM     17  O   UNL     1       7.631   5.272  14.215  0.00  0.00    +0.000 OA
ATOM     18  N   UNL     1       6.067   4.299  15.574  0.00  0.00    +0.000 N 
ATOM     19  H   UNL     1       5.487   3.475  15.683  0.00  0.00    +0.000 HD
ENDBRANCH  14  18
ENDBRANCH   8  14
ENDBRANCH   1  10
BRANCH   4  20
ATOM     20  C   UNL     1      -0.002  10.402  19.996  0.00  0.00    +0.000 C 
ATOM     21  C   UNL     1       0.412  11.456  20.720  0.00  0.00    +0.000 C 
ATOM     22  F   UNL     1       1.732  11.595  20.997  0.00  0.00    +0.000 F 
BRANCH  21  23
ATOM     23  C   UNL     1      -0.444  12.528  21.244  0.00  0.00    +0.000 A 
ATOM     24  C   UNL     1       0.100  13.814  21.339  0.00  0.00    +0.000 A 
ATOM     25  C   UNL     1      -0.626  14.855  21.913  0.00  0.00    +0.000 A 
ATOM     26  C   UNL     1      -1.908  14.620  22.413  0.00  0.00    +0.000 A 
ATOM     27  C   UNL     1      -2.472  13.341  22.339  0.00  0.00    +0.000 A 
ATOM     28  C   UNL     1      -1.732  12.301  21.747  0.00  0.00    +0.000 A 
BRANCH  27  29
ATOM     29  C   UNL     1      -3.827  13.008  22.878  0.00  0.00    +0.000 C 
ATOM     30  C   UNL     1      -3.999  12.443  24.267  0.00  0.00    +0.000 C 
ATOM     31  O   UNL     1      -4.817  13.188  22.167  0.00  0.00    +0.000 OA
ENDBRANCH  27  29
ENDBRANCH  21  23
ENDBRANCH   4  20
TORSDOF 6
ENDMDL
MODEL 7
REMARK VINA RESULT:      -8.0      1.476      1.623
REMARK  Name = 
REMARK  8 active torsions:
REMARK  status: ('A' for Active; 'I' for Inactive)
REMARK    1  A    between atoms: C_1  and  C_2
REMARK    2  A    between atoms: N_4  and  C_5
REMARK    3  A    between atoms: C_5  and  C_6
REMARK    4  A    between atoms: N_8  and  C_9
REMARK    5  A    between atoms: C_12  and  C_13
REMARK    6  A    between atoms: C_14  and  C_16
REMARK    7  A    between atoms: C_20  and  C_21
REMARK    8  A    between atoms: C_21  and  C_22
REMARK                            x       y       z     vdW  Elec       q    Type
REMARK                         _______ _______ _______ _____ _____    ______ ____
ROOT
ATOM      1  C   UNL     1       2.442   7.112  19.090  0.00  0.00    +0.000 A 
ATOM      2  C   UNL     1       1.901   7.257  20.369  0.00  0.00    +0.000 A 
ATOM      3  C   UNL     1       1.213   8.412  20.741  0.00  0.00    +0.000 A 
ATOM      4  C   UNL     1       1.055   9.478  19.849  0.00  0.00    +0.000 A 
ATOM      5  C   UNL     1       1.577   9.322  18.562  0.00  0.00    +0.000 A 
ATOM      6  F   UNL     1       1.410  10.288  17.645  0.00  0.00    +0.000 F 
ATOM      7  C   UNL     1       2.277   8.168  18.187  0.00  0.00    +0.000 A 
ENDROOT
BRANCH   1  10
ATOM      8  C   UNL     1       4.729   4.269  18.649  0.00  0.00    +0.000 C 
ATOM      9  C   UNL     1       4.542   5.746  18.931  0.00  0.00    +0.000 C 
ATOM     10  N   UNL     1       3.138   5.932  18.734  0.00  0.00    +0.000 N 
ATOM     11  C   UNL     1       2.613   4.848  18.046  0.00  0.00    +0.000 C 
ATOM     12  O   UNL     1       1.490   4.697  17.590  0.00  0.00    +0.000 OA
ATOM     13  O   UNL     1       3.582   3.899  17.871  0.00  0.00    +0.000 OA
BRANCH   8  14
ATOM     14  C   UNL     1       5.987   3.974  17.839  0.00  0.00    +0.000 C 
BRANCH  14  18
ATOM     15  C   UNL     1       6.060   3.959  14.054  0.00  0.00    +0.000 C 
ATOM     16  C   UNL     1       6.540   4.237  15.453  0.00  0.00    +0.000 C 
ATOM     17  O   UNL     1       7.577   4.839  15.693  0.00  0.00    +0.000 OA
ATOM     18  N   UNL     1       5.687   3.779  16.430  0.00  0.00    +0.000 N 
ATOM     19  H   UNL     1       5.013   3.061  16.188  0.00  0.00    +0.000 HD
ENDBRANCH  14  18
ENDBRANCH   8  14
ENDBRANCH   1  10
BRANCH   4  20
ATOM     20  C   UNL     1       0.307  10.686  20.237  0.00  0.00    +0.000 C 
ATOM     21  C   UNL     1      -0.926  10.974  19.784  0.00  0.00    +0.000 C 
ATOM     22  F   UNL     1      -1.566  10.085  18.987  0.00  0.00    +0.000 F 
BRANCH  21  23
ATOM     23  C   UNL     1      -1.692  12.189  20.093  0.00  0.00    +0.000 A 
ATOM     24  C   UNL     1      -0.996  13.401  20.174  0.00  0.00    +0.000 A 
ATOM     25  C   UNL     1      -1.646  14.572  20.554  0.00  0.00    +0.000 A 
ATOM     26  C   UNL     1      -3.006  14.546  20.871  0.00  0.00    +0.000 A 
ATOM     27  C   UNL     1      -3.723  13.346  20.806  0.00  0.00    +0.000 A 
ATOM     28  C   UNL     1      -3.057  12.171  20.411  0.00  0.00    +0.000 A 
BRANCH  27  29
ATOM     29  C   UNL     1      -5.173  13.235  21.158  0.00  0.00    +0.000 C 
ATOM     30  C   UNL     1      -6.125  14.382  20.921  0.00  0.00    +0.000 C 
ATOM     31  O   UNL     1      -5.591  12.190  21.660  0.00  0.00    +0.000 OA
ENDBRANCH  27  29
ENDBRANCH  21  23
ENDBRANCH   4  20
TORSDOF 6
ENDMDL
MODEL 8
REMARK VINA RESULT:      -7.9      1.543      2.015
REMARK  Name = 
REMARK  8 active torsions:
REMARK  status: ('A' for Active; 'I' for Inactive)
REMARK    1  A    between atoms: C_1  and  C_2
REMARK    2  A    between atoms: N_4  and  C_5
REMARK    3  A    between atoms: C_5  and  C_6
REMARK    4  A    between atoms: N_8  and  C_9
REMARK    5  A    between atoms: C_12  and  C_13
REMARK    6  A    between atoms: C_14  and  C_16
REMARK    7  A    between atoms: C_20  and  C_21
REMARK    8  A    between atoms: C_21  and  C_22
REMARK                            x       y       z     vdW  Elec       q    Type
REMARK                         _______ _______ _______ _____ _____    ______ ____
ROOT
ATOM      1  C   UNL     1       2.740   7.188  18.621  0.00  0.00    +0.000 A 
ATOM      2  C   UNL     1       2.465   8.109  17.609  0.00  0.00    +0.000 A 
ATOM      3  C   UNL     1       1.671   9.232  17.844  0.00  0.00    +0.000 A 
ATOM      4  C   UNL     1       1.107   9.468  19.102  0.00  0.00    +0.000 A 
ATOM      5  C   UNL     1       1.403   8.557  20.120  0.00  0.00    +0.000 A 
ATOM      6  F   UNL     1       0.934   8.759  21.361  0.00  0.00    +0.000 F 
ATOM      7  C   UNL     1       2.191   7.423  19.887  0.00  0.00    +0.000 A 
ENDROOT
BRANCH   1  10
ATOM      8  C   UNL     1       5.321   4.586  18.348  0.00  0.00    +0.000 C 
ATOM      9  C   UNL     1       4.975   6.057  18.445  0.00  0.00    +0.000 C 
ATOM     10  N   UNL     1       3.547   6.054  18.361  0.00  0.00    +0.000 N 
ATOM     11  C   UNL     1       3.109   4.830  17.878  0.00  0.00    +0.000 C 
ATOM     12  O   UNL     1       1.980   4.489  17.558  0.00  0.00    +0.000 OA
ATOM     13  O   UNL     1       4.171   3.980  17.740  0.00  0.00    +0.000 OA
BRANCH   8  14
ATOM     14  C   UNL     1       6.537   4.319  17.467  0.00  0.00    +0.000 C 
BRANCH  14  18
ATOM     15  C   UNL     1       6.146   3.931  13.721  0.00  0.00    +0.000 C 
ATOM     16  C   UNL     1       6.669   4.499  15.013  0.00  0.00    +0.000 C 
ATOM     17  O   UNL     1       7.455   5.434  15.059  0.00  0.00    +0.000 OA
ATOM     18  N   UNL     1       6.152   3.888  16.132  0.00  0.00    +0.000 N 
ATOM     19  H   UNL     1       5.744   2.966  16.036  0.00  0.00    +0.000 HD
ENDBRANCH  14  18
ENDBRANCH   8  14
ENDBRANCH   1  10
BRANCH   4  20
ATOM     20  C   UNL     1       0.290  10.667  19.352  0.00  0.00    +0.000 C 
ATOM     21  C   UNL     1       0.780  11.919  19.326  0.00  0.00    +0.000 C 
ATOM     22  F   UNL     1       2.075  12.119  18.978  0.00  0.00    +0.000 F 
BRANCH  21  23
ATOM     23  C   UNL     1       0.025  13.144  19.624  0.00  0.00    +0.000 A 
ATOM     24  C   UNL     1       0.287  14.279  18.848  0.00  0.00    +0.000 A 
ATOM     25  C   UNL     1      -0.325  15.496  19.137  0.00  0.00    +0.000 A 
ATOM     26  C   UNL     1      -1.203  15.598  20.218  0.00  0.00    +0.000 A 
ATOM     27  C   UNL     1      -1.475  14.480  21.015  0.00  0.00    +0.000 A 
ATOM     28  C   UNL     1      -0.858  13.253  20.705  0.00  0.00    +0.000 A 
BRANCH  27  29
ATOM     29  C   UNL     1      -2.381  14.519  22.204  0.00  0.00    +0.000 C 
ATOM     30  C   UNL     1      -1.856  14.262  23.596  0.00  0.00    +0.000 C 
ATOM     31  O   UNL     1      -3.579  14.755  22.039  0.00  0.00    +0.000 OA
ENDBRANCH  27  29
ENDBRANCH  21  23
ENDBRANCH   4  20
TORSDOF 6
ENDMDL
MODEL 9
REMARK VINA RESULT:      -7.8      2.757      3.445
REMARK  Name = 
REMARK  8 active torsions:
REMARK  status: ('A' for Active; 'I' for Inactive)
REMARK    1  A    between atoms: C_1  and  C_2
REMARK    2  A    between atoms: N_4  and  C_5
REMARK    3  A    between atoms: C_5  and  C_6
REMARK    4  A    between atoms: N_8  and  C_9
REMARK    5  A    between atoms: C_12  and  C_13
REMARK    6  A    between atoms: C_14  and  C_16
REMARK    7  A    between atoms: C_20  and  C_21
REMARK    8  A    between atoms: C_21  and  C_22
REMARK                            x       y       z     vdW  Elec       q    Type
REMARK                         _______ _______ _______ _____ _____    ______ ____
ROOT
ATOM      1  C   UNL     1       2.281   7.424  18.958  0.00  0.00    +0.000 A 
ATOM      2  C   UNL     1       2.111   8.249  17.844  0.00  0.00    +0.000 A 
ATOM      3  C   UNL     1       1.434   9.465  17.936  0.00  0.00    +0.000 A 
ATOM      4  C   UNL     1       0.882   9.896  19.147  0.00  0.00    +0.000 A 
ATOM      5  C   UNL     1       1.073   9.080  20.266  0.00  0.00    +0.000 A 
ATOM      6  F   UNL     1       0.614   9.466  21.467  0.00  0.00    +0.000 F 
ATOM      7  C   UNL     1       1.744   7.854  20.177  0.00  0.00    +0.000 A 
ENDROOT
BRANCH   1  10
ATOM      8  C   UNL     1       4.516   4.513  19.145  0.00  0.00    +0.000 C 
ATOM      9  C   UNL     1       4.347   6.018  19.187  0.00  0.00    +0.000 C 
ATOM     10  N   UNL     1       2.970   6.194  18.843  0.00  0.00    +0.000 N 
ATOM     11  C   UNL     1       2.475   5.026  18.280  0.00  0.00    +0.000 C 
ATOM     12  O   UNL     1       1.391   4.826  17.756  0.00  0.00    +0.000 OA
ATOM     13  O   UNL     1       3.428   4.047  18.333  0.00  0.00    +0.000 OA
BRANCH   8  14
ATOM     14  C   UNL     1       5.828   4.080  18.500  0.00  0.00    +0.000 C 
BRANCH  14  18
ATOM     15  C   UNL     1       6.632   4.385  14.813  0.00  0.00    +0.000 C 
ATOM     16  C   UNL     1       6.895   4.335  16.294  0.00  0.00    +0.000 C 
ATOM     17  O   UNL     1       8.008   4.483  16.778  0.00  0.00    +0.000 OA
ATOM     18  N   UNL     1       5.762   4.141  17.048  0.00  0.00    +0.000 N 
ATOM     19  H   UNL     1       4.941   3.751  16.600  0.00  0.00    +0.000 HD
ENDBRANCH  14  18
ENDBRANCH   8  14
ENDBRANCH   1  10
BRANCH   4  20
ATOM     20  C   UNL     1       0.190  11.192  19.245  0.00  0.00    +0.000 C 
ATOM     21  C   UNL     1       0.805  12.340  19.574  0.00  0.00    +0.000 C 
ATOM     22  F   UNL     1       2.149  12.347  19.756  0.00  0.00    +0.000 F 
BRANCH  21  23
ATOM     23  C   UNL     1       0.154  13.647  19.742  0.00  0.00    +0.000 A 
ATOM     24  C   UNL     1      -0.928  13.731  20.626  0.00  0.00    +0.000 A 
ATOM     25  C   UNL     1      -1.648  14.916  20.761  0.00  0.00    +0.000 A 
ATOM     26  C   UNL     1      -1.300  16.035  20.002  0.00  0.00    +0.000 A 
ATOM     27  C   UNL     1      -0.228  15.975  19.104  0.00  0.00    +0.000 A 
ATOM     28  C   UNL     1       0.498  14.774  18.985  0.00  0.00    +0.000 A 
BRANCH  27  29
ATOM     29  C   UNL     1       0.185  17.122  18.238  0.00  0.00    +0.000 C 
ATOM     30  C   UNL     1      -0.838  18.055  17.637  0.00  0.00    +0.000 C 
ATOM     31  O   UNL     1       1.382  17.299  18.005  0.00  0.00    +0.000 OA
ENDBRANCH  27  29
ENDBRANCH  21  23
ENDBRANCH   4  20
TORSDOF 6
ENDMDL
