MODEL 1
REMARK VINA RESULT:      -8.5      0.000      0.000
REMARK  Name = 
REMARK  8 active torsions:
REMARK  status: ('A' for Active; 'I' for Inactive)
REMARK    1  A    between atoms: C_6  and  C_7
REMARK    2  A    between atoms: C_10  and  O_11
REMARK    3  A    between atoms: C_12  and  C_13
REMARK    4  A    between atoms: C_12  and  C_14
REMARK    5  A    between atoms: C_14  and  O_15
REMARK    6  A    between atoms: C_16  and  C_17
REMARK    7  A    between atoms: C_17  and  C_18
REMARK    8  A    between atoms: C_18  and  N_19
REMARK                            x       y       z     vdW  Elec       q    Type
REMARK                         _______ _______ _______ _____ _____    ______ ____
ROOT
ATOM      1  C   UNL     1       1.373   4.141  19.987  0.00  0.00    +0.000 C 
ATOM      2  C   UNL     1       1.881   4.622  18.837  0.00  0.00    +0.000 C 
ATOM      3  C   UNL     1       1.995   3.720  17.638  0.00  0.00    +0.000 C 
ATOM      4  C   UNL     1       3.470   3.511  17.309  0.00  0.00    +0.000 C 
ATOM      5  C   UNL     1       4.211   4.848  17.076  0.00  0.00    +0.000 C 
ATOM      6  C   UNL     1       4.025   5.878  18.279  0.00  0.00    +0.000 C 
ATOM      7  C   UNL     1       4.730   5.446  19.586  0.00  0.00    +0.000 C 
ATOM      8  C   UNL     1       4.644   7.216  17.802  0.00  0.00    +0.000 C 
ATOM      9  C   UNL     1       6.052   7.144  17.239  0.00  0.00    +0.000 C 
ATOM     10  C   UNL     1       6.194   6.128  16.124  0.00  0.00    +0.000 C 
ATOM     11  C   UNL     1       5.689   4.706  16.509  0.00  0.00    +0.000 C 
ATOM     12  C   UNL     1       5.673   3.886  15.190  0.00  0.00    +0.000 C 
ATOM     13  C   UNL     1       2.463   6.028  18.604  0.00  0.00    +0.000 C 
ENDROOT
BRANCH  10  14
ATOM     14  O   UNL     1       7.555   6.108  15.694  0.00  0.00    +0.000 OA
ATOM     15  H   UNL     1       7.599   6.456  14.785  0.00  0.00    +0.000 HD
ENDBRANCH  10  14
BRANCH  11  16
ATOM     16  C   UNL     1       6.721   4.016  17.439  0.00  0.00    +0.000 C 
BRANCH  16  17
ATOM     17  O   UNL     1       8.041   4.014  16.922  0.00  0.00    +0.000 OA
ATOM     18  H   UNL     1       8.377   3.104  16.976  0.00  0.00    +0.000 HD
ENDBRANCH  16  17
ENDBRANCH  11  16
BRANCH  13  19
ATOM     19  C   UNL     1       2.049   7.004  19.749  0.00  0.00    +0.000 C 
BRANCH  19  20
ATOM     20  C   UNL     1       1.627   8.408  19.323  0.00  0.00    +0.000 C 
BRANCH  20  21
ATOM     21  N   UNL     1       0.989   9.152  20.399  0.00  0.00    +0.000 N 
ATOM     22  C   UNL     1       1.218   8.780  21.701  0.00  0.00    +0.000 A 
ATOM     23  C   UNL     1       0.598   9.379  22.717  0.00  0.00    +0.000 A 
ATOM     24  C   UNL     1      -0.354  10.465  22.428  0.00  0.00    +0.000 A 
ATOM     25  O   UNL     1      -0.967  11.025  23.331  0.00  0.00    +0.000 OA
ATOM     26  N   UNL     1      -0.491  10.810  21.116  0.00  0.00    +0.000 N 
ATOM     27  C   UNL     1       0.121  10.188  20.061  0.00  0.00    +0.000 A 
ATOM     28  O   UNL     1      -0.129  10.540  18.910  0.00  0.00    +0.000 OA
ATOM     29  H   UNL     1      -1.148  11.538  20.892  0.00  0.00    +0.000 HD
ENDBRANCH  20  21
ENDBRANCH  19  20
ENDBRANCH  13  19
TORSDOF 6
ENDMDL
MODEL 2
REMARK VINA RESULT:      -8.1      1.393      1.645
REMARK  Name = 
REMARK  8 active torsions:
REMARK  status: ('A' for Active; 'I' for Inactive)
REMARK    1  A    between atoms: C_6  and  C_7
REMARK    2  A    between atoms: C_10  and  O_11
REMARK    3  A    between atoms: C_12  and  C_13
REMARK    4  A    between atoms: C_12  and  C_14
REMARK    5  A    between atoms: C_14  and  O_15
REMARK    6  A    between atoms: C_16  and  C_17
REMARK    7  A    between atoms: C_17  and  C_18
REMARK    8  A    between atoms: C_18  and  N_19
REMARK                            x       y       z     vdW  Elec       q    Type
REMARK                         _______ _______ _______ _____ _____    ______ ____
ROOT
ATOM      1  C   UNL     1       1.365   3.534  19.842  0.00  0.00    +0.000 C 
ATOM      2  C   UNL     1       1.879   4.024  18.699  0.00  0.00    +0.000 C 
ATOM      3  C   UNL     1       2.240   3.085  17.581  0.00  0.00    +0.000 C 
ATOM      4  C   UNL     1       3.751   3.110  17.374  0.00  0.00    +0.000 C 
ATOM      5  C   UNL     1       4.278   4.538  17.097  0.00  0.00    +0.000 C 
ATOM      6  C   UNL     1       3.825   5.591  18.206  0.00  0.00    +0.000 C 
ATOM      7  C   UNL     1       4.482   5.365  19.588  0.00  0.00    +0.000 C 
ATOM      8  C   UNL     1       4.252   6.985  17.677  0.00  0.00    +0.000 C 
ATOM      9  C   UNL     1       5.694   7.120  17.223  0.00  0.00    +0.000 C 
ATOM     10  C   UNL     1       6.093   6.078  16.199  0.00  0.00    +0.000 C 
ATOM     11  C   UNL     1       5.800   4.617  16.649  0.00  0.00    +0.000 C 
ATOM     12  C   UNL     1       6.029   3.728  15.396  0.00  0.00    +0.000 C 
ATOM     13  C   UNL     1       2.238   5.493  18.406  0.00  0.00    +0.000 C 
ENDROOT
BRANCH  10  14
ATOM     14  O   UNL     1       7.470   6.264  15.870  0.00  0.00    +0.000 OA
ATOM     15  H   UNL     1       7.545   7.031  15.273  0.00  0.00    +0.000 HD
ENDBRANCH  10  14
BRANCH  11  16
ATOM     16  C   UNL     1       6.852   4.169  17.699  0.00  0.00    +0.000 C 
BRANCH  16  17
ATOM     17  O   UNL     1       8.160   4.032  17.171  0.00  0.00    +0.000 OA
ATOM     18  H   UNL     1       8.080   3.667  16.274  0.00  0.00    +0.000 HD
ENDBRANCH  16  17
ENDBRANCH  11  16
BRANCH  13  19
ATOM     19  C   UNL     1       1.576   6.450  19.444  0.00  0.00    +0.000 C 
BRANCH  19  20
ATOM     20  C   UNL     1       2.240   7.812  19.630  0.00  0.00    +0.000 C 
BRANCH  20  21
ATOM     21  N   UNL     1       1.309   8.918  19.462  0.00  0.00    +0.000 N 
ATOM     22  C   UNL     1       0.480   9.262  20.501  0.00  0.00    +0.000 A 
ATOM     23  C   UNL     1      -0.442  10.215  20.370  0.00  0.00    +0.000 A 
ATOM     24  C   UNL     1      -0.568  10.911  19.078  0.00  0.00    +0.000 A 
ATOM     25  O   UNL     1      -1.421  11.776  18.906  0.00  0.00    +0.000 OA
ATOM     26  N   UNL     1       0.323  10.549  18.113  0.00  0.00    +0.000 N 
ATOM     27  C   UNL     1       1.259   9.556  18.224  0.00  0.00    +0.000 A 
ATOM     28  O   UNL     1       1.968   9.267  17.263  0.00  0.00    +0.000 OA
ATOM     29  H   UNL     1       0.247  10.999  17.216  0.00  0.00    +0.000 HD
ENDBRANCH  20  21
ENDBRANCH  19  20
ENDBRANCH  13  19
TORSDOF 6
ENDMDL
MODEL 3
REMARK VINA RESULT:      -7.8      2.373      3.931
REMARK  Name = 
REMARK  8 active torsions:
REMARK  status: ('A' for Active; 'I' for Inactive)
REMARK    1  A    between atoms: C_6  and  C_7
REMARK    2  A    between atoms: C_10  and  O_11
REMARK    3  A    between atoms: C_12  and  C_13
REMARK    4  A    between atoms: C_12  and  C_14
REMARK    5  A    between atoms: C_14  and  O_15
REMARK    6  A    between atoms: C_16  and  C_17
REMARK    7  A    between atoms: C_17  and  C_18
REMARK    8  A    between atoms: C_18  and  N_19
REMARK                            x       y       z     vdW  Elec       q    Type
REMARK                         _______ _______ _______ _____ _____    ______ ____
ROOT
ATOM      1  C   UNL     1       4.482   6.810  16.219  0.00  0.00    +0.000 C 
ATOM      2  C   UNL     1       4.397   6.420  17.504  0.00  0.00    +0.000 C 
ATOM      3  C   UNL     1       5.546   5.685  18.138  0.00  0.00    +0.000 C 
ATOM      4  C   UNL     1       5.106   4.264  18.476  0.00  0.00    +0.000 C 
ATOM      5  C   UNL     1       3.857   4.242  19.388  0.00  0.00    +0.000 C 
ATOM      6  C   UNL     1       2.648   5.102  18.804  0.00  0.00    +0.000 C 
ATOM      7  C   UNL     1       2.014   4.502  17.527  0.00  0.00    +0.000 C 
ATOM      8  C   UNL     1       1.571   5.145  19.918  0.00  0.00    +0.000 C 
ATOM      9  C   UNL     1       1.170   3.810  20.519  0.00  0.00    +0.000 C 
ATOM     10  C   UNL     1       2.351   3.010  21.028  0.00  0.00    +0.000 C 
ATOM     11  C   UNL     1       3.473   2.813  19.966  0.00  0.00    +0.000 C 
ATOM     12  C   UNL     1       4.684   2.210  20.731  0.00  0.00    +0.000 C 
ATOM     13  C   UNL     1       3.178   6.569  18.433  0.00  0.00    +0.000 C 
ENDROOT
BRANCH  10  14
ATOM     14  O   UNL     1       1.874   1.762  21.532  0.00  0.00    +0.000 OA
ATOM     15  H   UNL     1       1.242   1.940  22.252  0.00  0.00    +0.000 HD
ENDBRANCH  10  14
BRANCH  11  16
ATOM     16  C   UNL     1       3.036   1.745  18.930  0.00  0.00    +0.000 C 
BRANCH  16  17
ATOM     17  O   UNL     1       4.078   0.862  18.548  0.00  0.00    +0.000 OA
ATOM     18  H   UNL     1       3.884  -0.008  18.934  0.00  0.00    +0.000 HD
ENDBRANCH  16  17
ENDBRANCH  11  16
BRANCH  13  19
ATOM     19  C   UNL     1       2.150   7.588  17.851  0.00  0.00    +0.000 C 
BRANCH  19  20
ATOM     20  C   UNL     1       2.243   9.018  18.375  0.00  0.00    +0.000 C 
BRANCH  20  21
ATOM     21  N   UNL     1       1.437   9.234  19.567  0.00  0.00    +0.000 N 
ATOM     22  C   UNL     1       1.775   8.589  20.731  0.00  0.00    +0.000 A 
ATOM     23  C   UNL     1       1.025   8.692  21.828  0.00  0.00    +0.000 A 
ATOM     24  C   UNL     1      -0.194   9.519  21.782  0.00  0.00    +0.000 A 
ATOM     25  O   UNL     1      -0.927   9.620  22.759  0.00  0.00    +0.000 OA
ATOM     26  N   UNL     1      -0.434  10.166  20.607  0.00  0.00    +0.000 N 
ATOM     27  C   UNL     1       0.313  10.051  19.466  0.00  0.00    +0.000 A 
ATOM     28  O   UNL     1      -0.036  10.630  18.439  0.00  0.00    +0.000 OA
ATOM     29  H   UNL     1      -1.269  10.724  20.545  0.00  0.00    +0.000 HD
ENDBRANCH  20  21
ENDBRANCH  19  20
ENDBRANCH  13  19
TORSDOF 6
ENDMDL
MODEL 4
REMARK VINA RESULT:      -7.8      2.610      4.340
REMARK  Name = 
REMARK  8 active torsions:
REMARK  status: ('A' for Active; 'I' for Inactive)
REMARK    1  A    between atoms: C_6  and  C_7
REMARK    2  A    between atoms: C_10  and  O_11
REMARK    3  A    between atoms: C_12  and  C_13
REMARK    4  A    between atoms: C_12  and  C_14
REMARK    5  A    between atoms: C_14  and  O_15
REMARK    6  A    between atoms: C_16  and  C_17
REMARK    7  A    between atoms: C_17  and  C_18
REMARK    8  A    between atoms: C_18  and  N_19
REMARK                            x       y       z     vdW  Elec       q    Type
REMARK                         _______ _______ _______ _____ _____    ______ ____
ROOT
ATOM      1  C   UNL     1       4.471   6.840  16.274  0.00  0.00    +0.000 C 
ATOM      2  C   UNL     1       4.446   6.440  17.558  0.00  0.00    +0.000 C 
ATOM      3  C   UNL     1       5.568   5.598  18.099  0.00  0.00    +0.000 C 
ATOM      4  C   UNL     1       5.029   4.216  18.457  0.00  0.00    +0.000 C 
ATOM      5  C   UNL     1       3.854   4.290  19.459  0.00  0.00    +0.000 C 
ATOM      6  C   UNL     1       2.686   5.261  18.972  0.00  0.00    +0.000 C 
ATOM      7  C   UNL     1       1.910   4.738  17.741  0.00  0.00    +0.000 C 
ATOM      8  C   UNL     1       1.701   5.383  20.163  0.00  0.00    +0.000 C 
ATOM      9  C   UNL     1       1.228   4.079  20.781  0.00  0.00    +0.000 C 
ATOM     10  C   UNL     1       2.367   3.171  21.195  0.00  0.00    +0.000 C 
ATOM     11  C   UNL     1       3.388   2.892  20.052  0.00  0.00    +0.000 C 
ATOM     12  C   UNL     1       4.592   2.174  20.720  0.00  0.00    +0.000 C 
ATOM     13  C   UNL     1       3.315   6.681  18.575  0.00  0.00    +0.000 C 
ENDROOT
BRANCH  10  14
ATOM     14  O   UNL     1       1.820   1.963  21.723  0.00  0.00    +0.000 OA
ATOM     15  H   UNL     1       2.132   1.217  21.179  0.00  0.00    +0.000 HD
ENDBRANCH  10  14
BRANCH  11  16
ATOM     16  C   UNL     1       2.783   1.881  19.042  0.00  0.00    +0.000 C 
BRANCH  16  17
ATOM     17  O   UNL     1       3.739   0.998  18.480  0.00  0.00    +0.000 OA
ATOM     18  H   UNL     1       3.342   0.112  18.454  0.00  0.00    +0.000 HD
ENDBRANCH  16  17
ENDBRANCH  11  16
BRANCH  13  19
ATOM     19  C   UNL     1       2.342   7.795  18.079  0.00  0.00    +0.000 C 
BRANCH  19  20
ATOM     20  C   UNL     1       2.216   9.030  18.967  0.00  0.00    +0.000 C 
BRANCH  20  21
ATOM     21  N   UNL     1       0.878   9.602  18.946  0.00  0.00    +0.000 N 
ATOM     22  C   UNL     1       0.154   9.574  17.779  0.00  0.00    +0.000 A 
ATOM     23  C   UNL     1      -1.043  10.153  17.688  0.00  0.00    +0.000 A 
ATOM     24  C   UNL     1      -1.595  10.836  18.870  0.00  0.00    +0.000 A 
ATOM     25  O   UNL     1      -2.681  11.404  18.822  0.00  0.00    +0.000 OA
ATOM     26  N   UNL     1      -0.840  10.777  20.004  0.00  0.00    +0.000 N 
ATOM     27  C   UNL     1       0.400  10.208  20.106  0.00  0.00    +0.000 A 
ATOM     28  O   UNL     1       1.023  10.273  21.164  0.00  0.00    +0.000 OA
ATOM     29  H   UNL     1      -1.189  11.250  20.820  0.00  0.00    +0.000 HD
ENDBRANCH  20  21
ENDBRANCH  19  20
ENDBRANCH  13  19
TORSDOF 6
ENDMDL
MODEL 5
REMARK VINA RESULT:      -7.8      1.121      1.616
REMARK  Name = 
REMARK  8 active torsions:
REMARK  status: ('A' for Active; 'I' for Inactive)
REMARK    1  A    between atoms: C_6  and  C_7
REMARK    2  A    between atoms: C_10  and  O_11
REMARK    3  A    between atoms: C_12  and  C_13
REMARK    4  A    between atoms: C_12  and  C_14
REMARK    5  A    between atoms: C_14  and  O_15
REMARK    6  A    between atoms: C_16  and  C_17
REMARK    7  A    between atoms: C_17  and  C_18
REMARK    8  A    between atoms: C_18  and  N_19
REMARK                            x       y       z     vdW  Elec       q    Type
REMARK                         _______ _______ _______ _____ _____    ______ ____
ROOT
ATOM      1  C   UNL     1       1.312   3.740  19.731  0.00  0.00    +0.000 C 
ATOM      2  C   UNL     1       1.862   4.185  18.587  0.00  0.00    +0.000 C 
ATOM      3  C   UNL     1       2.211   3.208  17.498  0.00  0.00    +0.000 C 
ATOM      4  C   UNL     1       3.726   3.180  17.318  0.00  0.00    +0.000 C 
ATOM      5  C   UNL     1       4.303   4.582  17.017  0.00  0.00    +0.000 C 
ATOM      6  C   UNL     1       3.866   5.677  18.091  0.00  0.00    +0.000 C 
ATOM      7  C   UNL     1       4.490   5.463  19.490  0.00  0.00    +0.000 C 
ATOM      8  C   UNL     1       4.347   7.043  17.537  0.00  0.00    +0.000 C 
ATOM      9  C   UNL     1       5.800   7.120  17.106  0.00  0.00    +0.000 C 
ATOM     10  C   UNL     1       6.183   6.042  16.115  0.00  0.00    +0.000 C 
ATOM     11  C   UNL     1       5.835   4.602  16.595  0.00  0.00    +0.000 C 
ATOM     12  C   UNL     1       6.057   3.676  15.367  0.00  0.00    +0.000 C 
ATOM     13  C   UNL     1       2.273   5.634  18.265  0.00  0.00    +0.000 C 
ENDROOT
BRANCH  10  14
ATOM     14  O   UNL     1       7.571   6.176  15.807  0.00  0.00    +0.000 OA
ATOM     15  H   UNL     1       7.694   6.014  14.854  0.00  0.00    +0.000 HD
ENDBRANCH  10  14
BRANCH  11  16
ATOM     16  C   UNL     1       6.853   4.146  17.674  0.00  0.00    +0.000 C 
BRANCH  16  17
ATOM     17  O   UNL     1       8.184   4.049  17.195  0.00  0.00    +0.000 OA
ATOM     18  H   UNL     1       8.392   4.878  16.732  0.00  0.00    +0.000 HD
ENDBRANCH  16  17
ENDBRANCH  11  16
BRANCH  13  19
ATOM     19  C   UNL     1       1.624   6.637  19.268  0.00  0.00    +0.000 C 
BRANCH  19  20
ATOM     20  C   UNL     1       2.131   8.076  19.211  0.00  0.00    +0.000 C 
BRANCH  20  21
ATOM     21  N   UNL     1       1.086   9.050  19.486  0.00  0.00    +0.000 N 
ATOM     22  C   UNL     1       0.408   9.622  18.437  0.00  0.00    +0.000 A 
ATOM     23  C   UNL     1      -0.503  10.574  18.632  0.00  0.00    +0.000 A 
ATOM     24  C   UNL     1      -0.784  11.020  20.008  0.00  0.00    +0.000 A 
ATOM     25  O   UNL     1      -1.595  11.912  20.231  0.00  0.00    +0.000 OA
ATOM     26  N   UNL     1      -0.107  10.371  20.998  0.00  0.00    +0.000 N 
ATOM     27  C   UNL     1       0.848   9.408  20.811  0.00  0.00    +0.000 A 
ATOM     28  O   UNL     1       1.445   8.937  21.777  0.00  0.00    +0.000 OA
ATOM     29  H   UNL     1      -0.270  10.668  21.945  0.00  0.00    +0.000 HD
ENDBRANCH  20  21
ENDBRANCH  19  20
ENDBRANCH  13  19
TORSDOF 6
ENDMDL
MODEL 6
REMARK VINA RESULT:      -7.7      2.828      4.386
REMARK  Name = 
REMARK  8 active torsions:
REMARK  status: ('A' for Active; 'I' for Inactive)
REMARK    1  A    between atoms: C_6  and  C_7
REMARK    2  A    between atoms: C_10  and  O_11
REMARK    3  A    between atoms: C_12  and  C_13
REMARK    4  A    between atoms: C_12  and  C_14
REMARK    5  A    between atoms: C_14  and  O_15
REMARK    6  A    between atoms: C_16  and  C_17
REMARK    7  A    between atoms: C_17  and  C_18
REMARK    8  A    between atoms: C_18  and  N_19
REMARK                            x       y       z     vdW  Elec       q    Type
REMARK                         _______ _______ _______ _____ _____    ______ ____
ROOT
ATOM      1  C   UNL     1       4.478   6.785  16.184  0.00  0.00    +0.000 C 
ATOM      2  C   UNL     1       4.442   6.420  17.479  0.00  0.00    +0.000 C 
ATOM      3  C   UNL     1       5.563   5.600  18.055  0.00  0.00    +0.000 C 
ATOM      4  C   UNL     1       5.029   4.225  18.446  0.00  0.00    +0.000 C 
ATOM      5  C   UNL     1       3.842   4.320  19.432  0.00  0.00    +0.000 C 
ATOM      6  C   UNL     1       2.674   5.270  18.907  0.00  0.00    +0.000 C 
ATOM      7  C   UNL     1       1.914   4.708  17.683  0.00  0.00    +0.000 C 
ATOM      8  C   UNL     1       1.676   5.418  20.084  0.00  0.00    +0.000 C 
ATOM      9  C   UNL     1       1.204   4.129  20.733  0.00  0.00    +0.000 C 
ATOM     10  C   UNL     1       2.344   3.241  21.183  0.00  0.00    +0.000 C 
ATOM     11  C   UNL     1       3.378   2.936  20.059  0.00  0.00    +0.000 C 
ATOM     12  C   UNL     1       4.580   2.244  20.759  0.00  0.00    +0.000 C 
ATOM     13  C   UNL     1       3.299   6.682  18.478  0.00  0.00    +0.000 C 
ENDROOT
BRANCH  10  14
ATOM     14  O   UNL     1       1.798   2.044  21.739  0.00  0.00    +0.000 OA
ATOM     15  H   UNL     1       2.195   1.900  22.617  0.00  0.00    +0.000 HD
ENDBRANCH  10  14
BRANCH  11  16
ATOM     16  C   UNL     1       2.790   1.894  19.072  0.00  0.00    +0.000 C 
BRANCH  16  17
ATOM     17  O   UNL     1       3.766   1.042  18.496  0.00  0.00    +0.000 OA
ATOM     18  H   UNL     1       4.123   0.482  19.205  0.00  0.00    +0.000 HD
ENDBRANCH  16  17
ENDBRANCH  11  16
BRANCH  13  19
ATOM     19  C   UNL     1       2.324   7.776  17.941  0.00  0.00    +0.000 C 
BRANCH  19  20
ATOM     20  C   UNL     1       2.732   9.226  18.185  0.00  0.00    +0.000 C 
BRANCH  20  21
ATOM     21  N   UNL     1       1.590  10.101  18.404  0.00  0.00    +0.000 N 
ATOM     22  C   UNL     1       0.377   9.551  18.737  0.00  0.00    +0.000 A 
ATOM     23  C   UNL     1      -0.715  10.302  18.872  0.00  0.00    +0.000 A 
ATOM     24  C   UNL     1      -0.611  11.755  18.658  0.00  0.00    +0.000 A 
ATOM     25  O   UNL     1      -1.596  12.480  18.746  0.00  0.00    +0.000 OA
ATOM     26  N   UNL     1       0.636  12.232  18.380  0.00  0.00    +0.000 N 
ATOM     27  C   UNL     1       1.761  11.471  18.215  0.00  0.00    +0.000 A 
ATOM     28  O   UNL     1       2.823  12.002  17.897  0.00  0.00    +0.000 OA
ATOM     29  H   UNL     1       0.730  13.220  18.214  0.00  0.00    +0.000 HD
ENDBRANCH  20  21
ENDBRANCH  19  20
ENDBRANCH  13  19
TORSDOF 6
ENDMDL
MODEL 7
REMARK VINA RESULT:      -7.7      2.735      4.427
REMARK  Name = 
REMARK  8 active torsions:
REMARK  status: ('A' for Active; 'I' for Inactive)
REMARK    1  A    between atoms: C_6  and  C_7
REMARK    2  A    between atoms: C_10  and  O_11
REMARK    3  A    between atoms: C_12  and  C_13
REMARK    4  A    between atoms: C_12  and  C_14
REMARK    5  A    between atoms: C_14  and  O_15
REMARK    6  A    between atoms: C_16  and  C_17
REMARK    7  A    between atoms: C_17  and  C_18
REMARK    8  A    between atoms: C_18  and  N_19
REMARK                            x       y       z     vdW  Elec       q    Type
REMARK                         _______ _______ _______ _____ _____    ______ ____
ROOT
ATOM      1  C   UNL     1       4.624   6.773  16.202  0.00  0.00    +0.000 C 
ATOM      2  C   UNL     1       4.601   6.383  17.489  0.00  0.00    +0.000 C 
ATOM      3  C   UNL     1       5.667   5.456  18.006  0.00  0.00    +0.000 C 
ATOM      4  C   UNL     1       5.029   4.123  18.388  0.00  0.00    +0.000 C 
ATOM      5  C   UNL     1       3.891   4.297  19.420  0.00  0.00    +0.000 C 
ATOM      6  C   UNL     1       2.792   5.357  18.959  0.00  0.00    +0.000 C 
ATOM      7  C   UNL     1       1.943   4.891  17.753  0.00  0.00    +0.000 C 
ATOM      8  C   UNL     1       1.853   5.563  20.175  0.00  0.00    +0.000 C 
ATOM      9  C   UNL     1       1.294   4.304  20.815  0.00  0.00    +0.000 C 
ATOM     10  C   UNL     1       2.368   3.310  21.204  0.00  0.00    +0.000 C 
ATOM     11  C   UNL     1       3.331   2.944  20.036  0.00  0.00    +0.000 C 
ATOM     12  C   UNL     1       4.492   2.134  20.677  0.00  0.00    +0.000 C 
ATOM     13  C   UNL     1       3.522   6.719  18.535  0.00  0.00    +0.000 C 
ENDROOT
BRANCH  10  14
ATOM     14  O   UNL     1       1.740   2.152  21.755  0.00  0.00    +0.000 OA
ATOM     15  H   UNL     1       2.286   1.373  21.543  0.00  0.00    +0.000 HD
ENDBRANCH  10  14
BRANCH  11  16
ATOM     16  C   UNL     1       2.619   1.980  19.050  0.00  0.00    +0.000 C 
BRANCH  16  17
ATOM     17  O   UNL     1       3.492   1.043  18.441  0.00  0.00    +0.000 OA
ATOM     18  H   UNL     1       3.665   1.348  17.535  0.00  0.00    +0.000 HD
ENDBRANCH  16  17
ENDBRANCH  11  16
BRANCH  13  19
ATOM     19  C   UNL     1       2.628   7.905  18.057  0.00  0.00    +0.000 C 
BRANCH  19  20
ATOM     20  C   UNL     1       1.675   8.495  19.093  0.00  0.00    +0.000 C 
BRANCH  20  21
ATOM     21  N   UNL     1       1.425   9.913  18.883  0.00  0.00    +0.000 N 
ATOM     22  C   UNL     1       2.344  10.660  18.187  0.00  0.00    +0.000 A 
ATOM     23  C   UNL     1       2.199  11.976  18.035  0.00  0.00    +0.000 A 
ATOM     24  C   UNL     1       1.024  12.637  18.628  0.00  0.00    +0.000 A 
ATOM     25  O   UNL     1       0.865  13.849  18.535  0.00  0.00    +0.000 OA
ATOM     26  N   UNL     1       0.132  11.821  19.259  0.00  0.00    +0.000 N 
ATOM     27  C   UNL     1       0.279  10.473  19.445  0.00  0.00    +0.000 A 
ATOM     28  O   UNL     1      -0.557   9.845  20.091  0.00  0.00    +0.000 OA
ATOM     29  H   UNL     1      -0.670  12.251  19.687  0.00  0.00    +0.000 HD
ENDBRANCH  20  21
ENDBRANCH  19  20
ENDBRANCH  13  19
TORSDOF 6
ENDMDL
MODEL 8
REMARK VINA RESULT:      -7.4      1.619      1.940
REMARK  Name = 
REMARK  8 active torsions:
REMARK  status: ('A' for Active; 'I' for Inactive)
REMARK    1  A    between atoms: C_6  and  C_7
REMARK    2  A    between atoms: C_10  and  O_11
REMARK    3  A    between atoms: C_12  and  C_13
REMARK    4  A    between atoms: C_12  and  C_14
REMARK    5  A    between atoms: C_14  and  O_15
REMARK    6  A    between atoms: C_16  and  C_17
REMARK    7  A    between atoms: C_17  and  C_18
REMARK    8  A    between atoms: C_18  and  N_19
REMARK                            x       y       z     vdW  Elec       q    Type
REMARK                         _______ _______ _______ _____ _____    ______ ____
ROOT
ATOM      1  C   UNL     1       1.524   4.400  20.234  0.00  0.00    +0.000 C 
ATOM      2  C   UNL     1       1.977   4.773  19.023  0.00  0.00    +0.000 C 
ATOM      3  C   UNL     1       2.035   3.768  17.906  0.00  0.00    +0.000 C 
ATOM      4  C   UNL     1       3.493   3.524  17.528  0.00  0.00    +0.000 C 
ATOM      5  C   UNL     1       4.221   4.831  17.141  0.00  0.00    +0.000 C 
ATOM      6  C   UNL     1       4.092   5.966  18.255  0.00  0.00    +0.000 C 
ATOM      7  C   UNL     1       4.858   5.650  19.561  0.00  0.00    +0.000 C 
ATOM      8  C   UNL     1       4.687   7.254  17.631  0.00  0.00    +0.000 C 
ATOM      9  C   UNL     1       6.067   7.126  17.011  0.00  0.00    +0.000 C 
ATOM     10  C   UNL     1       6.156   6.014  15.987  0.00  0.00    +0.000 C 
ATOM     11  C   UNL     1       5.671   4.634  16.521  0.00  0.00    +0.000 C 
ATOM     12  C   UNL     1       5.593   3.699  15.283  0.00  0.00    +0.000 C 
ATOM     13  C   UNL     1       2.546   6.151  18.638  0.00  0.00    +0.000 C 
ENDROOT
BRANCH  10  14
ATOM     14  O   UNL     1       7.496   5.950  15.497  0.00  0.00    +0.000 OA
ATOM     15  H   UNL     1       8.004   5.338  16.060  0.00  0.00    +0.000 HD
ENDBRANCH  10  14
BRANCH  11  16
ATOM     16  C   UNL     1       6.746   4.026  17.460  0.00  0.00    +0.000 C 
BRANCH  16  17
ATOM     17  O   UNL     1       8.059   4.071  16.927  0.00  0.00    +0.000 OA
ATOM     18  H   UNL     1       8.639   4.456  17.604  0.00  0.00    +0.000 HD
ENDBRANCH  16  17
ENDBRANCH  11  16
BRANCH  13  19
ATOM     19  C   UNL     1       2.187   7.227  19.709  0.00  0.00    +0.000 C 
BRANCH  19  20
ATOM     20  C   UNL     1       0.935   8.058  19.441  0.00  0.00    +0.000 C 
BRANCH  20  21
ATOM     21  N   UNL     1       1.216   9.483  19.351  0.00  0.00    +0.000 N 
ATOM     22  C   UNL     1       0.909  10.296  20.413  0.00  0.00    +0.000 A 
ATOM     23  C   UNL     1       1.075  11.617  20.351  0.00  0.00    +0.000 A 
ATOM     24  C   UNL     1       1.602  12.210  19.110  0.00  0.00    +0.000 A 
ATOM     25  O   UNL     1       1.745  13.423  19.000  0.00  0.00    +0.000 OA
ATOM     26  N   UNL     1       1.929  11.334  18.118  0.00  0.00    +0.000 N 
ATOM     27  C   UNL     1       1.742   9.978  18.159  0.00  0.00    +0.000 A 
ATOM     28  O   UNL     1       2.012   9.289  17.178  0.00  0.00    +0.000 OA
ATOM     29  H   UNL     1       2.276  11.716  17.255  0.00  0.00    +0.000 HD
ENDBRANCH  20  21
ENDBRANCH  19  20
ENDBRANCH  13  19
TORSDOF 6
ENDMDL
MODEL 9
REMARK VINA RESULT:      -7.3      2.046      3.488
REMARK  Name = 
REMARK  8 active torsions:
REMARK  status: ('A' for Active; 'I' for Inactive)
REMARK    1  A    between atoms: C_6  and  C_7
REMARK    2  A    between atoms: C_10  and  O_11
REMARK    3  A    between atoms: C_12  and  C_13
REMARK    4  A    between atoms: C_12  and  C_14
REMARK    5  A    between atoms: C_14  and  O_15
REMARK    6  A    between atoms: C_16  and  C_17
REMARK    7  A    between atoms: C_17  and  C_18
REMARK    8  A    between atoms: C_18  and  N_19
REMARK                            x       y       z     vdW  Elec       q    Type
REMARK                         _______ _______ _______ _____ _____    ______ ____
ROOT
ATOM      1  C   UNL     1       1.502   8.643  17.655  0.00  0.00    +0.000 C 
ATOM      2  C   UNL     1       2.484   7.994  18.306  0.00  0.00    +0.000 C 
ATOM      3  C   UNL     1       3.851   7.894  17.686  0.00  0.00    +0.000 C 
ATOM      4  C   UNL     1       4.147   6.433  17.360  0.00  0.00    +0.000 C 
ATOM      5  C   UNL     1       4.030   5.523  18.605  0.00  0.00    +0.000 C 
ATOM      6  C   UNL     1       2.632   5.678  19.357  0.00  0.00    +0.000 C 
ATOM      7  C   UNL     1       1.427   5.133  18.556  0.00  0.00    +0.000 C 
ATOM      8  C   UNL     1       2.758   4.870  20.674  0.00  0.00    +0.000 C 
ATOM      9  C   UNL     1       3.253   3.440  20.542  0.00  0.00    +0.000 C 
ATOM     10  C   UNL     1       4.563   3.334  19.789  0.00  0.00    +0.000 C 
ATOM     11  C   UNL     1       4.540   4.032  18.397  0.00  0.00    +0.000 C 
ATOM     12  C   UNL     1       6.012   4.043  17.900  0.00  0.00    +0.000 C 
ATOM     13  C   UNL     1       2.359   7.233  19.639  0.00  0.00    +0.000 C 
ENDROOT
BRANCH  10  14
ATOM     14  O   UNL     1       4.919   1.955  19.684  0.00  0.00    +0.000 OA
ATOM     15  H   UNL     1       4.105   1.421  19.723  0.00  0.00    +0.000 HD
ENDBRANCH  10  14
BRANCH  11  16
ATOM     16  C   UNL     1       3.745   3.165  17.386  0.00  0.00    +0.000 C 
BRANCH  16  17
ATOM     17  O   UNL     1       4.397   1.956  17.037  0.00  0.00    +0.000 OA
ATOM     18  H   UNL     1       4.149   1.741  16.122  0.00  0.00    +0.000 HD
ENDBRANCH  16  17
ENDBRANCH  11  16
BRANCH  13  19
ATOM     19  C   UNL     1       1.042   7.616  20.382  0.00  0.00    +0.000 C 
BRANCH  19  20
ATOM     20  C   UNL     1       1.193   8.509  21.611  0.00  0.00    +0.000 C 
BRANCH  20  21
ATOM     21  N   UNL     1       0.241   9.610  21.624  0.00  0.00    +0.000 N 
ATOM     22  C   UNL     1      -0.180  10.147  20.432  0.00  0.00    +0.000 A 
ATOM     23  C   UNL     1      -0.989  11.205  20.393  0.00  0.00    +0.000 A 
ATOM     24  C   UNL     1      -1.437  11.807  21.660  0.00  0.00    +0.000 A 
ATOM     25  O   UNL     1      -2.160  12.798  21.669  0.00  0.00    +0.000 OA
ATOM     26  N   UNL     1      -1.017  11.188  22.799  0.00  0.00    +0.000 N 
ATOM     27  C   UNL     1      -0.167  10.116  22.856  0.00  0.00    +0.000 A 
ATOM     28  O   UNL     1       0.201   9.679  23.945  0.00  0.00    +0.000 OA
ATOM     29  H   UNL     1      -1.296  11.589  23.678  0.00  0.00    +0.000 HD
ENDBRANCH  20  21
ENDBRANCH  19  20
ENDBRANCH  13  19
TORSDOF 6
ENDMDL
