MODEL 1
REMARK VINA RESULT:      -7.2      0.000      0.000
REMARK  Name = 
REMARK  3 active torsions:
REMARK  status: ('A' for Active; 'I' for Inactive)
REMARK    1  A    between atoms: C_1  and  C_2
REMARK    2  A    between atoms: C_2  and  N_3
REMARK    3  A    between atoms: C_9  and  C_10
REMARK                            x       y       z     vdW  Elec       q    Type
REMARK                         _______ _______ _______ _____ _____    ______ ____
ROOT
ATOM      1  N   UNL     1       5.334   4.765  15.880  0.00  0.00    +0.000 N 
ATOM      2  C   UNL     1       5.471   6.051  15.397  0.00  0.00    +0.000 A 
ATOM      3  N   UNL     1       4.891   7.101  15.877  0.00  0.00    +0.000 NA
ATOM      4  C   UNL     1       4.082   6.856  16.939  0.00  0.00    +0.000 A 
ATOM      5  S   UNL     1       3.240   8.130  17.689  0.00  0.00    +0.000 S 
ATOM      6  C   UNL     1       2.497   7.061  18.792  0.00  0.00    +0.000 A 
ATOM      7  C   UNL     1       2.879   5.738  18.622  0.00  0.00    +0.000 A 
ATOM      8  C   UNL     1       3.836   5.636  17.542  0.00  0.00    +0.000 A 
ATOM      9  C   UNL     1       4.565   4.488  17.017  0.00  0.00    +0.000 A 
ATOM     10  O   UNL     1       4.546   3.374  17.532  0.00  0.00    +0.000 OA
ENDROOT
BRANCH   7  11
ATOM     11  C   UNL     1       2.290   4.690  19.469  0.00  0.00    +0.000 A 
ATOM     12  C   UNL     1       2.672   4.546  20.808  0.00  0.00    +0.000 A 
ATOM     13  C   UNL     1       2.097   3.564  21.622  0.00  0.00    +0.000 A 
ATOM     14  C   UNL     1       1.164   2.679  21.094  0.00  0.00    +0.000 A 
ATOM     15  C   UNL     1       0.800   2.778  19.754  0.00  0.00    +0.000 A 
ATOM     16  C   UNL     1       1.350   3.782  18.951  0.00  0.00    +0.000 A 
ENDBRANCH   7  11
BRANCH   1  18
ATOM     17  C   UNL     1       6.237   3.850  13.782  0.00  0.00    +0.000 C 
ATOM     18  C   UNL     1       6.119   3.690  15.291  0.00  0.00    +0.000 C 
ENDBRANCH   1  18
TORSDOF 2
ENDMDL
MODEL 2
REMARK VINA RESULT:      -7.2      0.019      1.134
REMARK  Name = 
REMARK  3 active torsions:
REMARK  status: ('A' for Active; 'I' for Inactive)
REMARK    1  A    between atoms: C_1  and  C_2
REMARK    2  A    between atoms: C_2  and  N_3
REMARK    3  A    between atoms: C_9  and  C_10
REMARK                            x       y       z     vdW  Elec       q    Type
REMARK                         _______ _______ _______ _____ _____    ______ ____
ROOT
ATOM      1  N   UNL     1       5.344   4.769  15.866  0.00  0.00    +0.000 N 
ATOM      2  C   UNL     1       5.480   6.056  15.386  0.00  0.00    +0.000 A 
ATOM      3  N   UNL     1       4.899   7.105  15.869  0.00  0.00    +0.000 NA
ATOM      4  C   UNL     1       4.090   6.856  16.931  0.00  0.00    +0.000 A 
ATOM      5  S   UNL     1       3.247   8.127  17.684  0.00  0.00    +0.000 S 
ATOM      6  C   UNL     1       2.505   7.055  18.784  0.00  0.00    +0.000 A 
ATOM      7  C   UNL     1       2.887   5.732  18.609  0.00  0.00    +0.000 A 
ATOM      8  C   UNL     1       3.845   5.634  17.530  0.00  0.00    +0.000 A 
ATOM      9  C   UNL     1       4.575   4.488  17.001  0.00  0.00    +0.000 A 
ATOM     10  O   UNL     1       4.556   3.372  17.513  0.00  0.00    +0.000 OA
ENDROOT
BRANCH   7  11
ATOM     11  C   UNL     1       2.299   4.681  19.453  0.00  0.00    +0.000 A 
ATOM     12  C   UNL     1       1.349   3.790  18.938  0.00  0.00    +0.000 A 
ATOM     13  C   UNL     1       0.804   2.776  19.733  0.00  0.00    +0.000 A 
ATOM     14  C   UNL     1       1.167   2.668  21.071  0.00  0.00    +0.000 A 
ATOM     15  C   UNL     1       2.078   3.568  21.614  0.00  0.00    +0.000 A 
ATOM     16  C   UNL     1       2.648   4.560  20.809  0.00  0.00    +0.000 A 
ENDBRANCH   7  11
BRANCH   1  18
ATOM     17  C   UNL     1       6.220   3.842  13.761  0.00  0.00    +0.000 C 
ATOM     18  C   UNL     1       6.130   3.696  15.273  0.00  0.00    +0.000 C 
ENDBRANCH   1  18
TORSDOF 2
ENDMDL
MODEL 3
REMARK VINA RESULT:      -7.0      2.022      2.467
REMARK  Name = 
REMARK  3 active torsions:
REMARK  status: ('A' for Active; 'I' for Inactive)
REMARK    1  A    between atoms: C_1  and  C_2
REMARK    2  A    between atoms: C_2  and  N_3
REMARK    3  A    between atoms: C_9  and  C_10
REMARK                            x       y       z     vdW  Elec       q    Type
REMARK                         _______ _______ _______ _____ _____    ______ ____
ROOT
ATOM      1  N   UNL     1       5.667   4.444  14.978  0.00  0.00    +0.000 N 
ATOM      2  C   UNL     1       6.914   5.032  14.918  0.00  0.00    +0.000 A 
ATOM      3  N   UNL     1       7.576   5.497  15.927  0.00  0.00    +0.000 NA
ATOM      4  C   UNL     1       6.936   5.379  17.118  0.00  0.00    +0.000 A 
ATOM      5  S   UNL     1       7.668   5.943  18.546  0.00  0.00    +0.000 S 
ATOM      6  C   UNL     1       6.314   5.496  19.481  0.00  0.00    +0.000 A 
ATOM      7  C   UNL     1       5.300   4.907  18.739  0.00  0.00    +0.000 A 
ATOM      8  C   UNL     1       5.692   4.819  17.350  0.00  0.00    +0.000 A 
ATOM      9  C   UNL     1       5.010   4.242  16.198  0.00  0.00    +0.000 A 
ATOM     10  O   UNL     1       3.966   3.601  16.275  0.00  0.00    +0.000 OA
ENDROOT
BRANCH   7  11
ATOM     11  C   UNL     1       4.047   4.507  19.397  0.00  0.00    +0.000 A 
ATOM     12  C   UNL     1       3.804   3.170  19.733  0.00  0.00    +0.000 A 
ATOM     13  C   UNL     1       2.622   2.791  20.379  0.00  0.00    +0.000 A 
ATOM     14  C   UNL     1       1.643   3.738  20.656  0.00  0.00    +0.000 A 
ATOM     15  C   UNL     1       1.847   5.066  20.294  0.00  0.00    +0.000 A 
ATOM     16  C   UNL     1       3.043   5.450  19.679  0.00  0.00    +0.000 A 
ENDBRANCH   7  11
BRANCH   1  18
ATOM     17  C   UNL     1       6.143   3.533  12.742  0.00  0.00    +0.000 C 
ATOM     18  C   UNL     1       5.077   3.887  13.769  0.00  0.00    +0.000 C 
ENDBRANCH   1  18
TORSDOF 2
ENDMDL
MODEL 4
REMARK VINA RESULT:      -7.0      2.030      2.439
REMARK  Name = 
REMARK  3 active torsions:
REMARK  status: ('A' for Active; 'I' for Inactive)
REMARK    1  A    between atoms: C_1  and  C_2
REMARK    2  A    between atoms: C_2  and  N_3
REMARK    3  A    between atoms: C_9  and  C_10
REMARK                            x       y       z     vdW  Elec       q    Type
REMARK                         _______ _______ _______ _____ _____    ______ ____
ROOT
ATOM      1  N   UNL     1       5.686   4.448  14.949  0.00  0.00    +0.000 N 
ATOM      2  C   UNL     1       6.918   5.066  14.884  0.00  0.00    +0.000 A 
ATOM      3  N   UNL     1       7.573   5.545  15.890  0.00  0.00    +0.000 NA
ATOM      4  C   UNL     1       6.942   5.409  17.084  0.00  0.00    +0.000 A 
ATOM      5  S   UNL     1       7.667   5.989  18.509  0.00  0.00    +0.000 S 
ATOM      6  C   UNL     1       6.328   5.508  19.450  0.00  0.00    +0.000 A 
ATOM      7  C   UNL     1       5.325   4.896  18.712  0.00  0.00    +0.000 A 
ATOM      8  C   UNL     1       5.713   4.820  17.321  0.00  0.00    +0.000 A 
ATOM      9  C   UNL     1       5.040   4.229  16.171  0.00  0.00    +0.000 A 
ATOM     10  O   UNL     1       4.011   3.562  16.252  0.00  0.00    +0.000 OA
ENDROOT
BRANCH   7  11
ATOM     11  C   UNL     1       4.085   4.465  19.375  0.00  0.00    +0.000 A 
ATOM     12  C   UNL     1       3.097   5.392  19.730  0.00  0.00    +0.000 A 
ATOM     13  C   UNL     1       1.908   4.981  20.341  0.00  0.00    +0.000 A 
ATOM     14  C   UNL     1       1.708   3.640  20.650  0.00  0.00    +0.000 A 
ATOM     15  C   UNL     1       2.695   2.708  20.343  0.00  0.00    +0.000 A 
ATOM     16  C   UNL     1       3.869   3.115  19.701  0.00  0.00    +0.000 A 
ENDBRANCH   7  11
BRANCH   1  18
ATOM     17  C   UNL     1       6.175   3.530  12.718  0.00  0.00    +0.000 C 
ATOM     18  C   UNL     1       5.104   3.879  13.741  0.00  0.00    +0.000 C 
ENDBRANCH   1  18
TORSDOF 2
ENDMDL
MODEL 5
REMARK VINA RESULT:      -6.7      2.161      5.410
REMARK  Name = 
REMARK  3 active torsions:
REMARK  status: ('A' for Active; 'I' for Inactive)
REMARK    1  A    between atoms: C_1  and  C_2
REMARK    2  A    between atoms: C_2  and  N_3
REMARK    3  A    between atoms: C_9  and  C_10
REMARK                            x       y       z     vdW  Elec       q    Type
REMARK                         _______ _______ _______ _____ _____    ______ ____
ROOT
ATOM      1  N   UNL     1       2.757   4.037  20.437  0.00  0.00    +0.000 N 
ATOM      2  C   UNL     1       1.920   5.019  20.925  0.00  0.00    +0.000 A 
ATOM      3  N   UNL     1       1.750   6.191  20.405  0.00  0.00    +0.000 NA
ATOM      4  C   UNL     1       2.492   6.421  19.292  0.00  0.00    +0.000 A 
ATOM      5  S   UNL     1       2.389   7.915  18.485  0.00  0.00    +0.000 S 
ATOM      6  C   UNL     1       3.557   7.437  17.338  0.00  0.00    +0.000 A 
ATOM      7  C   UNL     1       4.032   6.148  17.537  0.00  0.00    +0.000 A 
ATOM      8  C   UNL     1       3.374   5.550  18.678  0.00  0.00    +0.000 A 
ATOM      9  C   UNL     1       3.483   4.215  19.253  0.00  0.00    +0.000 A 
ATOM     10  O   UNL     1       4.124   3.302  18.740  0.00  0.00    +0.000 OA
ENDROOT
BRANCH   7  11
ATOM     11  C   UNL     1       5.078   5.608  16.655  0.00  0.00    +0.000 A 
ATOM     12  C   UNL     1       6.416   5.992  16.804  0.00  0.00    +0.000 A 
ATOM     13  C   UNL     1       7.415   5.463  15.981  0.00  0.00    +0.000 A 
ATOM     14  C   UNL     1       7.084   4.575  14.963  0.00  0.00    +0.000 A 
ATOM     15  C   UNL     1       5.755   4.212  14.772  0.00  0.00    +0.000 A 
ATOM     16  C   UNL     1       4.761   4.715  15.617  0.00  0.00    +0.000 A 
ENDBRANCH   7  11
BRANCH   1  18
ATOM     17  C   UNL     1       1.480   2.446  21.813  0.00  0.00    +0.000 C 
ATOM     18  C   UNL     1       2.783   2.731  21.080  0.00  0.00    +0.000 C 
ENDBRANCH   1  18
TORSDOF 2
ENDMDL
MODEL 6
REMARK VINA RESULT:      -6.6      2.157      5.512
REMARK  Name = 
REMARK  3 active torsions:
REMARK  status: ('A' for Active; 'I' for Inactive)
REMARK    1  A    between atoms: C_1  and  C_2
REMARK    2  A    between atoms: C_2  and  N_3
REMARK    3  A    between atoms: C_9  and  C_10
REMARK                            x       y       z     vdW  Elec       q    Type
REMARK                         _______ _______ _______ _____ _____    ______ ____
ROOT
ATOM      1  N   UNL     1       2.799   4.027  20.455  0.00  0.00    +0.000 N 
ATOM      2  C   UNL     1       1.980   5.022  20.947  0.00  0.00    +0.000 A 
ATOM      3  N   UNL     1       1.814   6.190  20.420  0.00  0.00    +0.000 NA
ATOM      4  C   UNL     1       2.541   6.403  19.293  0.00  0.00    +0.000 A 
ATOM      5  S   UNL     1       2.441   7.891  18.475  0.00  0.00    +0.000 S 
ATOM      6  C   UNL     1       3.587   7.391  17.314  0.00  0.00    +0.000 A 
ATOM      7  C   UNL     1       4.051   6.099  17.517  0.00  0.00    +0.000 A 
ATOM      8  C   UNL     1       3.405   5.518  18.673  0.00  0.00    +0.000 A 
ATOM      9  C   UNL     1       3.508   4.187  19.258  0.00  0.00    +0.000 A 
ATOM     10  O   UNL     1       4.132   3.263  18.744  0.00  0.00    +0.000 OA
ENDROOT
BRANCH   7  11
ATOM     11  C   UNL     1       5.077   5.540  16.624  0.00  0.00    +0.000 A 
ATOM     12  C   UNL     1       4.721   4.815  15.481  0.00  0.00    +0.000 A 
ATOM     13  C   UNL     1       5.696   4.301  14.619  0.00  0.00    +0.000 A 
ATOM     14  C   UNL     1       7.045   4.465  14.913  0.00  0.00    +0.000 A 
ATOM     15  C   UNL     1       7.421   5.147  16.066  0.00  0.00    +0.000 A 
ATOM     16  C   UNL     1       6.445   5.690  16.909  0.00  0.00    +0.000 A 
ENDBRANCH   7  11
BRANCH   1  18
ATOM     17  C   UNL     1       1.498   2.427  21.797  0.00  0.00    +0.000 C 
ATOM     18  C   UNL     1       2.822   2.726  21.109  0.00  0.00    +0.000 C 
ENDBRANCH   1  18
TORSDOF 2
ENDMDL
MODEL 7
REMARK VINA RESULT:      -6.6      2.904      5.997
REMARK  Name = 
REMARK  3 active torsions:
REMARK  status: ('A' for Active; 'I' for Inactive)
REMARK    1  A    between atoms: C_1  and  C_2
REMARK    2  A    between atoms: C_2  and  N_3
REMARK    3  A    between atoms: C_9  and  C_10
REMARK                            x       y       z     vdW  Elec       q    Type
REMARK                         _______ _______ _______ _____ _____    ______ ____
ROOT
ATOM      1  N   UNL     1       2.187   6.772  19.774  0.00  0.00    +0.000 N 
ATOM      2  C   UNL     1       1.624   5.992  20.763  0.00  0.00    +0.000 A 
ATOM      3  N   UNL     1       1.920   4.757  21.008  0.00  0.00    +0.000 NA
ATOM      4  C   UNL     1       2.863   4.235  20.183  0.00  0.00    +0.000 A 
ATOM      5  S   UNL     1       3.366   2.621  20.368  0.00  0.00    +0.000 S 
ATOM      6  C   UNL     1       4.429   2.743  19.039  0.00  0.00    +0.000 A 
ATOM      7  C   UNL     1       4.430   3.998  18.446  0.00  0.00    +0.000 A 
ATOM      8  C   UNL     1       3.521   4.877  19.149  0.00  0.00    +0.000 A 
ATOM      9  C   UNL     1       3.212   6.287  18.952  0.00  0.00    +0.000 A 
ATOM     10  O   UNL     1       3.809   7.013  18.163  0.00  0.00    +0.000 OA
ENDROOT
BRANCH   7  11
ATOM     11  C   UNL     1       5.262   4.248  17.260  0.00  0.00    +0.000 A 
ATOM     12  C   UNL     1       4.740   4.099  15.969  0.00  0.00    +0.000 A 
ATOM     13  C   UNL     1       5.524   4.357  14.839  0.00  0.00    +0.000 A 
ATOM     14  C   UNL     1       6.858   4.723  14.983  0.00  0.00    +0.000 A 
ATOM     15  C   UNL     1       7.407   4.836  16.256  0.00  0.00    +0.000 A 
ATOM     16  C   UNL     1       6.614   4.611  17.386  0.00  0.00    +0.000 A 
ENDBRANCH   7  11
BRANCH   1  18
ATOM     17  C   UNL     1       1.097   8.657  20.922  0.00  0.00    +0.000 C 
ATOM     18  C   UNL     1       1.816   8.176  19.669  0.00  0.00    +0.000 C 
ENDBRANCH   1  18
TORSDOF 2
ENDMDL
MODEL 8
REMARK VINA RESULT:      -6.5      2.885      5.919
REMARK  Name = 
REMARK  3 active torsions:
REMARK  status: ('A' for Active; 'I' for Inactive)
REMARK    1  A    between atoms: C_1  and  C_2
REMARK    2  A    between atoms: C_2  and  N_3
REMARK    3  A    between atoms: C_9  and  C_10
REMARK                            x       y       z     vdW  Elec       q    Type
REMARK                         _______ _______ _______ _____ _____    ______ ____
ROOT
ATOM      1  N   UNL     1       2.101   6.367  19.788  0.00  0.00    +0.000 N 
ATOM      2  C   UNL     1       1.272   5.477  20.439  0.00  0.00    +0.000 A 
ATOM      3  N   UNL     1       1.311   4.190  20.323  0.00  0.00    +0.000 NA
ATOM      4  C   UNL     1       2.262   3.735  19.467  0.00  0.00    +0.000 A 
ATOM      5  S   UNL     1       2.446   2.065  19.198  0.00  0.00    +0.000 S 
ATOM      6  C   UNL     1       3.698   2.330  18.070  0.00  0.00    +0.000 A 
ATOM      7  C   UNL     1       4.004   3.672  17.889  0.00  0.00    +0.000 A 
ATOM      8  C   UNL     1       3.166   4.488  18.741  0.00  0.00    +0.000 A 
ATOM      9  C   UNL     1       3.137   5.929  18.955  0.00  0.00    +0.000 A 
ATOM     10  O   UNL     1       3.961   6.706  18.480  0.00  0.00    +0.000 OA
ENDROOT
BRANCH   7  11
ATOM     11  C   UNL     1       5.033   4.065  16.915  0.00  0.00    +0.000 A 
ATOM     12  C   UNL     1       6.329   4.396  17.329  0.00  0.00    +0.000 A 
ATOM     13  C   UNL     1       7.315   4.749  16.401  0.00  0.00    +0.000 A 
ATOM     14  C   UNL     1       7.006   4.821  15.048  0.00  0.00    +0.000 A 
ATOM     15  C   UNL     1       5.714   4.535  14.619  0.00  0.00    +0.000 A 
ATOM     16  C   UNL     1       4.737   4.150  15.544  0.00  0.00    +0.000 A 
ENDBRANCH   7  11
BRANCH   1  18
ATOM     17  C   UNL     1       1.073   8.048  21.263  0.00  0.00    +0.000 C 
ATOM     18  C   UNL     1       1.998   7.790  20.082  0.00  0.00    +0.000 C 
ENDBRANCH   1  18
TORSDOF 2
ENDMDL
MODEL 9
REMARK VINA RESULT:      -6.4      2.528      5.118
REMARK  Name = 
REMARK  3 active torsions:
REMARK  status: ('A' for Active; 'I' for Inactive)
REMARK    1  A    between atoms: C_1  and  C_2
REMARK    2  A    between atoms: C_2  and  N_3
REMARK    3  A    between atoms: C_9  and  C_10
REMARK                            x       y       z     vdW  Elec       q    Type
REMARK                         _______ _______ _______ _____ _____    ______ ____
ROOT
ATOM      1  N   UNL     1       2.285   3.295  19.443  0.00  0.00    +0.000 N 
ATOM      2  C   UNL     1       3.317   2.724  18.728  0.00  0.00    +0.000 A 
ATOM      3  N   UNL     1       4.165   3.363  17.989  0.00  0.00    +0.000 NA
ATOM      4  C   UNL     1       3.965   4.704  17.943  0.00  0.00    +0.000 A 
ATOM      5  S   UNL     1       4.991   5.693  17.013  0.00  0.00    +0.000 S 
ATOM      6  C   UNL     1       4.108   7.092  17.427  0.00  0.00    +0.000 A 
ATOM      7  C   UNL     1       3.039   6.840  18.276  0.00  0.00    +0.000 A 
ATOM      8  C   UNL     1       2.984   5.430  18.594  0.00  0.00    +0.000 A 
ATOM      9  C   UNL     1       2.094   4.682  19.474  0.00  0.00    +0.000 A 
ATOM     10  O   UNL     1       1.265   5.208  20.212  0.00  0.00    +0.000 OA
ENDROOT
BRANCH   7  11
ATOM     11  C   UNL     1       2.154   7.939  18.688  0.00  0.00    +0.000 A 
ATOM     12  C   UNL     1       1.642   8.843  17.750  0.00  0.00    +0.000 A 
ATOM     13  C   UNL     1       0.783   9.877  18.136  0.00  0.00    +0.000 A 
ATOM     14  C   UNL     1       0.460  10.051  19.477  0.00  0.00    +0.000 A 
ATOM     15  C   UNL     1       0.990   9.189  20.432  0.00  0.00    +0.000 A 
ATOM     16  C   UNL     1       1.822   8.135  20.040  0.00  0.00    +0.000 A 
ENDBRANCH   7  11
BRANCH   1  18
ATOM     17  C   UNL     1       1.931   2.511  21.749  0.00  0.00    +0.000 C 
ATOM     18  C   UNL     1       1.459   2.460  20.303  0.00  0.00    +0.000 C 
ENDBRANCH   1  18
TORSDOF 2
ENDMDL
