MODEL 1
REMARK VINA RESULT:      -6.2      0.000      0.000
REMARK  Name = 
REMARK  14 active torsions:
REMARK  status: ('A' for Active; 'I' for Inactive)
REMARK    1  A    between atoms: C_1  and  C_2
REMARK    2  A    between atoms: C_2  and  C_3
REMARK    3  A    between atoms: C_3  and  C_4
REMARK    4  A    between atoms: C_4  and  C_5
REMARK    5  A    between atoms: C_4  and  N_8
REMARK    6  A    between atoms: C_5  and  C_6
REMARK    7  A    between atoms: C_6  and  C_7
REMARK    8  A    between atoms: C_9  and  C_10
REMARK    9  A    between atoms: C_10  and  C_11
REMARK   10  A    between atoms: N_17  and  C_18
REMARK   11  A    between atoms: N_21  and  C_22
REMARK   12  A    between atoms: C_23  and  C_24
REMARK   13  A    between atoms: C_26  and  C_27
REMARK   14  A    between atoms: C_29  and  C_30
REMARK                            x       y       z     vdW  Elec       q    Type
REMARK                         _______ _______ _______ _____ _____    ______ ____
ROOT
ATOM      1  N   UNL     1      -5.471  12.098  19.353  0.00  0.00    +0.000 N 
ATOM      2  C   UNL     1      -4.592  11.961  18.270  0.00  0.00    +0.000 A 
ATOM      3  N   UNL     1      -3.341  12.135  18.643  0.00  0.00    +0.000 NA
ATOM      4  C   UNL     1      -3.388  12.392  19.968  0.00  0.00    +0.000 A 
ATOM      5  C   UNL     1      -4.672  12.399  20.454  0.00  0.00    +0.000 A 
ATOM      6  C   UNL     1      -4.915  12.696  21.837  0.00  0.00    +0.000 A 
ATOM      7  O   UNL     1      -6.021  12.924  22.314  0.00  0.00    +0.000 OA
ATOM      8  N   UNL     1      -3.759  12.764  22.626  0.00  0.00    +0.000 N 
ATOM      9  C   UNL     1      -3.915  12.971  24.055  0.00  0.00    +0.000 C 
ATOM     10  C   UNL     1      -2.445  12.848  22.133  0.00  0.00    +0.000 A 
ATOM     11  O   UNL     1      -1.503  13.117  22.886  0.00  0.00    +0.000 OA
ATOM     12  N   UNL     1      -2.289  12.637  20.769  0.00  0.00    +0.000 N 
ENDROOT
BRANCH  12  13
ATOM     13  C   UNL     1      -1.026  12.747  20.138  0.00  0.00    +0.000 A 
ATOM     14  C   UNL     1      -0.228  11.603  19.930  0.00  0.00    +0.000 A 
ATOM     15  C   UNL     1      -0.651  10.213  20.317  0.00  0.00    +0.000 C 
ATOM     16  C   UNL     1       1.036  11.750  19.327  0.00  0.00    +0.000 A 
ATOM     17  C   UNL     1       1.507  13.003  18.923  0.00  0.00    +0.000 A 
ATOM     18  C   UNL     1       2.847  13.151  18.267  0.00  0.00    +0.000 C 
ATOM     19  C   UNL     1       0.707  14.129  19.136  0.00  0.00    +0.000 A 
ATOM     20  C   UNL     1      -0.552  14.021  19.748  0.00  0.00    +0.000 A 
ATOM     21  C   UNL     1      -1.360  15.270  19.974  0.00  0.00    +0.000 C 
ENDBRANCH  12  13
BRANCH   2  22
ATOM     22  C   UNL     1      -4.947  11.681  16.841  0.00  0.00    +0.000 C 
ATOM     23  C   UNL     1      -3.843  10.930  16.113  0.00  0.00    +0.000 C 
ENDBRANCH   2  22
BRANCH   1  24
ATOM     24  C   UNL     1      -6.934  11.872  19.258  0.00  0.00    +0.000 C 
BRANCH  24  25
ATOM     25  C   UNL     1      -7.509  10.820  20.236  0.00  0.00    +0.000 C 
BRANCH  25  27
ATOM     26  C   UNL     1      -7.916   8.376  20.935  0.00  0.00    +0.000 C 
ATOM     27  C   UNL     1      -7.337   9.331  19.912  0.00  0.00    +0.000 C 
ENDBRANCH  25  27
ENDBRANCH  24  25
BRANCH  24  28
ATOM     28  C   UNL     1      -7.739  13.198  19.233  0.00  0.00    +0.000 C 
BRANCH  28  29
ATOM     29  C   UNL     1      -7.853  13.880  17.871  0.00  0.00    +0.000 C 
ATOM     30  C   UNL     1      -7.099  15.205  17.851  0.00  0.00    +0.000 C 
ENDBRANCH  28  29
ENDBRANCH  24  28
ENDBRANCH   1  24
TORSDOF 7
ENDMDL
MODEL 2
REMARK VINA RESULT:      -6.0      0.604      2.952
REMARK  Name = 
REMARK  14 active torsions:
REMARK  status: ('A' for Active; 'I' for Inactive)
REMARK    1  A    between atoms: C_1  and  C_2
REMARK    2  A    between atoms: C_2  and  C_3
REMARK    3  A    between atoms: C_3  and  C_4
REMARK    4  A    between atoms: C_4  and  C_5
REMARK    5  A    between atoms: C_4  and  N_8
REMARK    6  A    between atoms: C_5  and  C_6
REMARK    7  A    between atoms: C_6  and  C_7
REMARK    8  A    between atoms: C_9  and  C_10
REMARK    9  A    between atoms: C_10  and  C_11
REMARK   10  A    between atoms: N_17  and  C_18
REMARK   11  A    between atoms: N_21  and  C_22
REMARK   12  A    between atoms: C_23  and  C_24
REMARK   13  A    between atoms: C_26  and  C_27
REMARK   14  A    between atoms: C_29  and  C_30
REMARK                            x       y       z     vdW  Elec       q    Type
REMARK                         _______ _______ _______ _____ _____    ______ ____
ROOT
ATOM      1  N   UNL     1      -5.111  12.044  19.239  0.00  0.00    +0.000 N 
ATOM      2  C   UNL     1      -4.231  11.870  18.162  0.00  0.00    +0.000 A 
ATOM      3  N   UNL     1      -2.980  12.051  18.530  0.00  0.00    +0.000 NA
ATOM      4  C   UNL     1      -3.027  12.348  19.847  0.00  0.00    +0.000 A 
ATOM      5  C   UNL     1      -4.312  12.375  20.331  0.00  0.00    +0.000 A 
ATOM      6  C   UNL     1      -4.555  12.715  21.704  0.00  0.00    +0.000 A 
ATOM      7  O   UNL     1      -5.661  12.962  22.173  0.00  0.00    +0.000 OA
ATOM      8  N   UNL     1      -3.400  12.803  22.492  0.00  0.00    +0.000 N 
ATOM      9  C   UNL     1      -3.556  13.054  23.914  0.00  0.00    +0.000 C 
ATOM     10  C   UNL     1      -2.085  12.867  21.998  0.00  0.00    +0.000 A 
ATOM     11  O   UNL     1      -1.143  13.155  22.744  0.00  0.00    +0.000 OA
ATOM     12  N   UNL     1      -1.929  12.614  20.641  0.00  0.00    +0.000 N 
ENDROOT
BRANCH  12  13
ATOM     13  C   UNL     1      -0.665  12.699  20.009  0.00  0.00    +0.000 A 
ATOM     14  C   UNL     1      -0.185  13.938  19.531  0.00  0.00    +0.000 A 
ATOM     15  C   UNL     1      -0.937  15.232  19.679  0.00  0.00    +0.000 C 
ATOM     16  C   UNL     1       1.062  13.984  18.880  0.00  0.00    +0.000 A 
ATOM     17  C   UNL     1       1.835  12.832  18.709  0.00  0.00    +0.000 A 
ATOM     18  C   UNL     1       3.171  12.891  18.029  0.00  0.00    +0.000 C 
ATOM     19  C   UNL     1       1.349  11.612  19.185  0.00  0.00    +0.000 A 
ATOM     20  C   UNL     1       0.103  11.526  19.825  0.00  0.00    +0.000 A 
ATOM     21  C   UNL     1      -0.382  10.182  20.296  0.00  0.00    +0.000 C 
ENDBRANCH  12  13
BRANCH   2  22
ATOM     22  C   UNL     1      -4.585  11.547  16.742  0.00  0.00    +0.000 C 
ATOM     23  C   UNL     1      -3.597  10.580  16.110  0.00  0.00    +0.000 C 
ENDBRANCH   2  22
BRANCH   1  24
ATOM     24  C   UNL     1      -6.575  11.821  19.149  0.00  0.00    +0.000 C 
BRANCH  24  25
ATOM     25  C   UNL     1      -7.295  12.586  18.014  0.00  0.00    +0.000 C 
BRANCH  25  27
ATOM     26  C   UNL     1      -6.963  14.667  16.536  0.00  0.00    +0.000 C 
ATOM     27  C   UNL     1      -7.145  14.110  17.933  0.00  0.00    +0.000 C 
ENDBRANCH  25  27
ENDBRANCH  24  25
BRANCH  24  28
ATOM     28  C   UNL     1      -6.951  10.318  19.217  0.00  0.00    +0.000 C 
BRANCH  28  29
ATOM     29  C   UNL     1      -7.627   9.860  20.509  0.00  0.00    +0.000 C 
ATOM     30  C   UNL     1      -7.670   8.339  20.601  0.00  0.00    +0.000 C 
ENDBRANCH  28  29
ENDBRANCH  24  28
ENDBRANCH   1  24
TORSDOF 7
ENDMDL
MODEL 3
REMARK VINA RESULT:      -5.8      2.207      6.056
REMARK  Name = 
REMARK  14 active torsions:
REMARK  status: ('A' for Active; 'I' for Inactive)
REMARK    1  A    between atoms: C_1  and  C_2
REMARK    2  A    between atoms: C_2  and  C_3
REMARK    3  A    between atoms: C_3  and  C_4
REMARK    4  A    between atoms: C_4  and  C_5
REMARK    5  A    between atoms: C_4  and  N_8
REMARK    6  A    between atoms: C_5  and  C_6
REMARK    7  A    between atoms: C_6  and  C_7
REMARK    8  A    between atoms: C_9  and  C_10
REMARK    9  A    between atoms: C_10  and  C_11
REMARK   10  A    between atoms: N_17  and  C_18
REMARK   11  A    between atoms: N_21  and  C_22
REMARK   12  A    between atoms: C_23  and  C_24
REMARK   13  A    between atoms: C_26  and  C_27
REMARK   14  A    between atoms: C_29  and  C_30
REMARK                            x       y       z     vdW  Elec       q    Type
REMARK                         _______ _______ _______ _____ _____    ______ ____
ROOT
ATOM      1  N   UNL     1      -2.421  12.196  19.003  0.00  0.00    +0.000 N 
ATOM      2  C   UNL     1      -1.730  13.143  19.772  0.00  0.00    +0.000 A 
ATOM      3  N   UNL     1      -2.498  13.648  20.715  0.00  0.00    +0.000 NA
ATOM      4  C   UNL     1      -3.697  13.043  20.571  0.00  0.00    +0.000 A 
ATOM      5  C   UNL     1      -3.712  12.155  19.524  0.00  0.00    +0.000 A 
ATOM      6  C   UNL     1      -4.919  11.450  19.197  0.00  0.00    +0.000 A 
ATOM      7  O   UNL     1      -5.087  10.801  18.170  0.00  0.00    +0.000 OA
ATOM      8  N   UNL     1      -5.950  11.602  20.134  0.00  0.00    +0.000 N 
ATOM      9  C   UNL     1      -7.177  10.853  19.931  0.00  0.00    +0.000 C 
ATOM     10  C   UNL     1      -5.982  12.570  21.154  0.00  0.00    +0.000 A 
ATOM     11  O   UNL     1      -7.015  12.773  21.800  0.00  0.00    +0.000 OA
ATOM     12  N   UNL     1      -4.805  13.279  21.361  0.00  0.00    +0.000 N 
ENDROOT
BRANCH  12  13
ATOM     13  C   UNL     1      -4.721  14.317  22.320  0.00  0.00    +0.000 A 
ATOM     14  C   UNL     1      -5.058  15.643  21.972  0.00  0.00    +0.000 A 
ATOM     15  C   UNL     1      -5.551  16.044  20.609  0.00  0.00    +0.000 C 
ATOM     16  C   UNL     1      -4.935  16.657  22.940  0.00  0.00    +0.000 A 
ATOM     17  C   UNL     1      -4.497  16.374  24.237  0.00  0.00    +0.000 A 
ATOM     18  C   UNL     1      -4.383  17.457  25.268  0.00  0.00    +0.000 C 
ATOM     19  C   UNL     1      -4.164  15.058  24.568  0.00  0.00    +0.000 A 
ATOM     20  C   UNL     1      -4.261  14.024  23.624  0.00  0.00    +0.000 A 
ATOM     21  C   UNL     1      -3.867  12.630  24.030  0.00  0.00    +0.000 C 
ENDBRANCH  12  13
BRANCH   2  22
ATOM     22  C   UNL     1      -0.313  13.597  19.596  0.00  0.00    +0.000 C 
ATOM     23  C   UNL     1       0.590  13.110  20.719  0.00  0.00    +0.000 C 
ENDBRANCH   2  22
BRANCH   1  24
ATOM     24  C   UNL     1      -1.792  11.397  17.923  0.00  0.00    +0.000 C 
BRANCH  24  25
ATOM     25  C   UNL     1      -1.233  10.021  18.354  0.00  0.00    +0.000 C 
BRANCH  25  27
ATOM     26  C   UNL     1       1.207   9.391  17.826  0.00  0.00    +0.000 C 
ATOM     27  C   UNL     1       0.219   9.927  18.841  0.00  0.00    +0.000 C 
ENDBRANCH  25  27
ENDBRANCH  24  25
BRANCH  24  28
ATOM     28  C   UNL     1      -2.667  11.335  16.644  0.00  0.00    +0.000 C 
BRANCH  28  29
ATOM     29  C   UNL     1      -2.666   9.999  15.903  0.00  0.00    +0.000 C 
ATOM     30  C   UNL     1      -3.105  10.171  14.453  0.00  0.00    +0.000 C 
ENDBRANCH  28  29
ENDBRANCH  24  28
ENDBRANCH   1  24
TORSDOF 7
ENDMDL
MODEL 4
REMARK VINA RESULT:      -5.6      2.191      5.922
REMARK  Name = 
REMARK  14 active torsions:
REMARK  status: ('A' for Active; 'I' for Inactive)
REMARK    1  A    between atoms: C_1  and  C_2
REMARK    2  A    between atoms: C_2  and  C_3
REMARK    3  A    between atoms: C_3  and  C_4
REMARK    4  A    between atoms: C_4  and  C_5
REMARK    5  A    between atoms: C_4  and  N_8
REMARK    6  A    between atoms: C_5  and  C_6
REMARK    7  A    between atoms: C_6  and  C_7
REMARK    8  A    between atoms: C_9  and  C_10
REMARK    9  A    between atoms: C_10  and  C_11
REMARK   10  A    between atoms: N_17  and  C_18
REMARK   11  A    between atoms: N_21  and  C_22
REMARK   12  A    between atoms: C_23  and  C_24
REMARK   13  A    between atoms: C_26  and  C_27
REMARK   14  A    between atoms: C_29  and  C_30
REMARK                            x       y       z     vdW  Elec       q    Type
REMARK                         _______ _______ _______ _____ _____    ______ ____
ROOT
ATOM      1  N   UNL     1      -2.397  12.187  18.971  0.00  0.00    +0.000 N 
ATOM      2  C   UNL     1      -1.702  13.121  19.752  0.00  0.00    +0.000 A 
ATOM      3  N   UNL     1      -2.471  13.622  20.696  0.00  0.00    +0.000 NA
ATOM      4  C   UNL     1      -3.674  13.027  20.541  0.00  0.00    +0.000 A 
ATOM      5  C   UNL     1      -3.691  12.150  19.486  0.00  0.00    +0.000 A 
ATOM      6  C   UNL     1      -4.901  11.456  19.147  0.00  0.00    +0.000 A 
ATOM      7  O   UNL     1      -5.069  10.818  18.113  0.00  0.00    +0.000 OA
ATOM      8  N   UNL     1      -5.935  11.607  20.081  0.00  0.00    +0.000 N 
ATOM      9  C   UNL     1      -7.166  10.869  19.865  0.00  0.00    +0.000 C 
ATOM     10  C   UNL     1      -5.965  12.565  21.110  0.00  0.00    +0.000 A 
ATOM     11  O   UNL     1      -6.999  12.769  21.753  0.00  0.00    +0.000 OA
ATOM     12  N   UNL     1      -4.784  13.264  21.328  0.00  0.00    +0.000 N 
ENDROOT
BRANCH  12  13
ATOM     13  C   UNL     1      -4.697  14.292  22.298  0.00  0.00    +0.000 A 
ATOM     14  C   UNL     1      -4.278  14.003  23.613  0.00  0.00    +0.000 A 
ATOM     15  C   UNL     1      -3.870  12.630  24.072  0.00  0.00    +0.000 C 
ATOM     16  C   UNL     1      -4.231  15.042  24.561  0.00  0.00    +0.000 A 
ATOM     17  C   UNL     1      -4.580  16.353  24.221  0.00  0.00    +0.000 A 
ATOM     18  C   UNL     1      -4.513  17.459  25.231  0.00  0.00    +0.000 C 
ATOM     19  C   UNL     1      -4.996  16.626  22.915  0.00  0.00    +0.000 A 
ATOM     20  C   UNL     1      -5.069  15.611  21.948  0.00  0.00    +0.000 A 
ATOM     21  C   UNL     1      -5.546  15.959  20.564  0.00  0.00    +0.000 C 
ENDBRANCH  12  13
BRANCH   2  22
ATOM     22  C   UNL     1      -0.281  13.567  19.587  0.00  0.00    +0.000 C 
ATOM     23  C   UNL     1       0.567  13.242  20.806  0.00  0.00    +0.000 C 
ENDBRANCH   2  22
BRANCH   1  24
ATOM     24  C   UNL     1      -1.768  11.393  17.887  0.00  0.00    +0.000 C 
BRANCH  24  25
ATOM     25  C   UNL     1      -1.225  10.007  18.306  0.00  0.00    +0.000 C 
BRANCH  25  27
ATOM     26  C   UNL     1       1.293  10.473  18.575  0.00  0.00    +0.000 C 
ATOM     27  C   UNL     1       0.213   9.628  17.932  0.00  0.00    +0.000 C 
ENDBRANCH  25  27
ENDBRANCH  24  25
BRANCH  24  28
ATOM     28  C   UNL     1      -2.636  11.354  16.602  0.00  0.00    +0.000 C 
BRANCH  28  29
ATOM     29  C   UNL     1      -2.677  10.013  15.869  0.00  0.00    +0.000 C 
ATOM     30  C   UNL     1      -3.168  10.182  14.436  0.00  0.00    +0.000 C 
ENDBRANCH  28  29
ENDBRANCH  24  28
ENDBRANCH   1  24
TORSDOF 7
ENDMDL
MODEL 5
REMARK VINA RESULT:      -5.5      1.832      2.860
REMARK  Name = 
REMARK  14 active torsions:
REMARK  status: ('A' for Active; 'I' for Inactive)
REMARK    1  A    between atoms: C_1  and  C_2
REMARK    2  A    between atoms: C_2  and  C_3
REMARK    3  A    between atoms: C_3  and  C_4
REMARK    4  A    between atoms: C_4  and  C_5
REMARK    5  A    between atoms: C_4  and  N_8
REMARK    6  A    between atoms: C_5  and  C_6
REMARK    7  A    between atoms: C_6  and  C_7
REMARK    8  A    between atoms: C_9  and  C_10
REMARK    9  A    between atoms: C_10  and  C_11
REMARK   10  A    between atoms: N_17  and  C_18
REMARK   11  A    between atoms: N_21  and  C_22
REMARK   12  A    between atoms: C_23  and  C_24
REMARK   13  A    between atoms: C_26  and  C_27
REMARK   14  A    between atoms: C_29  and  C_30
REMARK                            x       y       z     vdW  Elec       q    Type
REMARK                         _______ _______ _______ _____ _____    ______ ____
ROOT
ATOM      1  N   UNL     1      -4.736  13.207  20.039  0.00  0.00    +0.000 N 
ATOM      2  C   UNL     1      -4.418  12.141  19.186  0.00  0.00    +0.000 A 
ATOM      3  N   UNL     1      -3.169  11.754  19.349  0.00  0.00    +0.000 NA
ATOM      4  C   UNL     1      -2.658  12.563  20.302  0.00  0.00    +0.000 A 
ATOM      5  C   UNL     1      -3.570  13.486  20.749  0.00  0.00    +0.000 A 
ATOM      6  C   UNL     1      -3.187  14.457  21.734  0.00  0.00    +0.000 A 
ATOM      7  O   UNL     1      -3.858  15.436  22.043  0.00  0.00    +0.000 OA
ATOM      8  N   UNL     1      -1.926  14.236  22.304  0.00  0.00    +0.000 N 
ATOM      9  C   UNL     1      -1.493  15.116  23.374  0.00  0.00    +0.000 C 
ATOM     10  C   UNL     1      -0.951  13.357  21.799  0.00  0.00    +0.000 A 
ATOM     11  O   UNL     1       0.205  13.378  22.235  0.00  0.00    +0.000 OA
ATOM     12  N   UNL     1      -1.365  12.504  20.784  0.00  0.00    +0.000 N 
ENDROOT
BRANCH  12  13
ATOM     13  C   UNL     1      -0.467  11.609  20.152  0.00  0.00    +0.000 A 
ATOM     14  C   UNL     1       0.112  11.934  18.908  0.00  0.00    +0.000 A 
ATOM     15  C   UNL     1      -0.141  13.230  18.188  0.00  0.00    +0.000 C 
ATOM     16  C   UNL     1       0.976  11.010  18.292  0.00  0.00    +0.000 A 
ATOM     17  C   UNL     1       1.278   9.785  18.894  0.00  0.00    +0.000 A 
ATOM     18  C   UNL     1       2.213   8.811  18.241  0.00  0.00    +0.000 C 
ATOM     19  C   UNL     1       0.697   9.473  20.126  0.00  0.00    +0.000 A 
ATOM     20  C   UNL     1      -0.181  10.365  20.762  0.00  0.00    +0.000 A 
ATOM     21  C   UNL     1      -0.797   9.967  22.075  0.00  0.00    +0.000 C 
ENDBRANCH  12  13
BRANCH   2  22
ATOM     22  C   UNL     1      -5.311  11.486  18.177  0.00  0.00    +0.000 C 
ATOM     23  C   UNL     1      -6.363  10.603  18.829  0.00  0.00    +0.000 C 
ENDBRANCH   2  22
BRANCH   1  24
ATOM     24  C   UNL     1      -6.092  13.799  20.143  0.00  0.00    +0.000 C 
BRANCH  24  25
ATOM     25  C   UNL     1      -6.734  13.748  21.550  0.00  0.00    +0.000 C 
BRANCH  25  27
ATOM     26  C   UNL     1      -7.395  12.291  23.566  0.00  0.00    +0.000 C 
ATOM     27  C   UNL     1      -7.303  12.419  22.060  0.00  0.00    +0.000 C 
ENDBRANCH  25  27
ENDBRANCH  24  25
BRANCH  24  28
ATOM     28  C   UNL     1      -6.184  15.194  19.473  0.00  0.00    +0.000 C 
BRANCH  28  29
ATOM     29  C   UNL     1      -6.929  15.243  18.139  0.00  0.00    +0.000 C 
ATOM     30  C   UNL     1      -7.912  14.084  18.014  0.00  0.00    +0.000 C 
ENDBRANCH  28  29
ENDBRANCH  24  28
ENDBRANCH   1  24
TORSDOF 7
ENDMDL
MODEL 6
REMARK VINA RESULT:      -5.4      1.802      3.053
REMARK  Name = 
REMARK  14 active torsions:
REMARK  status: ('A' for Active; 'I' for Inactive)
REMARK    1  A    between atoms: C_1  and  C_2
REMARK    2  A    between atoms: C_2  and  C_3
REMARK    3  A    between atoms: C_3  and  C_4
REMARK    4  A    between atoms: C_4  and  C_5
REMARK    5  A    between atoms: C_4  and  N_8
REMARK    6  A    between atoms: C_5  and  C_6
REMARK    7  A    between atoms: C_6  and  C_7
REMARK    8  A    between atoms: C_9  and  C_10
REMARK    9  A    between atoms: C_10  and  C_11
REMARK   10  A    between atoms: N_17  and  C_18
REMARK   11  A    between atoms: N_21  and  C_22
REMARK   12  A    between atoms: C_23  and  C_24
REMARK   13  A    between atoms: C_26  and  C_27
REMARK   14  A    between atoms: C_29  and  C_30
REMARK                            x       y       z     vdW  Elec       q    Type
REMARK                         _______ _______ _______ _____ _____    ______ ____
ROOT
ATOM      1  N   UNL     1      -4.298  12.430  19.503  0.00  0.00    +0.000 N 
ATOM      2  C   UNL     1      -3.900  11.443  18.591  0.00  0.00    +0.000 A 
ATOM      3  N   UNL     1      -2.658  11.062  18.809  0.00  0.00    +0.000 NA
ATOM      4  C   UNL     1      -2.230  11.796  19.859  0.00  0.00    +0.000 A 
ATOM      5  C   UNL     1      -3.190  12.665  20.315  0.00  0.00    +0.000 A 
ATOM      6  C   UNL     1      -2.896  13.555  21.402  0.00  0.00    +0.000 A 
ATOM      7  O   UNL     1      -3.606  14.495  21.741  0.00  0.00    +0.000 OA
ATOM      8  N   UNL     1      -1.672  13.305  22.039  0.00  0.00    +0.000 N 
ATOM      9  C   UNL     1      -1.333  14.099  23.206  0.00  0.00    +0.000 C 
ATOM     10  C   UNL     1      -0.648  12.486  21.533  0.00  0.00    +0.000 A 
ATOM     11  O   UNL     1       0.474  12.487  22.050  0.00  0.00    +0.000 OA
ATOM     12  N   UNL     1      -0.973  11.715  20.425  0.00  0.00    +0.000 N 
ENDROOT
BRANCH  12  13
ATOM     13  C   UNL     1      -0.016  10.888  19.787  0.00  0.00    +0.000 A 
ATOM     14  C   UNL     1       0.166   9.552  20.201  0.00  0.00    +0.000 A 
ATOM     15  C   UNL     1      -0.638   8.904  21.294  0.00  0.00    +0.000 C 
ATOM     16  C   UNL     1       1.146   8.766  19.566  0.00  0.00    +0.000 A 
ATOM     17  C   UNL     1       1.932   9.280  18.531  0.00  0.00    +0.000 A 
ATOM     18  C   UNL     1       2.963   8.433  17.848  0.00  0.00    +0.000 C 
ATOM     19  C   UNL     1       1.743  10.606  18.131  0.00  0.00    +0.000 A 
ATOM     20  C   UNL     1       0.786  11.423  18.752  0.00  0.00    +0.000 A 
ATOM     21  C   UNL     1       0.643  12.850  18.297  0.00  0.00    +0.000 C 
ENDBRANCH  12  13
BRANCH   2  22
ATOM     22  C   UNL     1      -4.707  10.862  17.470  0.00  0.00    +0.000 C 
ATOM     23  C   UNL     1      -4.043  11.068  16.118  0.00  0.00    +0.000 C 
ENDBRANCH   2  22
BRANCH   1  24
ATOM     24  C   UNL     1      -5.670  12.992  19.560  0.00  0.00    +0.000 C 
BRANCH  24  25
ATOM     25  C   UNL     1      -6.077  13.875  18.357  0.00  0.00    +0.000 C 
BRANCH  25  27
ATOM     26  C   UNL     1      -7.738  14.519  16.498  0.00  0.00    +0.000 C 
ATOM     27  C   UNL     1      -7.351  13.529  17.578  0.00  0.00    +0.000 C 
ENDBRANCH  25  27
ENDBRANCH  24  25
BRANCH  24  28
ATOM     28  C   UNL     1      -6.733  11.925  19.931  0.00  0.00    +0.000 C 
BRANCH  28  29
ATOM     29  C   UNL     1      -7.338  12.048  21.329  0.00  0.00    +0.000 C 
ATOM     30  C   UNL     1      -6.917  13.351  21.999  0.00  0.00    +0.000 C 
ENDBRANCH  28  29
ENDBRANCH  24  28
ENDBRANCH   1  24
TORSDOF 7
ENDMDL
MODEL 7
REMARK VINA RESULT:      -5.4      2.415      4.018
REMARK  Name = 
REMARK  14 active torsions:
REMARK  status: ('A' for Active; 'I' for Inactive)
REMARK    1  A    between atoms: C_1  and  C_2
REMARK    2  A    between atoms: C_2  and  C_3
REMARK    3  A    between atoms: C_3  and  C_4
REMARK    4  A    between atoms: C_4  and  C_5
REMARK    5  A    between atoms: C_4  and  N_8
REMARK    6  A    between atoms: C_5  and  C_6
REMARK    7  A    between atoms: C_6  and  C_7
REMARK    8  A    between atoms: C_9  and  C_10
REMARK    9  A    between atoms: C_10  and  C_11
REMARK   10  A    between atoms: N_17  and  C_18
REMARK   11  A    between atoms: N_21  and  C_22
REMARK   12  A    between atoms: C_23  and  C_24
REMARK   13  A    between atoms: C_26  and  C_27
REMARK   14  A    between atoms: C_29  and  C_30
REMARK                            x       y       z     vdW  Elec       q    Type
REMARK                         _______ _______ _______ _____ _____    ______ ____
ROOT
ATOM      1  N   UNL     1      -3.131  11.703  18.823  0.00  0.00    +0.000 N 
ATOM      2  C   UNL     1      -2.862  10.494  18.167  0.00  0.00    +0.000 A 
ATOM      3  N   UNL     1      -1.676  10.024  18.495  0.00  0.00    +0.000 NA
ATOM      4  C   UNL     1      -1.156  10.921  19.361  0.00  0.00    +0.000 A 
ATOM      5  C   UNL     1      -1.999  11.981  19.585  0.00  0.00    +0.000 A 
ATOM      6  C   UNL     1      -1.592  13.052  20.449  0.00  0.00    +0.000 A 
ATOM      7  O   UNL     1      -2.179  14.124  20.550  0.00  0.00    +0.000 OA
ATOM      8  N   UNL     1      -0.406  12.808  21.155  0.00  0.00    +0.000 N 
ATOM      9  C   UNL     1       0.035  13.799  22.120  0.00  0.00    +0.000 C 
ATOM     10  C   UNL     1       0.508  11.776  20.872  0.00  0.00    +0.000 A 
ATOM     11  O   UNL     1       1.624  11.759  21.402  0.00  0.00    +0.000 OA
ATOM     12  N   UNL     1       0.085  10.818  19.960  0.00  0.00    +0.000 N 
ENDROOT
BRANCH  12  13
ATOM     13  C   UNL     1       0.929   9.759  19.548  0.00  0.00    +0.000 A 
ATOM     14  C   UNL     1       0.976   8.554  20.281  0.00  0.00    +0.000 A 
ATOM     15  C   UNL     1       0.137   8.291  21.501  0.00  0.00    +0.000 C 
ATOM     16  C   UNL     1       1.848   7.532  19.863  0.00  0.00    +0.000 A 
ATOM     17  C   UNL     1       2.657   7.684  18.733  0.00  0.00    +0.000 A 
ATOM     18  C   UNL     1       3.573   6.584  18.283  0.00  0.00    +0.000 C 
ATOM     19  C   UNL     1       2.603   8.882  18.016  0.00  0.00    +0.000 A 
ATOM     20  C   UNL     1       1.756   9.929  18.413  0.00  0.00    +0.000 A 
ATOM     21  C   UNL     1       1.756  11.206  17.618  0.00  0.00    +0.000 C 
ENDBRANCH  12  13
BRANCH   2  22
ATOM     22  C   UNL     1      -3.740   9.775  17.188  0.00  0.00    +0.000 C 
ATOM     23  C   UNL     1      -3.124   9.718  15.799  0.00  0.00    +0.000 C 
ENDBRANCH   2  22
BRANCH   1  24
ATOM     24  C   UNL     1      -4.423  12.425  18.718  0.00  0.00    +0.000 C 
BRANCH  24  25
ATOM     25  C   UNL     1      -5.153  12.288  17.361  0.00  0.00    +0.000 C 
BRANCH  25  27
ATOM     26  C   UNL     1      -7.226  13.778  17.027  0.00  0.00    +0.000 C 
ATOM     27  C   UNL     1      -6.682  12.396  17.326  0.00  0.00    +0.000 C 
ENDBRANCH  25  27
ENDBRANCH  24  25
BRANCH  24  28
ATOM     28  C   UNL     1      -5.342  12.176  19.942  0.00  0.00    +0.000 C 
BRANCH  28  29
ATOM     29  C   UNL     1      -5.610  13.391  20.829  0.00  0.00    +0.000 C 
ATOM     30  C   UNL     1      -5.569  13.017  22.306  0.00  0.00    +0.000 C 
ENDBRANCH  28  29
ENDBRANCH  24  28
ENDBRANCH   1  24
TORSDOF 7
ENDMDL
MODEL 8
REMARK VINA RESULT:      -5.4      2.330      5.918
REMARK  Name = 
REMARK  14 active torsions:
REMARK  status: ('A' for Active; 'I' for Inactive)
REMARK    1  A    between atoms: C_1  and  C_2
REMARK    2  A    between atoms: C_2  and  C_3
REMARK    3  A    between atoms: C_3  and  C_4
REMARK    4  A    between atoms: C_4  and  C_5
REMARK    5  A    between atoms: C_4  and  N_8
REMARK    6  A    between atoms: C_5  and  C_6
REMARK    7  A    between atoms: C_6  and  C_7
REMARK    8  A    between atoms: C_9  and  C_10
REMARK    9  A    between atoms: C_10  and  C_11
REMARK   10  A    between atoms: N_17  and  C_18
REMARK   11  A    between atoms: N_21  and  C_22
REMARK   12  A    between atoms: C_23  and  C_24
REMARK   13  A    between atoms: C_26  and  C_27
REMARK   14  A    between atoms: C_29  and  C_30
REMARK                            x       y       z     vdW  Elec       q    Type
REMARK                         _______ _______ _______ _____ _____    ______ ____
ROOT
ATOM      1  N   UNL     1      -2.779  12.003  19.306  0.00  0.00    +0.000 N 
ATOM      2  C   UNL     1      -1.922  12.877  19.988  0.00  0.00    +0.000 A 
ATOM      3  N   UNL     1      -2.575  13.581  20.889  0.00  0.00    +0.000 NA
ATOM      4  C   UNL     1      -3.862  13.180  20.804  0.00  0.00    +0.000 A 
ATOM      5  C   UNL     1      -4.048  12.226  19.835  0.00  0.00    +0.000 A 
ATOM      6  C   UNL     1      -5.364  11.713  19.576  0.00  0.00    +0.000 A 
ATOM      7  O   UNL     1      -5.660  11.019  18.609  0.00  0.00    +0.000 OA
ATOM      8  N   UNL     1      -6.335  12.115  20.503  0.00  0.00    +0.000 N 
ATOM      9  C   UNL     1      -7.675  11.572  20.371  0.00  0.00    +0.000 C 
ATOM     10  C   UNL     1      -6.181  13.154  21.438  0.00  0.00    +0.000 A 
ATOM     11  O   UNL     1      -7.152  13.583  22.071  0.00  0.00    +0.000 OA
ATOM     12  N   UNL     1      -4.898  13.666  21.577  0.00  0.00    +0.000 N 
ENDROOT
BRANCH  12  13
ATOM     13  C   UNL     1      -4.620  14.750  22.445  0.00  0.00    +0.000 A 
ATOM     14  C   UNL     1      -4.248  14.517  23.786  0.00  0.00    +0.000 A 
ATOM     15  C   UNL     1      -4.087  13.143  24.376  0.00  0.00    +0.000 C 
ATOM     16  C   UNL     1      -4.007  15.617  24.631  0.00  0.00    +0.000 A 
ATOM     17  C   UNL     1      -4.119  16.930  24.164  0.00  0.00    +0.000 A 
ATOM     18  C   UNL     1      -3.846  18.097  25.065  0.00  0.00    +0.000 C 
ATOM     19  C   UNL     1      -4.490  17.148  22.835  0.00  0.00    +0.000 A 
ATOM     20  C   UNL     1      -4.753  16.075  21.968  0.00  0.00    +0.000 A 
ATOM     21  C   UNL     1      -5.172  16.369  20.554  0.00  0.00    +0.000 C 
ENDBRANCH  12  13
BRANCH   2  22
ATOM     22  C   UNL     1      -0.452  13.067  19.766  0.00  0.00    +0.000 C 
ATOM     23  C   UNL     1      -0.161  14.194  18.788  0.00  0.00    +0.000 C 
ENDBRANCH   2  22
BRANCH   1  24
ATOM     24  C   UNL     1      -2.317  11.022  18.293  0.00  0.00    +0.000 C 
BRANCH  24  25
ATOM     25  C   UNL     1      -2.042  11.600  16.885  0.00  0.00    +0.000 C 
BRANCH  25  27
ATOM     26  C   UNL     1      -3.026   9.594  15.606  0.00  0.00    +0.000 C 
ATOM     27  C   UNL     1      -2.876  11.098  15.700  0.00  0.00    +0.000 C 
ENDBRANCH  25  27
ENDBRANCH  24  25
BRANCH  24  28
ATOM     28  C   UNL     1      -1.175  10.117  18.823  0.00  0.00    +0.000 C 
BRANCH  28  29
ATOM     29  C   UNL     1      -0.013   9.880  17.858  0.00  0.00    +0.000 C 
ATOM     30  C   UNL     1       1.321   9.852  18.596  0.00  0.00    +0.000 C 
ENDBRANCH  28  29
ENDBRANCH  24  28
ENDBRANCH   1  24
TORSDOF 7
ENDMDL
MODEL 9
REMARK VINA RESULT:      -5.3      2.251      3.173
REMARK  Name = 
REMARK  14 active torsions:
REMARK  status: ('A' for Active; 'I' for Inactive)
REMARK    1  A    between atoms: C_1  and  C_2
REMARK    2  A    between atoms: C_2  and  C_3
REMARK    3  A    between atoms: C_3  and  C_4
REMARK    4  A    between atoms: C_4  and  C_5
REMARK    5  A    between atoms: C_4  and  N_8
REMARK    6  A    between atoms: C_5  and  C_6
REMARK    7  A    between atoms: C_6  and  C_7
REMARK    8  A    between atoms: C_9  and  C_10
REMARK    9  A    between atoms: C_10  and  C_11
REMARK   10  A    between atoms: N_17  and  C_18
REMARK   11  A    between atoms: N_21  and  C_22
REMARK   12  A    between atoms: C_23  and  C_24
REMARK   13  A    between atoms: C_26  and  C_27
REMARK   14  A    between atoms: C_29  and  C_30
REMARK                            x       y       z     vdW  Elec       q    Type
REMARK                         _______ _______ _______ _____ _____    ______ ____
ROOT
ATOM      1  N   UNL     1      -4.700  13.904  21.580  0.00  0.00    +0.000 N 
ATOM      2  C   UNL     1      -4.598  12.823  20.694  0.00  0.00    +0.000 A 
ATOM      3  N   UNL     1      -3.348  12.436  20.553  0.00  0.00    +0.000 NA
ATOM      4  C   UNL     1      -2.620  13.259  21.339  0.00  0.00    +0.000 A 
ATOM      5  C   UNL     1      -3.397  14.192  21.980  0.00  0.00    +0.000 A 
ATOM      6  C   UNL     1      -2.786  15.177  22.826  0.00  0.00    +0.000 A 
ATOM      7  O   UNL     1      -3.364  16.163  23.273  0.00  0.00    +0.000 OA
ATOM      8  N   UNL     1      -1.424  14.963  23.074  0.00  0.00    +0.000 N 
ATOM      9  C   UNL     1      -0.744  15.859  23.992  0.00  0.00    +0.000 C 
ATOM     10  C   UNL     1      -0.601  14.073  22.360  0.00  0.00    +0.000 A 
ATOM     11  O   UNL     1       0.627  14.098  22.501  0.00  0.00    +0.000 OA
ATOM     12  N   UNL     1      -1.248  13.204  21.491  0.00  0.00    +0.000 N 
ENDROOT
BRANCH  12  13
ATOM     13  C   UNL     1      -0.531  12.297  20.675  0.00  0.00    +0.000 A 
ATOM     14  C   UNL     1      -0.221  11.003  21.144  0.00  0.00    +0.000 A 
ATOM     15  C   UNL     1      -0.642  10.484  22.491  0.00  0.00    +0.000 C 
ATOM     16  C   UNL     1       0.520  10.135  20.319  0.00  0.00    +0.000 A 
ATOM     17  C   UNL     1       0.942  10.527  19.046  0.00  0.00    +0.000 A 
ATOM     18  C   UNL     1       1.717   9.592  18.165  0.00  0.00    +0.000 C 
ATOM     19  C   UNL     1       0.630  11.812  18.594  0.00  0.00    +0.000 A 
ATOM     20  C   UNL     1      -0.093  12.709  19.395  0.00  0.00    +0.000 A 
ATOM     21  C   UNL     1      -0.380  14.088  18.866  0.00  0.00    +0.000 C 
ENDBRANCH  12  13
BRANCH   2  22
ATOM     22  C   UNL     1      -5.710  12.154  19.944  0.00  0.00    +0.000 C 
ATOM     23  C   UNL     1      -6.098  12.921  18.690  0.00  0.00    +0.000 C 
ENDBRANCH   2  22
BRANCH   1  24
ATOM     24  C   UNL     1      -5.991  14.501  22.003  0.00  0.00    +0.000 C 
BRANCH  24  25
ATOM     25  C   UNL     1      -6.291  14.433  23.519  0.00  0.00    +0.000 C 
BRANCH  25  27
ATOM     26  C   UNL     1      -7.839  12.415  23.116  0.00  0.00    +0.000 C 
ATOM     27  C   UNL     1      -6.962  13.177  24.088  0.00  0.00    +0.000 C 
ENDBRANCH  25  27
ENDBRANCH  24  25
BRANCH  24  28
ATOM     28  C   UNL     1      -6.224  15.907  21.391  0.00  0.00    +0.000 C 
BRANCH  28  29
ATOM     29  C   UNL     1      -7.655  16.211  20.951  0.00  0.00    +0.000 C 
ATOM     30  C   UNL     1      -7.681  17.256  19.841  0.00  0.00    +0.000 C 
ENDBRANCH  28  29
ENDBRANCH  24  28
ENDBRANCH   1  24
TORSDOF 7
ENDMDL
