MODEL 1
REMARK VINA RESULT:      -8.8      0.000      0.000
REMARK  Name = 
REMARK  7 active torsions:
REMARK  status: ('A' for Active; 'I' for Inactive)
REMARK    1  A    between atoms: C_1  and  C_2
REMARK    2  A    between atoms: C_4  and  C_5
REMARK    3  A    between atoms: C_7  and  S_8
REMARK    4  A    between atoms: S_8  and  C_11
REMARK    5  A    between atoms: C_12  and  C_13
REMARK    6  A    between atoms: N_15  and  C_16
REMARK    7  A    between atoms: C_16  and  C_17
REMARK                            x       y       z     vdW  Elec       q    Type
REMARK                         _______ _______ _______ _____ _____    ______ ____
ROOT
ATOM      1  C   UNL     1      -0.509  10.613  19.650  0.00  0.00    +0.000 A 
ATOM      2  C   UNL     1       0.099   9.977  18.569  0.00  0.00    +0.000 A 
ATOM      3  N   UNL     1      -0.768  10.128  17.505  0.00  0.00    +0.000 N 
ATOM      4  C   UNL     1      -1.891  10.828  17.856  0.00  0.00    +0.000 A 
ATOM      5  C   UNL     1      -3.000  11.181  17.080  0.00  0.00    +0.000 A 
ATOM      6  C   UNL     1      -4.039  11.866  17.714  0.00  0.00    +0.000 A 
ATOM      7  C   UNL     1      -3.963  12.175  19.067  0.00  0.00    +0.000 A 
ATOM      8 CL   UNL     1      -5.270  13.007  19.820  0.00  0.00    +0.000 Cl
ATOM      9  C   UNL     1      -2.846  11.816  19.828  0.00  0.00    +0.000 A 
ATOM     10  C   UNL     1      -1.775  11.130  19.210  0.00  0.00    +0.000 A 
ATOM     11  H   UNL     1      -0.630   9.711  16.595  0.00  0.00    +0.000 HD
ENDROOT
BRANCH   2  12
ATOM     12  C   UNL     1       1.322   9.204  18.461  0.00  0.00    +0.000 C 
ATOM     13  O   UNL     1       2.169   9.400  17.603  0.00  0.00    +0.000 OA
ATOM     14  N   UNL     1       1.457   8.243  19.441  0.00  0.00    +0.000 N 
ATOM     15  H   UNL     1       0.676   8.019  20.039  0.00  0.00    +0.000 HD
BRANCH  14  16
ATOM     16  C   UNL     1       2.587   7.342  19.511  0.00  0.00    +0.000 C 
BRANCH  16  17
ATOM     17  C   UNL     1       2.134   5.911  19.350  0.00  0.00    +0.000 A 
ATOM     18  C   UNL     1       2.171   5.303  18.084  0.00  0.00    +0.000 A 
ATOM     19  C   UNL     1       1.748   3.982  17.921  0.00  0.00    +0.000 A 
ATOM     20  C   UNL     1       1.275   3.273  19.018  0.00  0.00    +0.000 A 
ATOM     21  F   UNL     1       0.871   2.005  18.860  0.00  0.00    +0.000 F 
ATOM     22  C   UNL     1       1.213   3.859  20.276  0.00  0.00    +0.000 A 
ATOM     23  C   UNL     1       1.640   5.179  20.443  0.00  0.00    +0.000 A 
ENDBRANCH  16  17
ENDBRANCH  14  16
ENDBRANCH   2  12
BRANCH   1  24
ATOM     24  S   UNL     1       0.016  10.754  21.296  0.00  0.00    +0.000 S 
ATOM     25  O   UNL     1       1.418  11.099  21.176  0.00  0.00    +0.000 OA
ATOM     26  O   UNL     1      -0.402   9.510  21.920  0.00  0.00    +0.000 OA
BRANCH  24  33
ATOM     27  C   UNL     1      -3.928  12.435  24.305  0.00  0.00    +0.000 C 
ATOM     28  C   UNL     1      -2.687  12.755  23.526  0.00  0.00    +0.000 A 
ATOM     29  C   UNL     1      -2.211  14.074  23.433  0.00  0.00    +0.000 A 
ATOM     30  C   UNL     1      -1.048  14.372  22.709  0.00  0.00    +0.000 A 
ATOM     31  C   UNL     1      -0.530  15.775  22.593  0.00  0.00    +0.000 C 
ATOM     32  C   UNL     1      -0.360  13.340  22.068  0.00  0.00    +0.000 A 
ATOM     33  C   UNL     1      -0.852  12.036  22.127  0.00  0.00    +0.000 A 
ATOM     34  C   UNL     1      -1.991  11.729  22.878  0.00  0.00    +0.000 A 
ENDBRANCH  24  33
ENDBRANCH   1  24
TORSDOF 5
ENDMDL
MODEL 2
REMARK VINA RESULT:      -8.6      0.528      1.004
REMARK  Name = 
REMARK  7 active torsions:
REMARK  status: ('A' for Active; 'I' for Inactive)
REMARK    1  A    between atoms: C_1  and  C_2
REMARK    2  A    between atoms: C_4  and  C_5
REMARK    3  A    between atoms: C_7  and  S_8
REMARK    4  A    between atoms: S_8  and  C_11
REMARK    5  A    between atoms: C_12  and  C_13
REMARK    6  A    between atoms: N_15  and  C_16
REMARK    7  A    between atoms: C_16  and  C_17
REMARK                            x       y       z     vdW  Elec       q    Type
REMARK                         _______ _______ _______ _____ _____    ______ ____
ROOT
ATOM      1  C   UNL     1      -0.613  10.748  19.321  0.00  0.00    +0.000 A 
ATOM      2  C   UNL     1      -0.004  10.006  18.309  0.00  0.00    +0.000 A 
ATOM      3  N   UNL     1      -0.915   9.962  17.272  0.00  0.00    +0.000 N 
ATOM      4  C   UNL     1      -2.066  10.639  17.574  0.00  0.00    +0.000 A 
ATOM      5  C   UNL     1      -3.221  10.820  16.806  0.00  0.00    +0.000 A 
ATOM      6  C   UNL     1      -4.278  11.526  17.386  0.00  0.00    +0.000 A 
ATOM      7  C   UNL     1      -4.175  12.019  18.682  0.00  0.00    +0.000 A 
ATOM      8 CL   UNL     1      -5.503  12.870  19.372  0.00  0.00    +0.000 Cl
ATOM      9  C   UNL     1      -3.012  11.830  19.435  0.00  0.00    +0.000 A 
ATOM     10  C   UNL     1      -1.923  11.128  18.870  0.00  0.00    +0.000 A 
ATOM     11  H   UNL     1      -0.783   9.434  16.421  0.00  0.00    +0.000 HD
ENDROOT
BRANCH   2  12
ATOM     12  C   UNL     1       1.259   9.296  18.253  0.00  0.00    +0.000 C 
ATOM     13  O   UNL     1       2.157   9.578  17.474  0.00  0.00    +0.000 OA
ATOM     14  N   UNL     1       1.369   8.288  19.189  0.00  0.00    +0.000 N 
ATOM     15  H   UNL     1       0.558   7.995  19.712  0.00  0.00    +0.000 HD
BRANCH  14  16
ATOM     16  C   UNL     1       2.533   7.436  19.296  0.00  0.00    +0.000 C 
BRANCH  16  17
ATOM     17  C   UNL     1       2.132   5.981  19.237  0.00  0.00    +0.000 A 
ATOM     18  C   UNL     1       1.733   5.316  20.408  0.00  0.00    +0.000 A 
ATOM     19  C   UNL     1       1.366   3.970  20.367  0.00  0.00    +0.000 A 
ATOM     20  C   UNL     1       1.411   3.283  19.161  0.00  0.00    +0.000 A 
ATOM     21  F   UNL     1       1.058   1.991  19.123  0.00  0.00    +0.000 F 
ATOM     22  C   UNL     1       1.820   3.915  17.993  0.00  0.00    +0.000 A 
ATOM     23  C   UNL     1       2.183   5.264  18.030  0.00  0.00    +0.000 A 
ENDBRANCH  16  17
ENDBRANCH  14  16
ENDBRANCH   2  12
BRANCH   1  24
ATOM     24  S   UNL     1      -0.042  11.140  20.909  0.00  0.00    +0.000 S 
ATOM     25  O   UNL     1       1.267  11.715  20.666  0.00  0.00    +0.000 OA
ATOM     26  O   UNL     1      -0.193   9.909  21.666  0.00  0.00    +0.000 OA
BRANCH  24  33
ATOM     27  C   UNL     1      -3.904  12.399  24.215  0.00  0.00    +0.000 C 
ATOM     28  C   UNL     1      -2.869  12.848  23.227  0.00  0.00    +0.000 A 
ATOM     29  C   UNL     1      -2.730  14.205  22.891  0.00  0.00    +0.000 A 
ATOM     30  C   UNL     1      -1.759  14.625  21.971  0.00  0.00    +0.000 A 
ATOM     31  C   UNL     1      -1.600  16.068  21.595  0.00  0.00    +0.000 C 
ATOM     32  C   UNL     1      -0.924  13.675  21.379  0.00  0.00    +0.000 A 
ATOM     33  C   UNL     1      -1.087  12.323  21.682  0.00  0.00    +0.000 A 
ATOM     34  C   UNL     1      -2.029  11.904  22.625  0.00  0.00    +0.000 A 
ENDBRANCH  24  33
ENDBRANCH   1  24
TORSDOF 5
ENDMDL
MODEL 3
REMARK VINA RESULT:      -8.6      0.283      1.548
REMARK  Name = 
REMARK  7 active torsions:
REMARK  status: ('A' for Active; 'I' for Inactive)
REMARK    1  A    between atoms: C_1  and  C_2
REMARK    2  A    between atoms: C_4  and  C_5
REMARK    3  A    between atoms: C_7  and  S_8
REMARK    4  A    between atoms: S_8  and  C_11
REMARK    5  A    between atoms: C_12  and  C_13
REMARK    6  A    between atoms: N_15  and  C_16
REMARK    7  A    between atoms: C_16  and  C_17
REMARK                            x       y       z     vdW  Elec       q    Type
REMARK                         _______ _______ _______ _____ _____    ______ ____
ROOT
ATOM      1  C   UNL     1      -0.434  10.776  19.512  0.00  0.00    +0.000 A 
ATOM      2  C   UNL     1       0.129  10.033  18.475  0.00  0.00    +0.000 A 
ATOM      3  N   UNL     1      -0.803  10.042  17.456  0.00  0.00    +0.000 N 
ATOM      4  C   UNL     1      -1.923  10.753  17.793  0.00  0.00    +0.000 A 
ATOM      5  C   UNL     1      -3.084  10.990  17.051  0.00  0.00    +0.000 A 
ATOM      6  C   UNL     1      -4.104  11.721  17.664  0.00  0.00    +0.000 A 
ATOM      7  C   UNL     1      -3.959  12.185  18.967  0.00  0.00    +0.000 A 
ATOM      8 CL   UNL     1      -5.243  13.070  19.698  0.00  0.00    +0.000 Cl
ATOM      9  C   UNL     1      -2.790  11.941  19.694  0.00  0.00    +0.000 A 
ATOM     10  C   UNL     1      -1.738  11.212  19.094  0.00  0.00    +0.000 A 
ATOM     11  H   UNL     1      -0.706   9.525  16.593  0.00  0.00    +0.000 HD
ENDROOT
BRANCH   2  12
ATOM     12  C   UNL     1       1.364   9.280  18.382  0.00  0.00    +0.000 C 
ATOM     13  O   UNL     1       2.251   9.535  17.581  0.00  0.00    +0.000 OA
ATOM     14  N   UNL     1       1.463   8.262  19.308  0.00  0.00    +0.000 N 
ATOM     15  H   UNL     1       0.656   7.994  19.850  0.00  0.00    +0.000 HD
BRANCH  14  16
ATOM     16  C   UNL     1       2.599   7.368  19.379  0.00  0.00    +0.000 C 
BRANCH  16  17
ATOM     17  C   UNL     1       2.149   5.931  19.279  0.00  0.00    +0.000 A 
ATOM     18  C   UNL     1       2.184   5.270  18.040  0.00  0.00    +0.000 A 
ATOM     19  C   UNL     1       1.764   3.943  17.934  0.00  0.00    +0.000 A 
ATOM     20  C   UNL     1       1.297   3.279  19.060  0.00  0.00    +0.000 A 
ATOM     21  F   UNL     1       0.896   2.005  18.957  0.00  0.00    +0.000 F 
ATOM     22  C   UNL     1       1.236   3.917  20.293  0.00  0.00    +0.000 A 
ATOM     23  C   UNL     1       1.660   5.244  20.404  0.00  0.00    +0.000 A 
ENDBRANCH  16  17
ENDBRANCH  14  16
ENDBRANCH   2  12
BRANCH   1  24
ATOM     24  S   UNL     1       0.181  11.118  21.096  0.00  0.00    +0.000 S 
ATOM     25  O   UNL     1       1.497  11.668  20.838  0.00  0.00    +0.000 OA
ATOM     26  O   UNL     1       0.017   9.873  21.827  0.00  0.00    +0.000 OA
BRANCH  24  33
ATOM     27  C   UNL     1      -1.037  16.072  22.284  0.00  0.00    +0.000 C 
ATOM     28  C   UNL     1      -1.341  14.610  22.426  0.00  0.00    +0.000 A 
ATOM     29  C   UNL     1      -2.408  14.168  23.226  0.00  0.00    +0.000 A 
ATOM     30  C   UNL     1      -2.696  12.802  23.355  0.00  0.00    +0.000 A 
ATOM     31  C   UNL     1      -3.827  12.312  24.210  0.00  0.00    +0.000 C 
ATOM     32  C   UNL     1      -1.903  11.872  22.682  0.00  0.00    +0.000 A 
ATOM     33  C   UNL     1      -0.819  12.306  21.919  0.00  0.00    +0.000 A 
ATOM     34  C   UNL     1      -0.551  13.668  21.758  0.00  0.00    +0.000 A 
ENDBRANCH  24  33
ENDBRANCH   1  24
TORSDOF 5
ENDMDL
MODEL 4
REMARK VINA RESULT:      -8.4      2.083      2.803
REMARK  Name = 
REMARK  7 active torsions:
REMARK  status: ('A' for Active; 'I' for Inactive)
REMARK    1  A    between atoms: C_1  and  C_2
REMARK    2  A    between atoms: C_4  and  C_5
REMARK    3  A    between atoms: C_7  and  S_8
REMARK    4  A    between atoms: S_8  and  C_11
REMARK    5  A    between atoms: C_12  and  C_13
REMARK    6  A    between atoms: N_15  and  C_16
REMARK    7  A    between atoms: C_16  and  C_17
REMARK                            x       y       z     vdW  Elec       q    Type
REMARK                         _______ _______ _______ _____ _____    ______ ____
ROOT
ATOM      1  C   UNL     1      -0.594  10.981  19.012  0.00  0.00    +0.000 A 
ATOM      2  C   UNL     1      -0.033  10.046  18.144  0.00  0.00    +0.000 A 
ATOM      3  N   UNL     1      -1.033   9.709  17.253  0.00  0.00    +0.000 N 
ATOM      4  C   UNL     1      -2.196  10.383  17.511  0.00  0.00    +0.000 A 
ATOM      5  C   UNL     1      -3.429  10.319  16.854  0.00  0.00    +0.000 A 
ATOM      6  C   UNL     1      -4.474  11.094  17.363  0.00  0.00    +0.000 A 
ATOM      7  C   UNL     1      -4.283  11.891  18.486  0.00  0.00    +0.000 A 
ATOM      8 CL   UNL     1      -5.597  12.821  19.097  0.00  0.00    +0.000 Cl
ATOM      9  C   UNL     1      -3.043  11.945  19.130  0.00  0.00    +0.000 A 
ATOM     10  C   UNL     1      -1.965  11.179  18.631  0.00  0.00    +0.000 A 
ATOM     11  H   UNL     1      -0.945   8.997  16.542  0.00  0.00    +0.000 HD
ENDROOT
BRANCH   2  12
ATOM     12  C   UNL     1       1.267   9.403  18.119  0.00  0.00    +0.000 C 
ATOM     13  O   UNL     1       2.201   9.797  17.437  0.00  0.00    +0.000 OA
ATOM     14  N   UNL     1       1.364   8.318  18.966  0.00  0.00    +0.000 N 
ATOM     15  H   UNL     1       0.535   7.941  19.399  0.00  0.00    +0.000 HD
BRANCH  14  16
ATOM     16  C   UNL     1       2.562   7.515  19.084  0.00  0.00    +0.000 C 
BRANCH  16  17
ATOM     17  C   UNL     1       2.207   6.053  19.216  0.00  0.00    +0.000 A 
ATOM     18  C   UNL     1       2.206   5.226  18.081  0.00  0.00    +0.000 A 
ATOM     19  C   UNL     1       1.874   3.875  18.191  0.00  0.00    +0.000 A 
ATOM     20  C   UNL     1       1.529   3.351  19.430  0.00  0.00    +0.000 A 
ATOM     21  F   UNL     1       1.212   2.053  19.533  0.00  0.00    +0.000 F 
ATOM     22  C   UNL     1       1.506   4.153  20.564  0.00  0.00    +0.000 A 
ATOM     23  C   UNL     1       1.843   5.506  20.459  0.00  0.00    +0.000 A 
ENDBRANCH  16  17
ENDBRANCH  14  16
ENDBRANCH   2  12
BRANCH   1  24
ATOM     24  S   UNL     1       0.096  11.773  20.390  0.00  0.00    +0.000 S 
ATOM     25  O   UNL     1       1.142  10.864  20.815  0.00  0.00    +0.000 OA
ATOM     26  O   UNL     1      -1.039  12.068  21.248  0.00  0.00    +0.000 OA
BRANCH  24  33
ATOM     27  C   UNL     1      -0.332  16.600  18.401  0.00  0.00    +0.000 C 
ATOM     28  C   UNL     1       0.534  15.545  19.025  0.00  0.00    +0.000 A 
ATOM     29  C   UNL     1       1.903  15.770  19.244  0.00  0.00    +0.000 A 
ATOM     30  C   UNL     1       2.711  14.786  19.831  0.00  0.00    +0.000 A 
ATOM     31  C   UNL     1       4.175  15.005  20.067  0.00  0.00    +0.000 C 
ATOM     32  C   UNL     1       2.141  13.565  20.196  0.00  0.00    +0.000 A 
ATOM     33  C   UNL     1       0.790  13.325  19.943  0.00  0.00    +0.000 A 
ATOM     34  C   UNL     1      -0.026  14.316  19.392  0.00  0.00    +0.000 A 
ENDBRANCH  24  33
ENDBRANCH   1  24
TORSDOF 5
ENDMDL
MODEL 5
REMARK VINA RESULT:      -8.4      4.157      8.165
REMARK  Name = 
REMARK  7 active torsions:
REMARK  status: ('A' for Active; 'I' for Inactive)
REMARK    1  A    between atoms: C_1  and  C_2
REMARK    2  A    between atoms: C_4  and  C_5
REMARK    3  A    between atoms: C_7  and  S_8
REMARK    4  A    between atoms: S_8  and  C_11
REMARK    5  A    between atoms: C_12  and  C_13
REMARK    6  A    between atoms: N_15  and  C_16
REMARK    7  A    between atoms: C_16  and  C_17
REMARK                            x       y       z     vdW  Elec       q    Type
REMARK                         _______ _______ _______ _____ _____    ______ ____
ROOT
ATOM      1  C   UNL     1      -0.511  11.477  20.729  0.00  0.00    +0.000 A 
ATOM      2  C   UNL     1      -0.782  11.436  22.096  0.00  0.00    +0.000 A 
ATOM      3  N   UNL     1      -0.168  10.293  22.569  0.00  0.00    +0.000 N 
ATOM      4  C   UNL     1       0.479   9.611  21.573  0.00  0.00    +0.000 A 
ATOM      5  C   UNL     1       1.204   8.417  21.637  0.00  0.00    +0.000 A 
ATOM      6  C   UNL     1       1.728   7.915  20.443  0.00  0.00    +0.000 A 
ATOM      7  C   UNL     1       1.523   8.584  19.243  0.00  0.00    +0.000 A 
ATOM      8 CL   UNL     1       2.168   7.929  17.787  0.00  0.00    +0.000 Cl
ATOM      9  C   UNL     1       0.797   9.779  19.197  0.00  0.00    +0.000 A 
ATOM     10  C   UNL     1       0.264  10.315  20.392  0.00  0.00    +0.000 A 
ATOM     11  H   UNL     1      -0.245   9.957  23.519  0.00  0.00    +0.000 HD
ENDROOT
BRANCH   2  12
ATOM     12  C   UNL     1      -1.593  12.282  22.950  0.00  0.00    +0.000 C 
ATOM     13  O   UNL     1      -1.156  13.251  23.551  0.00  0.00    +0.000 OA
ATOM     14  N   UNL     1      -2.921  11.909  22.996  0.00  0.00    +0.000 N 
ATOM     15  H   UNL     1      -3.211  11.026  22.605  0.00  0.00    +0.000 HD
BRANCH  14  16
ATOM     16  C   UNL     1      -3.906  12.597  23.803  0.00  0.00    +0.000 C 
BRANCH  16  17
ATOM     17  C   UNL     1      -4.966  13.221  22.928  0.00  0.00    +0.000 A 
ATOM     18  C   UNL     1      -4.621  14.247  22.033  0.00  0.00    +0.000 A 
ATOM     19  C   UNL     1      -5.595  14.836  21.223  0.00  0.00    +0.000 A 
ATOM     20  C   UNL     1      -6.914  14.411  21.316  0.00  0.00    +0.000 A 
ATOM     21  F   UNL     1      -7.846  14.976  20.538  0.00  0.00    +0.000 F 
ATOM     22  C   UNL     1      -7.281  13.410  22.207  0.00  0.00    +0.000 A 
ATOM     23  C   UNL     1      -6.309  12.815  23.015  0.00  0.00    +0.000 A 
ENDBRANCH  16  17
ENDBRANCH  14  16
ENDBRANCH   2  12
BRANCH   1  24
ATOM     24  S   UNL     1      -1.024  12.615  19.528  0.00  0.00    +0.000 S 
ATOM     25  O   UNL     1       0.143  12.764  18.681  0.00  0.00    +0.000 OA
ATOM     26  O   UNL     1      -1.548  13.737  20.288  0.00  0.00    +0.000 OA
BRANCH  24  33
ATOM     27  C   UNL     1      -2.968  10.285  15.258  0.00  0.00    +0.000 C 
ATOM     28  C   UNL     1      -3.213  10.897  16.606  0.00  0.00    +0.000 A 
ATOM     29  C   UNL     1      -4.512  10.990  17.132  0.00  0.00    +0.000 A 
ATOM     30  C   UNL     1      -4.741  11.557  18.394  0.00  0.00    +0.000 A 
ATOM     31  C   UNL     1      -6.121  11.672  18.968  0.00  0.00    +0.000 C 
ATOM     32  C   UNL     1      -3.658  12.040  19.131  0.00  0.00    +0.000 A 
ATOM     33  C   UNL     1      -2.372  11.983  18.593  0.00  0.00    +0.000 A 
ATOM     34  C   UNL     1      -2.135  11.386  17.352  0.00  0.00    +0.000 A 
ENDBRANCH  24  33
ENDBRANCH   1  24
TORSDOF 5
ENDMDL
MODEL 6
REMARK VINA RESULT:      -8.4      2.106      3.066
REMARK  Name = 
REMARK  7 active torsions:
REMARK  status: ('A' for Active; 'I' for Inactive)
REMARK    1  A    between atoms: C_1  and  C_2
REMARK    2  A    between atoms: C_4  and  C_5
REMARK    3  A    between atoms: C_7  and  S_8
REMARK    4  A    between atoms: S_8  and  C_11
REMARK    5  A    between atoms: C_12  and  C_13
REMARK    6  A    between atoms: N_15  and  C_16
REMARK    7  A    between atoms: C_16  and  C_17
REMARK                            x       y       z     vdW  Elec       q    Type
REMARK                         _______ _______ _______ _____ _____    ______ ____
ROOT
ATOM      1  C   UNL     1      -0.621  10.952  18.980  0.00  0.00    +0.000 A 
ATOM      2  C   UNL     1      -0.059   9.992  18.140  0.00  0.00    +0.000 A 
ATOM      3  N   UNL     1      -1.050   9.649  17.241  0.00  0.00    +0.000 N 
ATOM      4  C   UNL     1      -2.207  10.344  17.468  0.00  0.00    +0.000 A 
ATOM      5  C   UNL     1      -3.431  10.282  16.792  0.00  0.00    +0.000 A 
ATOM      6  C   UNL     1      -4.473  11.081  17.270  0.00  0.00    +0.000 A 
ATOM      7  C   UNL     1      -4.289  11.898  18.379  0.00  0.00    +0.000 A 
ATOM      8 CL   UNL     1      -5.600  12.857  18.951  0.00  0.00    +0.000 Cl
ATOM      9  C   UNL     1      -3.058  11.950  19.041  0.00  0.00    +0.000 A 
ATOM     10  C   UNL     1      -1.983  11.159  18.574  0.00  0.00    +0.000 A 
ATOM     11  H   UNL     1      -0.961   8.922  16.546  0.00  0.00    +0.000 HD
ENDROOT
BRANCH   2  12
ATOM     12  C   UNL     1       1.232   9.332  18.148  0.00  0.00    +0.000 C 
ATOM     13  O   UNL     1       2.152   9.641  17.406  0.00  0.00    +0.000 OA
ATOM     14  N   UNL     1       1.340   8.338  19.099  0.00  0.00    +0.000 N 
ATOM     15  H   UNL     1       0.519   8.019  19.590  0.00  0.00    +0.000 HD
BRANCH  14  16
ATOM     16  C   UNL     1       2.531   7.534  19.268  0.00  0.00    +0.000 C 
BRANCH  16  17
ATOM     17  C   UNL     1       2.183   6.065  19.268  0.00  0.00    +0.000 A 
ATOM     18  C   UNL     1       1.841   5.426  20.471  0.00  0.00    +0.000 A 
ATOM     19  C   UNL     1       1.524   4.066  20.484  0.00  0.00    +0.000 A 
ATOM     20  C   UNL     1       1.561   3.341  19.300  0.00  0.00    +0.000 A 
ATOM     21  F   UNL     1       1.255   2.037  19.314  0.00  0.00    +0.000 F 
ATOM     22  C   UNL     1       1.913   3.948  18.101  0.00  0.00    +0.000 A 
ATOM     23  C   UNL     1       2.227   5.310  18.083  0.00  0.00    +0.000 A 
ENDBRANCH  16  17
ENDBRANCH  14  16
ENDBRANCH   2  12
BRANCH   1  24
ATOM     24  S   UNL     1       0.060  11.763  20.352  0.00  0.00    +0.000 S 
ATOM     25  O   UNL     1       1.091  10.853  20.808  0.00  0.00    +0.000 OA
ATOM     26  O   UNL     1      -1.084  12.084  21.190  0.00  0.00    +0.000 OA
BRANCH  24  33
ATOM     27  C   UNL     1       4.193  14.931  19.788  0.00  0.00    +0.000 C 
ATOM     28  C   UNL     1       2.716  14.716  19.639  0.00  0.00    +0.000 A 
ATOM     29  C   UNL     1       1.883  15.734  19.146  0.00  0.00    +0.000 A 
ATOM     30  C   UNL     1       0.503  15.531  19.001  0.00  0.00    +0.000 A 
ATOM     31  C   UNL     1      -0.402  16.609  18.483  0.00  0.00    +0.000 C 
ATOM     32  C   UNL     1      -0.046  14.299  19.360  0.00  0.00    +0.000 A 
ATOM     33  C   UNL     1       0.773  13.300  19.886  0.00  0.00    +0.000 A 
ATOM     34  C   UNL     1       2.154  13.485  19.998  0.00  0.00    +0.000 A 
ENDBRANCH  24  33
ENDBRANCH   1  24
TORSDOF 5
ENDMDL
MODEL 7
REMARK VINA RESULT:      -8.3      0.878      2.010
REMARK  Name = 
REMARK  7 active torsions:
REMARK  status: ('A' for Active; 'I' for Inactive)
REMARK    1  A    between atoms: C_1  and  C_2
REMARK    2  A    between atoms: C_4  and  C_5
REMARK    3  A    between atoms: C_7  and  S_8
REMARK    4  A    between atoms: S_8  and  C_11
REMARK    5  A    between atoms: C_12  and  C_13
REMARK    6  A    between atoms: N_15  and  C_16
REMARK    7  A    between atoms: C_16  and  C_17
REMARK                            x       y       z     vdW  Elec       q    Type
REMARK                         _______ _______ _______ _____ _____    ______ ____
ROOT
ATOM      1  C   UNL     1      -0.478  10.706  19.445  0.00  0.00    +0.000 A 
ATOM      2  C   UNL     1       0.089   9.975  18.402  0.00  0.00    +0.000 A 
ATOM      3  N   UNL     1      -0.836   9.998  17.378  0.00  0.00    +0.000 N 
ATOM      4  C   UNL     1      -1.957  10.707  17.717  0.00  0.00    +0.000 A 
ATOM      5  C   UNL     1      -3.114  10.955  16.971  0.00  0.00    +0.000 A 
ATOM      6  C   UNL     1      -4.136  11.681  17.588  0.00  0.00    +0.000 A 
ATOM      7  C   UNL     1      -3.998  12.128  18.897  0.00  0.00    +0.000 A 
ATOM      8 CL   UNL     1      -5.284  13.006  19.632  0.00  0.00    +0.000 Cl
ATOM      9  C   UNL     1      -2.833  11.873  19.627  0.00  0.00    +0.000 A 
ATOM     10  C   UNL     1      -1.779  11.149  19.025  0.00  0.00    +0.000 A 
ATOM     11  H   UNL     1      -0.735   9.492  16.509  0.00  0.00    +0.000 HD
ENDROOT
BRANCH   2  12
ATOM     12  C   UNL     1       1.324   9.221  18.306  0.00  0.00    +0.000 C 
ATOM     13  O   UNL     1       2.187   9.444  17.470  0.00  0.00    +0.000 OA
ATOM     14  N   UNL     1       1.451   8.244  19.272  0.00  0.00    +0.000 N 
ATOM     15  H   UNL     1       0.661   7.998  19.848  0.00  0.00    +0.000 HD
BRANCH  14  16
ATOM     16  C   UNL     1       2.592   7.356  19.349  0.00  0.00    +0.000 C 
BRANCH  16  17
ATOM     17  C   UNL     1       2.151   5.916  19.241  0.00  0.00    +0.000 A 
ATOM     18  C   UNL     1       1.719   5.228  20.386  0.00  0.00    +0.000 A 
ATOM     19  C   UNL     1       1.315   3.894  20.299  0.00  0.00    +0.000 A 
ATOM     20  C   UNL     1       1.356   3.243  19.073  0.00  0.00    +0.000 A 
ATOM     21  F   UNL     1       0.967   1.964  18.991  0.00  0.00    +0.000 F 
ATOM     22  C   UNL     1       1.797   3.899  17.929  0.00  0.00    +0.000 A 
ATOM     23  C   UNL     1       2.198   5.235  18.012  0.00  0.00    +0.000 A 
ENDBRANCH  16  17
ENDBRANCH  14  16
ENDBRANCH   2  12
BRANCH   1  24
ATOM     24  S   UNL     1       0.128  11.027  21.036  0.00  0.00    +0.000 S 
ATOM     25  O   UNL     1       1.535  10.694  20.936  0.00  0.00    +0.000 OA
ATOM     26  O   UNL     1      -0.758  10.289  21.920  0.00  0.00    +0.000 OA
BRANCH  24  33
ATOM     27  C   UNL     1       0.816  16.119  20.020  0.00  0.00    +0.000 C 
ATOM     28  C   UNL     1       0.275  15.058  20.931  0.00  0.00    +0.000 A 
ATOM     29  C   UNL     1      -0.372  15.397  22.131  0.00  0.00    +0.000 A 
ATOM     30  C   UNL     1      -0.883  14.406  22.981  0.00  0.00    +0.000 A 
ATOM     31  C   UNL     1      -1.571  14.748  24.269  0.00  0.00    +0.000 C 
ATOM     32  C   UNL     1      -0.739  13.063  22.626  0.00  0.00    +0.000 A 
ATOM     33  C   UNL     1      -0.062  12.723  21.455  0.00  0.00    +0.000 A 
ATOM     34  C   UNL     1       0.416  13.709  20.587  0.00  0.00    +0.000 A 
ENDBRANCH  24  33
ENDBRANCH   1  24
TORSDOF 5
ENDMDL
MODEL 8
REMARK VINA RESULT:      -8.3      0.831      1.133
REMARK  Name = 
REMARK  7 active torsions:
REMARK  status: ('A' for Active; 'I' for Inactive)
REMARK    1  A    between atoms: C_1  and  C_2
REMARK    2  A    between atoms: C_4  and  C_5
REMARK    3  A    between atoms: C_7  and  S_8
REMARK    4  A    between atoms: S_8  and  C_11
REMARK    5  A    between atoms: C_12  and  C_13
REMARK    6  A    between atoms: N_15  and  C_16
REMARK    7  A    between atoms: C_16  and  C_17
REMARK                            x       y       z     vdW  Elec       q    Type
REMARK                         _______ _______ _______ _____ _____    ______ ____
ROOT
ATOM      1  C   UNL     1      -0.493  10.751  19.534  0.00  0.00    +0.000 A 
ATOM      2  C   UNL     1       0.100  10.023  18.503  0.00  0.00    +0.000 A 
ATOM      3  N   UNL     1      -0.806  10.038  17.460  0.00  0.00    +0.000 N 
ATOM      4  C   UNL     1      -1.938  10.740  17.777  0.00  0.00    +0.000 A 
ATOM      5  C   UNL     1      -3.081  10.980  17.008  0.00  0.00    +0.000 A 
ATOM      6  C   UNL     1      -4.120  11.699  17.603  0.00  0.00    +0.000 A 
ATOM      7  C   UNL     1      -4.011  12.149  18.914  0.00  0.00    +0.000 A 
ATOM      8 CL   UNL     1      -5.317  13.019  19.623  0.00  0.00    +0.000 Cl
ATOM      9  C   UNL     1      -2.859  11.903  19.668  0.00  0.00    +0.000 A 
ATOM     10  C   UNL     1      -1.788  11.185  19.087  0.00  0.00    +0.000 A 
ATOM     11  H   UNL     1      -0.684   9.532  16.594  0.00  0.00    +0.000 HD
ENDROOT
BRANCH   2  12
ATOM     12  C   UNL     1       1.341   9.277  18.432  0.00  0.00    +0.000 C 
ATOM     13  O   UNL     1       2.235   9.528  17.638  0.00  0.00    +0.000 OA
ATOM     14  N   UNL     1       1.436   8.270  19.371  0.00  0.00    +0.000 N 
ATOM     15  H   UNL     1       0.625   8.003  19.908  0.00  0.00    +0.000 HD
BRANCH  14  16
ATOM     16  C   UNL     1       2.577   7.385  19.466  0.00  0.00    +0.000 C 
BRANCH  16  17
ATOM     17  C   UNL     1       2.142   5.945  19.335  0.00  0.00    +0.000 A 
ATOM     18  C   UNL     1       2.193   5.309  18.084  0.00  0.00    +0.000 A 
ATOM     19  C   UNL     1       1.788   3.980  17.949  0.00  0.00    +0.000 A 
ATOM     20  C   UNL     1       1.319   3.289  19.059  0.00  0.00    +0.000 A 
ATOM     21  F   UNL     1       0.932   2.014  18.928  0.00  0.00    +0.000 F 
ATOM     22  C   UNL     1       1.243   3.903  20.303  0.00  0.00    +0.000 A 
ATOM     23  C   UNL     1       1.652   5.232  20.442  0.00  0.00    +0.000 A 
ENDBRANCH  16  17
ENDBRANCH  14  16
ENDBRANCH   2  12
BRANCH   1  24
ATOM     24  S   UNL     1       0.080  11.078  21.136  0.00  0.00    +0.000 S 
ATOM     25  O   UNL     1       1.502  10.809  21.049  0.00  0.00    +0.000 OA
ATOM     26  O   UNL     1      -0.783  10.289  21.999  0.00  0.00    +0.000 OA
BRANCH  24  33
ATOM     27  C   UNL     1      -1.810  14.741  24.368  0.00  0.00    +0.000 C 
ATOM     28  C   UNL     1      -1.075  14.406  23.104  0.00  0.00    +0.000 A 
ATOM     29  C   UNL     1      -0.612  15.418  22.247  0.00  0.00    +0.000 A 
ATOM     30  C   UNL     1       0.080  15.105  21.068  0.00  0.00    +0.000 A 
ATOM     31  C   UNL     1       0.576  16.171  20.138  0.00  0.00    +0.000 C 
ATOM     32  C   UNL     1       0.302  13.765  20.744  0.00  0.00    +0.000 A 
ATOM     33  C   UNL     1      -0.191  12.758  21.573  0.00  0.00    +0.000 A 
ATOM     34  C   UNL     1      -0.849  13.066  22.767  0.00  0.00    +0.000 A 
ENDBRANCH  24  33
ENDBRANCH   1  24
TORSDOF 5
ENDMDL
MODEL 9
REMARK VINA RESULT:      -8.3      4.307      8.317
REMARK  Name = 
REMARK  7 active torsions:
REMARK  status: ('A' for Active; 'I' for Inactive)
REMARK    1  A    between atoms: C_1  and  C_2
REMARK    2  A    between atoms: C_4  and  C_5
REMARK    3  A    between atoms: C_7  and  S_8
REMARK    4  A    between atoms: S_8  and  C_11
REMARK    5  A    between atoms: C_12  and  C_13
REMARK    6  A    between atoms: N_15  and  C_16
REMARK    7  A    between atoms: C_16  and  C_17
REMARK                            x       y       z     vdW  Elec       q    Type
REMARK                         _______ _______ _______ _____ _____    ______ ____
ROOT
ATOM      1  C   UNL     1      -0.854  11.679  20.867  0.00  0.00    +0.000 A 
ATOM      2  C   UNL     1      -1.072  11.643  22.243  0.00  0.00    +0.000 A 
ATOM      3  N   UNL     1      -0.381  10.542  22.708  0.00  0.00    +0.000 N 
ATOM      4  C   UNL     1       0.266   9.881  21.698  0.00  0.00    +0.000 A 
ATOM      5  C   UNL     1       1.057   8.729  21.750  0.00  0.00    +0.000 A 
ATOM      6  C   UNL     1       1.564   8.239  20.544  0.00  0.00    +0.000 A 
ATOM      7  C   UNL     1       1.280   8.879  19.343  0.00  0.00    +0.000 A 
ATOM      8 CL   UNL     1       1.908   8.238  17.874  0.00  0.00    +0.000 Cl
ATOM      9  C   UNL     1       0.489  10.032  19.309  0.00  0.00    +0.000 A 
ATOM     10  C   UNL     1      -0.029  10.556  20.516  0.00  0.00    +0.000 A 
ATOM     11  H   UNL     1      -0.406  10.216  23.664  0.00  0.00    +0.000 HD
ENDROOT
BRANCH   2  12
ATOM     12  C   UNL     1      -1.898  12.456  23.115  0.00  0.00    +0.000 C 
ATOM     13  O   UNL     1      -1.530  13.518  23.595  0.00  0.00    +0.000 OA
ATOM     14  N   UNL     1      -3.158  11.935  23.328  0.00  0.00    +0.000 N 
ATOM     15  H   UNL     1      -3.371  10.995  23.034  0.00  0.00    +0.000 HD
BRANCH  14  16
ATOM     16  C   UNL     1      -4.138  12.569  24.184  0.00  0.00    +0.000 C 
BRANCH  16  17
ATOM     17  C   UNL     1      -5.115  13.376  23.362  0.00  0.00    +0.000 A 
ATOM     18  C   UNL     1      -5.555  14.626  23.826  0.00  0.00    +0.000 A 
ATOM     19  C   UNL     1      -6.463  15.378  23.079  0.00  0.00    +0.000 A 
ATOM     20  C   UNL     1      -6.944  14.877  21.876  0.00  0.00    +0.000 A 
ATOM     21  F   UNL     1      -7.814  15.601  21.159  0.00  0.00    +0.000 F 
ATOM     22  C   UNL     1      -6.536  13.635  21.405  0.00  0.00    +0.000 A 
ATOM     23  C   UNL     1      -5.624  12.881  22.149  0.00  0.00    +0.000 A 
ENDBRANCH  16  17
ENDBRANCH  14  16
ENDBRANCH   2  12
BRANCH   1  24
ATOM     24  S   UNL     1      -1.470  12.771  19.671  0.00  0.00    +0.000 S 
ATOM     25  O   UNL     1      -0.296  13.128  18.900  0.00  0.00    +0.000 OA
ATOM     26  O   UNL     1      -2.203  13.769  20.431  0.00  0.00    +0.000 OA
BRANCH  24  33
ATOM     27  C   UNL     1      -6.340  11.111  18.688  0.00  0.00    +0.000 C 
ATOM     28  C   UNL     1      -4.916  11.240  18.234  0.00  0.00    +0.000 A 
ATOM     29  C   UNL     1      -4.502  10.717  16.998  0.00  0.00    +0.000 A 
ATOM     30  C   UNL     1      -3.172  10.842  16.571  0.00  0.00    +0.000 A 
ATOM     31  C   UNL     1      -2.709  10.284  15.259  0.00  0.00    +0.000 C 
ATOM     32  C   UNL     1      -2.250  11.491  17.394  0.00  0.00    +0.000 A 
ATOM     33  C   UNL     1      -2.651  11.976  18.640  0.00  0.00    +0.000 A 
ATOM     34  C   UNL     1      -3.983  11.886  19.052  0.00  0.00    +0.000 A 
ENDBRANCH  24  33
ENDBRANCH   1  24
TORSDOF 5
ENDMDL
