MODEL 1
REMARK VINA RESULT:      -7.3      0.000      0.000
REMARK  Name = 
REMARK  2 active torsions:
REMARK  status: ('A' for Active; 'I' for Inactive)
REMARK    1  A    between atoms: C_2  and  C_12
REMARK    2  A    between atoms: C_7  and  N_8
REMARK                            x       y       z     vdW  Elec       q    Type
REMARK                         _______ _______ _______ _____ _____    ______ ____
ROOT
ATOM      1  O   UNL     1       5.380   4.796  19.325  0.00  0.00    +0.000 OA
ATOM      2  C   UNL     1       4.557   4.110  18.724  0.00  0.00    +0.000 C 
ATOM      3  N   UNL     1       4.658   3.696  17.419  0.00  0.00    +0.000 N 
ATOM      4  C   UNL     1       5.686   4.099  16.611  0.00  0.00    +0.000 A 
ATOM      5  N   UNL     1       6.800   4.711  16.925  0.00  0.00    +0.000 NA
ATOM      6  C   UNL     1       7.502   5.006  15.771  0.00  0.00    +0.000 A 
ATOM      7  C   UNL     1       6.882   4.607  14.612  0.00  0.00    +0.000 A 
ATOM      8  S   UNL     1       5.436   3.776  14.949  0.00  0.00    +0.000 S 
ATOM      9  H   UNL     1       3.896   3.208  16.971  0.00  0.00    +0.000 HD
ENDROOT
BRANCH   2  10
ATOM     10  C   UNL     1       3.336   3.683  19.477  0.00  0.00    +0.000 A 
ATOM     11  C   UNL     1       3.572   2.927  20.643  0.00  0.00    +0.000 A 
ATOM     12  C   UNL     1       2.518   2.502  21.455  0.00  0.00    +0.000 A 
ATOM     13  C   UNL     1       1.210   2.830  21.118  0.00  0.00    +0.000 A 
ATOM     14  C   UNL     1       0.958   3.577  19.968  0.00  0.00    +0.000 A 
ATOM     15  C   UNL     1       2.011   4.008  19.148  0.00  0.00    +0.000 A 
ATOM     16 CL   UNL     1       1.560   4.965  17.779  0.00  0.00    +0.000 Cl
ENDBRANCH   2  10
BRANCH   7  17
ATOM     17  N   UNL     1       7.333   4.833  13.277  0.00  0.00    +0.000 N 
ATOM     18  O   UNL     1       6.901   4.061  12.412  0.00  0.00    +0.000 OA
ATOM     19  O   UNL     1       8.126   5.763  13.079  0.00  0.00    +0.000 OA
ENDBRANCH   7  17
TORSDOF 2
ENDMDL
MODEL 2
REMARK VINA RESULT:      -7.2      1.239      1.437
REMARK  Name = 
REMARK  2 active torsions:
REMARK  status: ('A' for Active; 'I' for Inactive)
REMARK    1  A    between atoms: C_2  and  C_12
REMARK    2  A    between atoms: C_7  and  N_8
REMARK                            x       y       z     vdW  Elec       q    Type
REMARK                         _______ _______ _______ _____ _____    ______ ____
ROOT
ATOM      1  O   UNL     1       5.589   4.886  19.090  0.00  0.00    +0.000 OA
ATOM      2  C   UNL     1       4.682   4.338  18.468  0.00  0.00    +0.000 C 
ATOM      3  N   UNL     1       4.718   3.983  17.142  0.00  0.00    +0.000 N 
ATOM      4  C   UNL     1       5.779   4.297  16.339  0.00  0.00    +0.000 A 
ATOM      5  N   UNL     1       6.963   4.751  16.665  0.00  0.00    +0.000 NA
ATOM      6  C   UNL     1       7.684   5.017  15.516  0.00  0.00    +0.000 A 
ATOM      7  C   UNL     1       7.008   4.758  14.349  0.00  0.00    +0.000 A 
ATOM      8  S   UNL     1       5.475   4.094  14.668  0.00  0.00    +0.000 S 
ATOM      9  H   UNL     1       3.896   3.615  16.683  0.00  0.00    +0.000 HD
ENDROOT
BRANCH   2  10
ATOM     10  C   UNL     1       3.424   4.026  19.219  0.00  0.00    +0.000 A 
ATOM     11  C   UNL     1       2.801   5.122  19.848  0.00  0.00    +0.000 A 
ATOM     12  C   UNL     1       1.601   4.969  20.546  0.00  0.00    +0.000 A 
ATOM     13  C   UNL     1       1.002   3.718  20.624  0.00  0.00    +0.000 A 
ATOM     14  C   UNL     1       1.604   2.621  20.008  0.00  0.00    +0.000 A 
ATOM     15  C   UNL     1       2.808   2.768  19.304  0.00  0.00    +0.000 A 
ATOM     16 CL   UNL     1       3.422   1.336  18.550  0.00  0.00    +0.000 Cl
ENDBRANCH   2  10
BRANCH   7  17
ATOM     17  N   UNL     1       7.471   4.995  13.020  0.00  0.00    +0.000 N 
ATOM     18  O   UNL     1       7.078   4.206  12.151  0.00  0.00    +0.000 OA
ATOM     19  O   UNL     1       8.234   5.951  12.830  0.00  0.00    +0.000 OA
ENDBRANCH   7  17
TORSDOF 2
ENDMDL
MODEL 3
REMARK VINA RESULT:      -7.1      1.399      1.907
REMARK  Name = 
REMARK  2 active torsions:
REMARK  status: ('A' for Active; 'I' for Inactive)
REMARK    1  A    between atoms: C_2  and  C_12
REMARK    2  A    between atoms: C_7  and  N_8
REMARK                            x       y       z     vdW  Elec       q    Type
REMARK                         _______ _______ _______ _____ _____    ______ ____
ROOT
ATOM      1  O   UNL     1       4.840   5.703  19.432  0.00  0.00    +0.000 OA
ATOM      2  C   UNL     1       4.370   4.648  19.014  0.00  0.00    +0.000 C 
ATOM      3  N   UNL     1       4.760   3.992  17.872  0.00  0.00    +0.000 N 
ATOM      4  C   UNL     1       5.686   4.521  17.016  0.00  0.00    +0.000 A 
ATOM      5  N   UNL     1       6.487   5.543  17.186  0.00  0.00    +0.000 NA
ATOM      6  C   UNL     1       7.186   5.776  16.016  0.00  0.00    +0.000 A 
ATOM      7  C   UNL     1       6.879   4.916  14.990  0.00  0.00    +0.000 A 
ATOM      8  S   UNL     1       5.762   3.738  15.497  0.00  0.00    +0.000 S 
ATOM      9  H   UNL     1       4.263   3.173  17.551  0.00  0.00    +0.000 HD
ENDROOT
BRANCH   2  10
ATOM     10  C   UNL     1       3.277   4.014  19.819  0.00  0.00    +0.000 A 
ATOM     11  C   UNL     1       2.044   4.697  19.816  0.00  0.00    +0.000 A 
ATOM     12  C   UNL     1       0.935   4.189  20.496  0.00  0.00    +0.000 A 
ATOM     13  C   UNL     1       1.039   2.987  21.186  0.00  0.00    +0.000 A 
ATOM     14  C   UNL     1       2.251   2.298  21.199  0.00  0.00    +0.000 A 
ATOM     15  C   UNL     1       3.369   2.801  20.518  0.00  0.00    +0.000 A 
ATOM     16 CL   UNL     1       4.795   1.823  20.579  0.00  0.00    +0.000 Cl
ENDBRANCH   2  10
BRANCH   7  17
ATOM     17  N   UNL     1       7.389   4.955  13.658  0.00  0.00    +0.000 N 
ATOM     18  O   UNL     1       8.300   5.763  13.440  0.00  0.00    +0.000 OA
ATOM     19  O   UNL     1       6.884   4.198  12.818  0.00  0.00    +0.000 OA
ENDBRANCH   7  17
TORSDOF 2
ENDMDL
MODEL 4
REMARK VINA RESULT:      -7.1      0.846      1.120
REMARK  Name = 
REMARK  2 active torsions:
REMARK  status: ('A' for Active; 'I' for Inactive)
REMARK    1  A    between atoms: C_2  and  C_12
REMARK    2  A    between atoms: C_7  and  N_8
REMARK                            x       y       z     vdW  Elec       q    Type
REMARK                         _______ _______ _______ _____ _____    ______ ____
ROOT
ATOM      1  O   UNL     1       5.656   5.124  19.290  0.00  0.00    +0.000 OA
ATOM      2  C   UNL     1       4.743   4.520  18.734  0.00  0.00    +0.000 C 
ATOM      3  N   UNL     1       4.747   4.079  17.433  0.00  0.00    +0.000 N 
ATOM      4  C   UNL     1       5.777   4.360  16.579  0.00  0.00    +0.000 A 
ATOM      5  N   UNL     1       6.961   4.856  16.838  0.00  0.00    +0.000 NA
ATOM      6  C   UNL     1       7.642   5.059  15.652  0.00  0.00    +0.000 A 
ATOM      7  C   UNL     1       6.937   4.711  14.526  0.00  0.00    +0.000 A 
ATOM      8  S   UNL     1       5.428   4.041  14.935  0.00  0.00    +0.000 S 
ATOM      9  H   UNL     1       3.920   3.667  17.025  0.00  0.00    +0.000 HD
ENDROOT
BRANCH   2  10
ATOM     10  C   UNL     1       3.514   4.235  19.542  0.00  0.00    +0.000 A 
ATOM     11  C   UNL     1       3.427   2.935  20.079  0.00  0.00    +0.000 A 
ATOM     12  C   UNL     1       2.351   2.556  20.884  0.00  0.00    +0.000 A 
ATOM     13  C   UNL     1       1.345   3.472  21.170  0.00  0.00    +0.000 A 
ATOM     14  C   UNL     1       1.415   4.763  20.647  0.00  0.00    +0.000 A 
ATOM     15  C   UNL     1       2.494   5.151  19.839  0.00  0.00    +0.000 A 
ATOM     16 CL   UNL     1       2.479   6.794  19.295  0.00  0.00    +0.000 Cl
ENDBRANCH   2  10
BRANCH   7  17
ATOM     17  N   UNL     1       7.355   4.869  13.170  0.00  0.00    +0.000 N 
ATOM     18  O   UNL     1       8.162   5.780  12.946  0.00  0.00    +0.000 OA
ATOM     19  O   UNL     1       6.880   4.103  12.321  0.00  0.00    +0.000 OA
ENDBRANCH   7  17
TORSDOF 2
ENDMDL
MODEL 5
REMARK VINA RESULT:      -7.0      1.098      1.100
REMARK  Name = 
REMARK  2 active torsions:
REMARK  status: ('A' for Active; 'I' for Inactive)
REMARK    1  A    between atoms: C_2  and  C_12
REMARK    2  A    between atoms: C_7  and  N_8
REMARK                            x       y       z     vdW  Elec       q    Type
REMARK                         _______ _______ _______ _____ _____    ______ ____
ROOT
ATOM      1  O   UNL     1       5.170   4.964  19.005  0.00  0.00    +0.000 OA
ATOM      2  C   UNL     1       4.378   4.332  18.310  0.00  0.00    +0.000 C 
ATOM      3  N   UNL     1       4.581   3.950  17.007  0.00  0.00    +0.000 N 
ATOM      4  C   UNL     1       5.694   4.331  16.308  0.00  0.00    +0.000 A 
ATOM      5  N   UNL     1       6.798   4.886  16.741  0.00  0.00    +0.000 NA
ATOM      6  C   UNL     1       7.614   5.182  15.665  0.00  0.00    +0.000 A 
ATOM      7  C   UNL     1       7.086   4.844  14.443  0.00  0.00    +0.000 A 
ATOM      8  S   UNL     1       5.584   4.066  14.622  0.00  0.00    +0.000 S 
ATOM      9  H   UNL     1       3.843   3.508  16.477  0.00  0.00    +0.000 HD
ENDROOT
BRANCH   2  10
ATOM     10  C   UNL     1       3.076   3.936  18.937  0.00  0.00    +0.000 A 
ATOM     11  C   UNL     1       2.749   2.568  18.851  0.00  0.00    +0.000 A 
ATOM     12  C   UNL     1       1.582   2.066  19.430  0.00  0.00    +0.000 A 
ATOM     13  C   UNL     1       0.724   2.923  20.110  0.00  0.00    +0.000 A 
ATOM     14  C   UNL     1       1.032   4.279  20.205  0.00  0.00    +0.000 A 
ATOM     15  C   UNL     1       2.202   4.791  19.627  0.00  0.00    +0.000 A 
ATOM     16 CL   UNL     1       2.484   6.482  19.860  0.00  0.00    +0.000 Cl
ENDBRANCH   2  10
BRANCH   7  17
ATOM     17  N   UNL     1       7.667   5.087  13.162  0.00  0.00    +0.000 N 
ATOM     18  O   UNL     1       7.194   4.448  12.213  0.00  0.00    +0.000 OA
ATOM     19  O   UNL     1       8.599   5.898  13.089  0.00  0.00    +0.000 OA
ENDBRANCH   7  17
TORSDOF 2
ENDMDL
MODEL 6
REMARK VINA RESULT:      -6.7      1.461      1.882
REMARK  Name = 
REMARK  2 active torsions:
REMARK  status: ('A' for Active; 'I' for Inactive)
REMARK    1  A    between atoms: C_2  and  C_12
REMARK    2  A    between atoms: C_7  and  N_8
REMARK                            x       y       z     vdW  Elec       q    Type
REMARK                         _______ _______ _______ _____ _____    ______ ____
ROOT
ATOM      1  O   UNL     1       5.066   4.999  18.571  0.00  0.00    +0.000 OA
ATOM      2  C   UNL     1       4.409   4.197  17.911  0.00  0.00    +0.000 C 
ATOM      3  N   UNL     1       4.711   3.764  16.644  0.00  0.00    +0.000 N 
ATOM      4  C   UNL     1       5.768   4.272  15.939  0.00  0.00    +0.000 A 
ATOM      5  N   UNL     1       6.753   5.029  16.349  0.00  0.00    +0.000 NA
ATOM      6  C   UNL     1       7.542   5.380  15.269  0.00  0.00    +0.000 A 
ATOM      7  C   UNL     1       7.114   4.873  14.066  0.00  0.00    +0.000 A 
ATOM      8  S   UNL     1       5.754   3.874  14.275  0.00  0.00    +0.000 S 
ATOM      9  H   UNL     1       4.072   3.170  16.134  0.00  0.00    +0.000 HD
ENDROOT
BRANCH   2  10
ATOM     10  C   UNL     1       3.171   3.639  18.541  0.00  0.00    +0.000 A 
ATOM     11  C   UNL     1       1.956   4.011  17.932  0.00  0.00    +0.000 A 
ATOM     12  C   UNL     1       0.734   3.525  18.401  0.00  0.00    +0.000 A 
ATOM     13  C   UNL     1       0.706   2.653  19.484  0.00  0.00    +0.000 A 
ATOM     14  C   UNL     1       1.898   2.274  20.098  0.00  0.00    +0.000 A 
ATOM     15  C   UNL     1       3.130   2.758  19.633  0.00  0.00    +0.000 A 
ATOM     16 CL   UNL     1       4.533   2.171  20.457  0.00  0.00    +0.000 Cl
ENDBRANCH   2  10
BRANCH   7  17
ATOM     17  N   UNL     1       7.686   5.118  12.781  0.00  0.00    +0.000 N 
ATOM     18  O   UNL     1       7.311   4.379  11.862  0.00  0.00    +0.000 OA
ATOM     19  O   UNL     1       8.518   6.029  12.677  0.00  0.00    +0.000 OA
ENDBRANCH   7  17
TORSDOF 2
ENDMDL
MODEL 7
REMARK VINA RESULT:      -6.6      5.727      8.143
REMARK  Name = 
REMARK  2 active torsions:
REMARK  status: ('A' for Active; 'I' for Inactive)
REMARK    1  A    between atoms: C_2  and  C_12
REMARK    2  A    between atoms: C_7  and  N_8
REMARK                            x       y       z     vdW  Elec       q    Type
REMARK                         _______ _______ _______ _____ _____    ______ ____
ROOT
ATOM      1  O   UNL     1       2.648   8.433  17.230  0.00  0.00    +0.000 OA
ATOM      2  C   UNL     1       2.819   7.537  18.052  0.00  0.00    +0.000 C 
ATOM      3  N   UNL     1       2.269   7.485  19.309  0.00  0.00    +0.000 N 
ATOM      4  C   UNL     1       1.520   8.513  19.813  0.00  0.00    +0.000 A 
ATOM      5  N   UNL     1       1.022   9.556  19.199  0.00  0.00    +0.000 NA
ATOM      6  C   UNL     1       0.412  10.384  20.124  0.00  0.00    +0.000 A 
ATOM      7  C   UNL     1       0.480   9.933  21.419  0.00  0.00    +0.000 A 
ATOM      8  S   UNL     1       1.240   8.414  21.498  0.00  0.00    +0.000 S 
ATOM      9  H   UNL     1       2.530   6.755  19.958  0.00  0.00    +0.000 HD
ENDROOT
BRANCH   2  10
ATOM     10  C   UNL     1       3.701   6.394  17.651  0.00  0.00    +0.000 A 
ATOM     11  C   UNL     1       5.054   6.719  17.424  0.00  0.00    +0.000 A 
ATOM     12  C   UNL     1       5.986   5.737  17.084  0.00  0.00    +0.000 A 
ATOM     13  C   UNL     1       5.582   4.412  16.969  0.00  0.00    +0.000 A 
ATOM     14  C   UNL     1       4.249   4.072  17.191  0.00  0.00    +0.000 A 
ATOM     15  C   UNL     1       3.307   5.053  17.534  0.00  0.00    +0.000 A 
ATOM     16 CL   UNL     1       1.698   4.487  17.825  0.00  0.00    +0.000 Cl
ENDBRANCH   2  10
BRANCH   7  17
ATOM     17  N   UNL     1       0.001  10.603  22.586  0.00  0.00    +0.000 N 
ATOM     18  O   UNL     1      -0.368  11.774  22.435  0.00  0.00    +0.000 OA
ATOM     19  O   UNL     1       0.000   9.980  23.656  0.00  0.00    +0.000 OA
ENDBRANCH   7  17
TORSDOF 2
ENDMDL
MODEL 8
REMARK VINA RESULT:      -6.5      1.566      1.629
REMARK  Name = 
REMARK  2 active torsions:
REMARK  status: ('A' for Active; 'I' for Inactive)
REMARK    1  A    between atoms: C_2  and  C_12
REMARK    2  A    between atoms: C_7  and  N_8
REMARK                            x       y       z     vdW  Elec       q    Type
REMARK                         _______ _______ _______ _____ _____    ______ ____
ROOT
ATOM      1  O   UNL     1       2.869   5.907  17.995  0.00  0.00    +0.000 OA
ATOM      2  C   UNL     1       3.381   4.825  18.271  0.00  0.00    +0.000 C 
ATOM      3  N   UNL     1       4.498   4.291  17.679  0.00  0.00    +0.000 N 
ATOM      4  C   UNL     1       5.118   4.902  16.624  0.00  0.00    +0.000 A 
ATOM      5  N   UNL     1       4.947   6.108  16.143  0.00  0.00    +0.000 NA
ATOM      6  C   UNL     1       5.722   6.264  15.009  0.00  0.00    +0.000 A 
ATOM      7  C   UNL     1       6.454   5.154  14.666  0.00  0.00    +0.000 A 
ATOM      8  S   UNL     1       6.250   3.912  15.809  0.00  0.00    +0.000 S 
ATOM      9  H   UNL     1       4.805   3.355  17.903  0.00  0.00    +0.000 HD
ENDROOT
BRANCH   2  10
ATOM     10  C   UNL     1       2.734   4.015  19.352  0.00  0.00    +0.000 A 
ATOM     11  C   UNL     1       2.650   4.637  20.614  0.00  0.00    +0.000 A 
ATOM     12  C   UNL     1       2.034   4.002  21.694  0.00  0.00    +0.000 A 
ATOM     13  C   UNL     1       1.487   2.735  21.530  0.00  0.00    +0.000 A 
ATOM     14  C   UNL     1       1.561   2.103  20.289  0.00  0.00    +0.000 A 
ATOM     15  C   UNL     1       2.178   2.736  19.199  0.00  0.00    +0.000 A 
ATOM     16 CL   UNL     1       2.159   1.859  17.707  0.00  0.00    +0.000 Cl
ENDBRANCH   2  10
BRANCH   7  17
ATOM     17  N   UNL     1       7.288   4.999  13.517  0.00  0.00    +0.000 N 
ATOM     18  O   UNL     1       6.898   4.199  12.658  0.00  0.00    +0.000 OA
ATOM     19  O   UNL     1       8.336   5.656  13.466  0.00  0.00    +0.000 OA
ENDBRANCH   7  17
TORSDOF 2
ENDMDL
MODEL 9
REMARK VINA RESULT:      -6.4      5.079      6.527
REMARK  Name = 
REMARK  2 active torsions:
REMARK  status: ('A' for Active; 'I' for Inactive)
REMARK    1  A    between atoms: C_2  and  C_12
REMARK    2  A    between atoms: C_7  and  N_8
REMARK                            x       y       z     vdW  Elec       q    Type
REMARK                         _______ _______ _______ _____ _____    ______ ____
ROOT
ATOM      1  O   UNL     1       2.034   8.445  19.013  0.00  0.00    +0.000 OA
ATOM      2  C   UNL     1       1.616   8.073  20.106  0.00  0.00    +0.000 C 
ATOM      3  N   UNL     1       1.897   6.870  20.705  0.00  0.00    +0.000 N 
ATOM      4  C   UNL     1       2.628   5.902  20.074  0.00  0.00    +0.000 A 
ATOM      5  N   UNL     1       3.339   5.979  18.977  0.00  0.00    +0.000 NA
ATOM      6  C   UNL     1       3.830   4.726  18.660  0.00  0.00    +0.000 A 
ATOM      7  C   UNL     1       3.462   3.735  19.536  0.00  0.00    +0.000 A 
ATOM      8  S   UNL     1       2.556   4.368  20.828  0.00  0.00    +0.000 S 
ATOM      9  H   UNL     1       1.443   6.603  21.568  0.00  0.00    +0.000 HD
ENDROOT
BRANCH   2  10
ATOM     10  C   UNL     1       0.724   9.012  20.858  0.00  0.00    +0.000 A 
ATOM     11  C   UNL     1       0.760   8.896  22.262  0.00  0.00    +0.000 A 
ATOM     12  C   UNL     1       0.005   9.740  23.077  0.00  0.00    +0.000 A 
ATOM     13  C   UNL     1      -0.797  10.720  22.503  0.00  0.00    +0.000 A 
ATOM     14  C   UNL     1      -0.846  10.850  21.115  0.00  0.00    +0.000 A 
ATOM     15  C   UNL     1      -0.089  10.006  20.290  0.00  0.00    +0.000 A 
ATOM     16 CL   UNL     1      -0.207  10.306  18.590  0.00  0.00    +0.000 Cl
ENDBRANCH   2  10
BRANCH   7  17
ATOM     17  N   UNL     1       3.762   2.343  19.430  0.00  0.00    +0.000 N 
ATOM     18  O   UNL     1       4.744   1.942  20.069  0.00  0.00    +0.000 OA
ATOM     19  O   UNL     1       3.041   1.645  18.706  0.00  0.00    +0.000 OA
ENDBRANCH   7  17
TORSDOF 2
ENDMDL
