MODEL 1
REMARK VINA RESULT:      -7.4      0.000      0.000
REMARK  Name = 
REMARK  5 active torsions:
REMARK  status: ('A' for Active; 'I' for Inactive)
REMARK    1  A    between atoms: C_1  and  O_2
REMARK    2  A    between atoms: O_2  and  C_3
REMARK    3  A    between atoms: C_6  and  C_7
REMARK    4  A    between atoms: C_23  and  O_24
REMARK    5  A    between atoms: O_24  and  C_25
REMARK                            x       y       z     vdW  Elec       q    Type
REMARK                         _______ _______ _______ _____ _____    ______ ____
ROOT
ATOM      1  C   UNL     1      -0.345  10.535  19.404  0.00  0.00    +0.000 C 
ATOM      2  C   UNL     1      -1.540  10.220  18.483  0.00  0.00    +0.000 C 
ATOM      3  C   UNL     1      -2.445  11.401  18.156  0.00  0.00    +0.000 C 
ATOM      4  O   UNL     1      -3.637  11.242  17.881  0.00  0.00    +0.000 OA
ATOM      5  N   UNL     1      -1.865  12.637  18.046  0.00  0.00    +0.000 N 
ATOM      6  C   UNL     1      -0.609  12.894  18.519  0.00  0.00    +0.000 A 
ATOM      7  N   UNL     1      -0.038  14.132  18.415  0.00  0.00    +0.000 NA
ATOM      8  C   UNL     1       1.145  14.134  18.999  0.00  0.00    +0.000 A 
ATOM      9  N   UNL     1       2.000  15.192  18.983  0.00  0.00    +0.000 N 
ATOM     10  C   UNL     1       1.582  16.488  18.440  0.00  0.00    +0.000 C 
ATOM     11  C   UNL     1       2.707  17.064  17.564  0.00  0.00    +0.000 C 
ATOM     12  O   UNL     1       3.965  17.113  18.262  0.00  0.00    +0.000 OA
ATOM     13  C   UNL     1       4.344  15.800  18.696  0.00  0.00    +0.000 C 
ATOM     14  C   UNL     1       3.300  15.208  19.653  0.00  0.00    +0.000 C 
ATOM     15  S   UNL     1       1.528  12.633  19.793  0.00  0.00    +0.000 S 
ATOM     16  C   UNL     1       0.116  11.936  19.169  0.00  0.00    +0.000 A 
ATOM     17  H   UNL     1      -2.417  13.419  17.721  0.00  0.00    +0.000 HD
ENDROOT
BRANCH   1  21
ATOM     18  C   UNL     1       2.629   7.412  18.848  0.00  0.00    +0.000 A 
ATOM     19  C   UNL     1       2.345   8.292  17.812  0.00  0.00    +0.000 A 
ATOM     20  C   UNL     1       1.385   9.288  17.987  0.00  0.00    +0.000 A 
ATOM     21  C   UNL     1       0.732   9.460  19.226  0.00  0.00    +0.000 A 
ATOM     22  C   UNL     1       1.058   8.590  20.284  0.00  0.00    +0.000 A 
ATOM     23  C   UNL     1       2.001   7.573  20.085  0.00  0.00    +0.000 A 
BRANCH  18  25
ATOM     24  C   UNL     1       3.554   5.338  19.465  0.00  0.00    +0.000 C 
ATOM     25  O   UNL     1       3.564   6.450  18.574  0.00  0.00    +0.000 OA
ENDBRANCH  18  25
BRANCH  22  26
ATOM     26  O   UNL     1       0.404   8.810  21.470  0.00  0.00    +0.000 OA
ATOM     27  C   UNL     1       1.176   9.286  22.567  0.00  0.00    +0.000 C 
ENDBRANCH  22  26
ENDBRANCH   1  21
TORSDOF 3
ENDMDL
MODEL 2
REMARK VINA RESULT:      -6.5      4.179      7.438
REMARK  Name = 
REMARK  5 active torsions:
REMARK  status: ('A' for Active; 'I' for Inactive)
REMARK    1  A    between atoms: C_1  and  O_2
REMARK    2  A    between atoms: O_2  and  C_3
REMARK    3  A    between atoms: C_6  and  C_7
REMARK    4  A    between atoms: C_23  and  O_24
REMARK    5  A    between atoms: O_24  and  C_25
REMARK                            x       y       z     vdW  Elec       q    Type
REMARK                         _______ _______ _______ _____ _____    ______ ____
ROOT
ATOM      1  C   UNL     1       4.083   4.408  19.721  0.00  0.00    +0.000 C 
ATOM      2  C   UNL     1       3.394   3.084  20.105  0.00  0.00    +0.000 C 
ATOM      3  C   UNL     1       2.336   3.189  21.197  0.00  0.00    +0.000 C 
ATOM      4  O   UNL     1       2.074   2.234  21.933  0.00  0.00    +0.000 OA
ATOM      5  N   UNL     1       1.589   4.335  21.253  0.00  0.00    +0.000 N 
ATOM      6  C   UNL     1       1.960   5.476  20.598  0.00  0.00    +0.000 A 
ATOM      7  N   UNL     1       1.215   6.620  20.664  0.00  0.00    +0.000 NA
ATOM      8  C   UNL     1       1.816   7.590  20.000  0.00  0.00    +0.000 A 
ATOM      9  N   UNL     1       1.279   8.823  19.804  0.00  0.00    +0.000 N 
ATOM     10  C   UNL     1       0.037   9.218  20.473  0.00  0.00    +0.000 C 
ATOM     11  C   UNL     1      -0.877   9.946  19.472  0.00  0.00    +0.000 C 
ATOM     12  O   UNL     1      -0.203  11.039  18.821  0.00  0.00    +0.000 OA
ATOM     13  C   UNL     1       0.958  10.565  18.126  0.00  0.00    +0.000 C 
ATOM     14  C   UNL     1       1.955   9.909  19.093  0.00  0.00    +0.000 C 
ATOM     15  S   UNL     1       3.377   7.136  19.376  0.00  0.00    +0.000 S 
ATOM     16  C   UNL     1       3.125   5.542  19.888  0.00  0.00    +0.000 A 
ATOM     17  H   UNL     1       0.807   4.389  21.891  0.00  0.00    +0.000 HD
ENDROOT
BRANCH   1  21
ATOM     18  C   UNL     1       5.830   3.917  15.769  0.00  0.00    +0.000 A 
ATOM     19  C   UNL     1       4.480   3.657  15.969  0.00  0.00    +0.000 A 
ATOM     20  C   UNL     1       3.922   3.806  17.238  0.00  0.00    +0.000 A 
ATOM     21  C   UNL     1       4.692   4.277  18.321  0.00  0.00    +0.000 A 
ATOM     22  C   UNL     1       6.049   4.579  18.100  0.00  0.00    +0.000 A 
ATOM     23  C   UNL     1       6.606   4.394  16.826  0.00  0.00    +0.000 A 
BRANCH  18  25
ATOM     24  C   UNL     1       7.065   4.791  13.967  0.00  0.00    +0.000 C 
ATOM     25  O   UNL     1       6.294   3.716  14.497  0.00  0.00    +0.000 OA
ENDBRANCH  18  25
BRANCH  22  26
ATOM     26  O   UNL     1       6.749   5.046  19.184  0.00  0.00    +0.000 OA
ATOM     27  C   UNL     1       7.843   5.922  18.932  0.00  0.00    +0.000 C 
ENDBRANCH  22  26
ENDBRANCH   1  21
TORSDOF 3
ENDMDL
MODEL 3
REMARK VINA RESULT:      -6.3      2.745      5.141
REMARK  Name = 
REMARK  5 active torsions:
REMARK  status: ('A' for Active; 'I' for Inactive)
REMARK    1  A    between atoms: C_1  and  O_2
REMARK    2  A    between atoms: O_2  and  C_3
REMARK    3  A    between atoms: C_6  and  C_7
REMARK    4  A    between atoms: C_23  and  O_24
REMARK    5  A    between atoms: O_24  and  C_25
REMARK                            x       y       z     vdW  Elec       q    Type
REMARK                         _______ _______ _______ _____ _____    ______ ____
ROOT
ATOM      1  C   UNL     1      -0.426  11.508  19.156  0.00  0.00    +0.000 C 
ATOM      2  C   UNL     1       0.077  10.051  19.129  0.00  0.00    +0.000 C 
ATOM      3  C   UNL     1       1.240   9.777  18.184  0.00  0.00    +0.000 C 
ATOM      4  O   UNL     1       1.417   8.661  17.689  0.00  0.00    +0.000 OA
ATOM      5  N   UNL     1       2.162  10.773  18.001  0.00  0.00    +0.000 N 
ATOM      6  C   UNL     1       1.915  12.066  18.367  0.00  0.00    +0.000 A 
ATOM      7  N   UNL     1       2.836  13.058  18.175  0.00  0.00    +0.000 NA
ATOM      8  C   UNL     1       2.335  14.219  18.553  0.00  0.00    +0.000 A 
ATOM      9  N   UNL     1       3.040  15.382  18.573  0.00  0.00    +0.000 N 
ATOM     10  C   UNL     1       4.389  15.453  18.005  0.00  0.00    +0.000 C 
ATOM     11  C   UNL     1       5.305  16.246  18.953  0.00  0.00    +0.000 C 
ATOM     12  O   UNL     1       4.753  17.534  19.285  0.00  0.00    +0.000 OA
ATOM     13  C   UNL     1       3.468  17.380  19.905  0.00  0.00    +0.000 C 
ATOM     14  C   UNL     1       2.480  16.676  18.964  0.00  0.00    +0.000 C 
ATOM     15  S   UNL     1       0.669  14.125  19.048  0.00  0.00    +0.000 S 
ATOM     16  C   UNL     1       0.712  12.439  18.894  0.00  0.00    +0.000 A 
ATOM     17  H   UNL     1       3.001  10.583  17.471  0.00  0.00    +0.000 HD
ENDROOT
BRANCH   1  21
ATOM     18  C   UNL     1      -2.607  12.110  22.869  0.00  0.00    +0.000 A 
ATOM     19  C   UNL     1      -1.303  11.636  22.899  0.00  0.00    +0.000 A 
ATOM     20  C   UNL     1      -0.606  11.434  21.708  0.00  0.00    +0.000 A 
ATOM     21  C   UNL     1      -1.183  11.761  20.463  0.00  0.00    +0.000 A 
ATOM     22  C   UNL     1      -2.491  12.282  20.445  0.00  0.00    +0.000 A 
ATOM     23  C   UNL     1      -3.192  12.449  21.647  0.00  0.00    +0.000 A 
BRANCH  18  25
ATOM     24  C   UNL     1      -4.399  13.049  24.070  0.00  0.00    +0.000 C 
ATOM     25  O   UNL     1      -3.220  12.249  24.086  0.00  0.00    +0.000 OA
ENDBRANCH  18  25
BRANCH  22  26
ATOM     26  O   UNL     1      -2.999  12.596  19.209  0.00  0.00    +0.000 OA
ATOM     27  C   UNL     1      -4.153  11.886  18.773  0.00  0.00    +0.000 C 
ENDBRANCH  22  26
ENDBRANCH   1  21
TORSDOF 3
ENDMDL
MODEL 4
REMARK VINA RESULT:      -6.0      3.776      6.473
REMARK  Name = 
REMARK  5 active torsions:
REMARK  status: ('A' for Active; 'I' for Inactive)
REMARK    1  A    between atoms: C_1  and  O_2
REMARK    2  A    between atoms: O_2  and  C_3
REMARK    3  A    between atoms: C_6  and  C_7
REMARK    4  A    between atoms: C_23  and  O_24
REMARK    5  A    between atoms: O_24  and  C_25
REMARK                            x       y       z     vdW  Elec       q    Type
REMARK                         _______ _______ _______ _____ _____    ______ ____
ROOT
ATOM      1  C   UNL     1      -2.339  10.981  18.185  0.00  0.00    +0.000 C 
ATOM      2  C   UNL     1      -2.293  10.787  16.656  0.00  0.00    +0.000 C 
ATOM      3  C   UNL     1      -3.647  10.631  15.976  0.00  0.00    +0.000 C 
ATOM      4  O   UNL     1      -3.767  10.002  14.921  0.00  0.00    +0.000 OA
ATOM      5  N   UNL     1      -4.708  11.321  16.498  0.00  0.00    +0.000 N 
ATOM      6  C   UNL     1      -4.671  11.868  17.750  0.00  0.00    +0.000 A 
ATOM      7  N   UNL     1      -5.737  12.548  18.271  0.00  0.00    +0.000 NA
ATOM      8  C   UNL     1      -5.473  12.920  19.510  0.00  0.00    +0.000 A 
ATOM      9  N   UNL     1      -6.298  13.695  20.263  0.00  0.00    +0.000 N 
ATOM     10  C   UNL     1      -7.643  14.041  19.792  0.00  0.00    +0.000 C 
ATOM     11  C   UNL     1      -7.916  15.529  20.066  0.00  0.00    +0.000 C 
ATOM     12  O   UNL     1      -7.683  15.878  21.444  0.00  0.00    +0.000 OA
ATOM     13  C   UNL     1      -6.327  15.582  21.809  0.00  0.00    +0.000 C 
ATOM     14  C   UNL     1      -6.023  14.086  21.646  0.00  0.00    +0.000 C 
ATOM     15  S   UNL     1      -3.943  12.333  20.098  0.00  0.00    +0.000 S 
ATOM     16  C   UNL     1      -3.585  11.712  18.563  0.00  0.00    +0.000 A 
ATOM     17  H   UNL     1      -5.590  11.327  16.005  0.00  0.00    +0.000 HD
ENDROOT
BRANCH   1  21
ATOM     18  C   UNL     1       1.415  12.798  19.418  0.00  0.00    +0.000 A 
ATOM     19  C   UNL     1       0.580  13.463  18.530  0.00  0.00    +0.000 A 
ATOM     20  C   UNL     1      -0.620  12.877  18.128  0.00  0.00    +0.000 A 
ATOM     21  C   UNL     1      -1.036  11.636  18.654  0.00  0.00    +0.000 A 
ATOM     22  C   UNL     1      -0.204  10.989  19.586  0.00  0.00    +0.000 A 
ATOM     23  C   UNL     1       1.015  11.574  19.958  0.00  0.00    +0.000 A 
BRANCH  18  25
ATOM     24  C   UNL     1       2.806  14.654  19.023  0.00  0.00    +0.000 C 
ATOM     25  O   UNL     1       2.583  13.438  19.733  0.00  0.00    +0.000 OA
ENDBRANCH  18  25
BRANCH  22  26
ATOM     26  O   UNL     1      -0.662   9.792  20.077  0.00  0.00    +0.000 OA
ATOM     27  C   UNL     1       0.010   9.242  21.205  0.00  0.00    +0.000 C 
ENDBRANCH  22  26
ENDBRANCH   1  21
TORSDOF 3
ENDMDL
MODEL 5
REMARK VINA RESULT:      -6.0      3.903      5.983
REMARK  Name = 
REMARK  5 active torsions:
REMARK  status: ('A' for Active; 'I' for Inactive)
REMARK    1  A    between atoms: C_1  and  O_2
REMARK    2  A    between atoms: O_2  and  C_3
REMARK    3  A    between atoms: C_6  and  C_7
REMARK    4  A    between atoms: C_23  and  O_24
REMARK    5  A    between atoms: O_24  and  C_25
REMARK                            x       y       z     vdW  Elec       q    Type
REMARK                         _______ _______ _______ _____ _____    ______ ____
ROOT
ATOM      1  C   UNL     1      -1.475  11.665  18.976  0.00  0.00    +0.000 C 
ATOM      2  C   UNL     1      -2.203  11.635  17.618  0.00  0.00    +0.000 C 
ATOM      3  C   UNL     1      -3.720  11.518  17.690  0.00  0.00    +0.000 C 
ATOM      4  O   UNL     1      -4.369  11.001  16.777  0.00  0.00    +0.000 OA
ATOM      5  N   UNL     1      -4.358  12.121  18.741  0.00  0.00    +0.000 N 
ATOM      6  C   UNL     1      -3.685  12.533  19.857  0.00  0.00    +0.000 A 
ATOM      7  N   UNL     1      -4.328  13.127  20.908  0.00  0.00    +0.000 NA
ATOM      8  C   UNL     1      -3.471  13.372  21.882  0.00  0.00    +0.000 A 
ATOM      9  N   UNL     1      -3.787  14.041  23.022  0.00  0.00    +0.000 N 
ATOM     10  C   UNL     1      -5.176  14.400  23.324  0.00  0.00    +0.000 C 
ATOM     11  C   UNL     1      -5.230  15.843  23.852  0.00  0.00    +0.000 C 
ATOM     12  O   UNL     1      -4.331  16.049  24.957  0.00  0.00    +0.000 OA
ATOM     13  C   UNL     1      -2.983  15.751  24.565  0.00  0.00    +0.000 C 
ATOM     14  C   UNL     1      -2.847  14.289  24.116  0.00  0.00    +0.000 C 
ATOM     15  S   UNL     1      -1.871  12.764  21.564  0.00  0.00    +0.000 S 
ATOM     16  C   UNL     1      -2.344  12.319  19.999  0.00  0.00    +0.000 A 
ATOM     17  H   UNL     1      -5.367  12.157  18.756  0.00  0.00    +0.000 HD
ENDROOT
BRANCH   1  21
ATOM     18  C   UNL     1       2.430  13.475  18.355  0.00  0.00    +0.000 A 
ATOM     19  C   UNL     1       1.308  14.279  18.511  0.00  0.00    +0.000 A 
ATOM     20  C   UNL     1       0.055  13.699  18.701  0.00  0.00    +0.000 A 
ATOM     21  C   UNL     1      -0.092  12.299  18.799  0.00  0.00    +0.000 A 
ATOM     22  C   UNL     1       1.056  11.493  18.683  0.00  0.00    +0.000 A 
ATOM     23  C   UNL     1       2.306  12.088  18.459  0.00  0.00    +0.000 A 
BRANCH  18  25
ATOM     24  C   UNL     1       3.474  15.449  17.614  0.00  0.00    +0.000 C 
ATOM     25  O   UNL     1       3.611  14.134  18.144  0.00  0.00    +0.000 OA
ENDBRANCH  18  25
BRANCH  22  26
ATOM     26  O   UNL     1       0.859  10.140  18.799  0.00  0.00    +0.000 OA
ATOM     27  C   UNL     1       1.596   9.291  17.926  0.00  0.00    +0.000 C 
ENDBRANCH  22  26
ENDBRANCH   1  21
TORSDOF 3
ENDMDL
MODEL 6
REMARK VINA RESULT:      -6.0      2.867      7.179
REMARK  Name = 
REMARK  5 active torsions:
REMARK  status: ('A' for Active; 'I' for Inactive)
REMARK    1  A    between atoms: C_1  and  O_2
REMARK    2  A    between atoms: O_2  and  C_3
REMARK    3  A    between atoms: C_6  and  C_7
REMARK    4  A    between atoms: C_23  and  O_24
REMARK    5  A    between atoms: O_24  and  C_25
REMARK                            x       y       z     vdW  Elec       q    Type
REMARK                         _______ _______ _______ _____ _____    ______ ____
ROOT
ATOM      1  C   UNL     1       0.064  10.933  20.359  0.00  0.00    +0.000 C 
ATOM      2  C   UNL     1      -0.110  11.171  21.872  0.00  0.00    +0.000 C 
ATOM      3  C   UNL     1      -0.175   9.913  22.729  0.00  0.00    +0.000 C 
ATOM      4  O   UNL     1      -0.780   9.898  23.804  0.00  0.00    +0.000 OA
ATOM      5  N   UNL     1       0.571   8.834  22.336  0.00  0.00    +0.000 N 
ATOM      6  C   UNL     1       1.096   8.735  21.078  0.00  0.00    +0.000 A 
ATOM      7  N   UNL     1       1.832   7.650  20.687  0.00  0.00    +0.000 NA
ATOM      8  C   UNL     1       2.169   7.767  19.417  0.00  0.00    +0.000 A 
ATOM      9  N   UNL     1       2.981   6.896  18.762  0.00  0.00    +0.000 N 
ATOM     10  C   UNL     1       3.414   5.648  19.398  0.00  0.00    +0.000 C 
ATOM     11  C   UNL     1       4.912   5.427  19.129  0.00  0.00    +0.000 C 
ATOM     12  O   UNL     1       5.225   5.494  17.726  0.00  0.00    +0.000 OA
ATOM     13  C   UNL     1       4.843   6.770  17.191  0.00  0.00    +0.000 C 
ATOM     14  C   UNL     1       3.334   7.006  17.346  0.00  0.00    +0.000 C 
ATOM     15  S   UNL     1       1.482   9.169  18.645  0.00  0.00    +0.000 S 
ATOM     16  C   UNL     1       0.863   9.692  20.133  0.00  0.00    +0.000 A 
ATOM     17  H   UNL     1       0.637   8.028  22.941  0.00  0.00    +0.000 HD
ENDROOT
BRANCH   1  21
ATOM     18  C   UNL     1       1.658  14.582  18.612  0.00  0.00    +0.000 A 
ATOM     19  C   UNL     1       2.482  13.755  19.364  0.00  0.00    +0.000 A 
ATOM     20  C   UNL     1       1.969  12.589  19.931  0.00  0.00    +0.000 A 
ATOM     21  C   UNL     1       0.632  12.197  19.707  0.00  0.00    +0.000 A 
ATOM     22  C   UNL     1      -0.184  13.020  18.908  0.00  0.00    +0.000 A 
ATOM     23  C   UNL     1       0.336  14.206  18.369  0.00  0.00    +0.000 A 
BRANCH  18  25
ATOM     24  C   UNL     1       3.635  15.841  18.401  0.00  0.00    +0.000 C 
ATOM     25  O   UNL     1       2.243  15.718  18.119  0.00  0.00    +0.000 OA
ENDBRANCH  18  25
BRANCH  22  26
ATOM     26  O   UNL     1      -1.470  12.586  18.710  0.00  0.00    +0.000 OA
ATOM     27  C   UNL     1      -1.738  11.843  17.525  0.00  0.00    +0.000 C 
ENDBRANCH  22  26
ENDBRANCH   1  21
TORSDOF 3
ENDMDL
MODEL 7
REMARK VINA RESULT:      -6.0      2.454      5.739
REMARK  Name = 
REMARK  5 active torsions:
REMARK  status: ('A' for Active; 'I' for Inactive)
REMARK    1  A    between atoms: C_1  and  O_2
REMARK    2  A    between atoms: O_2  and  C_3
REMARK    3  A    between atoms: C_6  and  C_7
REMARK    4  A    between atoms: C_23  and  O_24
REMARK    5  A    between atoms: O_24  and  C_25
REMARK                            x       y       z     vdW  Elec       q    Type
REMARK                         _______ _______ _______ _____ _____    ______ ____
ROOT
ATOM      1  C   UNL     1      -1.010  11.054  18.724  0.00  0.00    +0.000 C 
ATOM      2  C   UNL     1      -0.933  10.006  19.852  0.00  0.00    +0.000 C 
ATOM      3  C   UNL     1       0.415   9.900  20.555  0.00  0.00    +0.000 C 
ATOM      4  O   UNL     1       0.783   8.848  21.084  0.00  0.00    +0.000 OA
ATOM      5  N   UNL     1       1.152  11.045  20.699  0.00  0.00    +0.000 N 
ATOM      6  C   UNL     1       0.884  12.175  19.978  0.00  0.00    +0.000 A 
ATOM      7  N   UNL     1       1.629  13.313  20.118  0.00  0.00    +0.000 NA
ATOM      8  C   UNL     1       1.209  14.234  19.271  0.00  0.00    +0.000 A 
ATOM      9  N   UNL     1       1.688  15.506  19.233  0.00  0.00    +0.000 N 
ATOM     10  C   UNL     1       2.845  15.899  20.043  0.00  0.00    +0.000 C 
ATOM     11  C   UNL     1       2.576  17.266  20.694  0.00  0.00    +0.000 C 
ATOM     12  O   UNL     1       2.188  18.260  19.726  0.00  0.00    +0.000 OA
ATOM     13  C   UNL     1       1.007  17.840  19.028  0.00  0.00    +0.000 C 
ATOM     14  C   UNL     1       1.246  16.522  18.277  0.00  0.00    +0.000 C 
ATOM     15  S   UNL     1      -0.042  13.671  18.200  0.00  0.00    +0.000 S 
ATOM     16  C   UNL     1      -0.108  12.202  19.041  0.00  0.00    +0.000 A 
ATOM     17  H   UNL     1       1.994  11.028  21.257  0.00  0.00    +0.000 HD
ENDROOT
BRANCH   1  21
ATOM     18  C   UNL     1      -5.202  12.018  18.084  0.00  0.00    +0.000 A 
ATOM     19  C   UNL     1      -4.588  12.353  19.283  0.00  0.00    +0.000 A 
ATOM     20  C   UNL     1      -3.246  12.036  19.492  0.00  0.00    +0.000 A 
ATOM     21  C   UNL     1      -2.475  11.430  18.479  0.00  0.00    +0.000 A 
ATOM     22  C   UNL     1      -3.095  11.133  17.250  0.00  0.00    +0.000 A 
ATOM     23  C   UNL     1      -4.453  11.427  17.064  0.00  0.00    +0.000 A 
BRANCH  18  25
ATOM     24  C   UNL     1      -6.812  13.407  17.075  0.00  0.00    +0.000 C 
ATOM     25  O   UNL     1      -6.528  12.344  17.981  0.00  0.00    +0.000 OA
ENDBRANCH  18  25
BRANCH  22  26
ATOM     26  O   UNL     1      -2.296  10.556  16.295  0.00  0.00    +0.000 OA
ATOM     27  C   UNL     1      -2.906  10.192  15.061  0.00  0.00    +0.000 C 
ENDBRANCH  22  26
ENDBRANCH   1  21
TORSDOF 3
ENDMDL
MODEL 8
REMARK VINA RESULT:      -6.0      2.807      5.456
REMARK  Name = 
REMARK  5 active torsions:
REMARK  status: ('A' for Active; 'I' for Inactive)
REMARK    1  A    between atoms: C_1  and  O_2
REMARK    2  A    between atoms: O_2  and  C_3
REMARK    3  A    between atoms: C_6  and  C_7
REMARK    4  A    between atoms: C_23  and  O_24
REMARK    5  A    between atoms: O_24  and  C_25
REMARK                            x       y       z     vdW  Elec       q    Type
REMARK                         _______ _______ _______ _____ _____    ______ ____
ROOT
ATOM      1  C   UNL     1      -1.091  11.963  18.896  0.00  0.00    +0.000 C 
ATOM      2  C   UNL     1      -0.556  10.521  19.001  0.00  0.00    +0.000 C 
ATOM      3  C   UNL     1       0.781  10.267  18.316  0.00  0.00    +0.000 C 
ATOM      4  O   UNL     1       1.083   9.150  17.890  0.00  0.00    +0.000 OA
ATOM      5  N   UNL     1       1.696  11.287  18.306  0.00  0.00    +0.000 N 
ATOM      6  C   UNL     1       1.347  12.577  18.589  0.00  0.00    +0.000 A 
ATOM      7  N   UNL     1       2.263  13.593  18.569  0.00  0.00    +0.000 NA
ATOM      8  C   UNL     1       1.666  14.744  18.815  0.00  0.00    +0.000 A 
ATOM      9  N   UNL     1       2.322  15.926  18.955  0.00  0.00    +0.000 N 
ATOM     10  C   UNL     1       3.757  16.028  18.672  0.00  0.00    +0.000 C 
ATOM     11  C   UNL     1       4.440  16.860  19.771  0.00  0.00    +0.000 C 
ATOM     12  O   UNL     1       3.800  18.136  19.960  0.00  0.00    +0.000 OA
ATOM     13  C   UNL     1       2.420  17.954  20.308  0.00  0.00    +0.000 C 
ATOM     14  C   UNL     1       1.662  17.209  19.199  0.00  0.00    +0.000 C 
ATOM     15  S   UNL     1      -0.064  14.609  18.962  0.00  0.00    +0.000 S 
ATOM     16  C   UNL     1       0.053  12.922  18.853  0.00  0.00    +0.000 A 
ATOM     17  H   UNL     1       2.630  11.113  17.961  0.00  0.00    +0.000 HD
ENDROOT
BRANCH   1  21
ATOM     18  C   UNL     1      -3.966  12.553  22.105  0.00  0.00    +0.000 A 
ATOM     19  C   UNL     1      -2.606  12.539  22.385  0.00  0.00    +0.000 A 
ATOM     20  C   UNL     1      -1.684  12.341  21.357  0.00  0.00    +0.000 A 
ATOM     21  C   UNL     1      -2.105  12.212  20.017  0.00  0.00    +0.000 A 
ATOM     22  C   UNL     1      -3.483  12.270  19.737  0.00  0.00    +0.000 A 
ATOM     23  C   UNL     1      -4.401  12.438  20.783  0.00  0.00    +0.000 A 
BRANCH  18  25
ATOM     24  C   UNL     1      -4.177  12.513  24.448  0.00  0.00    +0.000 C 
ATOM     25  O   UNL     1      -4.795  12.724  23.181  0.00  0.00    +0.000 OA
ENDBRANCH  18  25
BRANCH  22  26
ATOM     26  O   UNL     1      -3.837  12.154  18.416  0.00  0.00    +0.000 OA
ATOM     27  C   UNL     1      -5.220  11.997  18.117  0.00  0.00    +0.000 C 
ENDBRANCH  22  26
ENDBRANCH   1  21
TORSDOF 3
ENDMDL
MODEL 9
REMARK VINA RESULT:      -5.9      3.190      7.172
REMARK  Name = 
REMARK  5 active torsions:
REMARK  status: ('A' for Active; 'I' for Inactive)
REMARK    1  A    between atoms: C_1  and  O_2
REMARK    2  A    between atoms: O_2  and  C_3
REMARK    3  A    between atoms: C_6  and  C_7
REMARK    4  A    between atoms: C_23  and  O_24
REMARK    5  A    between atoms: O_24  and  C_25
REMARK                            x       y       z     vdW  Elec       q    Type
REMARK                         _______ _______ _______ _____ _____    ______ ____
ROOT
ATOM      1  C   UNL     1       0.285  10.011  19.509  0.00  0.00    +0.000 C 
ATOM      2  C   UNL     1      -0.147  10.080  20.988  0.00  0.00    +0.000 C 
ATOM      3  C   UNL     1      -0.159   8.749  21.729  0.00  0.00    +0.000 C 
ATOM      4  O   UNL     1      -0.911   8.554  22.688  0.00  0.00    +0.000 OA
ATOM      5  N   UNL     1       0.784   7.818  21.384  0.00  0.00    +0.000 N 
ATOM      6  C   UNL     1       1.501   7.908  20.224  0.00  0.00    +0.000 A 
ATOM      7  N   UNL     1       2.435   6.970  19.880  0.00  0.00    +0.000 NA
ATOM      8  C   UNL     1       2.939   7.250  18.692  0.00  0.00    +0.000 A 
ATOM      9  N   UNL     1       3.957   6.557  18.116  0.00  0.00    +0.000 N 
ATOM     10  C   UNL     1       4.464   5.322  18.721  0.00  0.00    +0.000 C 
ATOM     11  C   UNL     1       6.001   5.324  18.683  0.00  0.00    +0.000 C 
ATOM     12  O   UNL     1       6.509   5.565  17.358  0.00  0.00    +0.000 OA
ATOM     13  C   UNL     1       6.033   6.824  16.863  0.00  0.00    +0.000 C 
ATOM     14  C   UNL     1       4.499   6.847  16.788  0.00  0.00    +0.000 C 
ATOM     15  S   UNL     1       2.183   8.617  17.924  0.00  0.00    +0.000 S 
ATOM     16  C   UNL     1       1.278   8.912  19.326  0.00  0.00    +0.000 A 
ATOM     17  H   UNL     1       0.873   6.974  21.931  0.00  0.00    +0.000 HD
ENDROOT
BRANCH   1  21
ATOM     18  C   UNL     1       1.639  13.971  18.328  0.00  0.00    +0.000 A 
ATOM     19  C   UNL     1       2.565  12.979  18.619  0.00  0.00    +0.000 A 
ATOM     20  C   UNL     1       2.131  11.711  19.006  0.00  0.00    +0.000 A 
ATOM     21  C   UNL     1       0.758  11.395  19.053  0.00  0.00    +0.000 A 
ATOM     22  C   UNL     1      -0.174  12.395  18.715  0.00  0.00    +0.000 A 
ATOM     23  C   UNL     1       0.275  13.675  18.358  0.00  0.00    +0.000 A 
BRANCH  18  25
ATOM     24  C   UNL     1       3.582  15.237  17.928  0.00  0.00    +0.000 C 
ATOM     25  O   UNL     1       2.158  15.191  17.985  0.00  0.00    +0.000 OA
ENDBRANCH  18  25
BRANCH  22  26
ATOM     26  O   UNL     1      -1.496  12.030  18.763  0.00  0.00    +0.000 OA
ATOM     27  C   UNL     1      -2.125  11.677  17.536  0.00  0.00    +0.000 C 
ENDBRANCH  22  26
ENDBRANCH   1  21
TORSDOF 3
ENDMDL
