MODEL 1
REMARK VINA RESULT:      -7.9      0.000      0.000
REMARK  Name = 
REMARK  12 active torsions:
REMARK  status: ('A' for Active; 'I' for Inactive)
REMARK    1  A    between atoms: C_1  and  C_2
REMARK    2  A    between atoms: C_2  and  C_3
REMARK    3  A    between atoms: C_2  and  C_4
REMARK    4  A    between atoms: C_4  and  C_5
REMARK    5  A    between atoms: C_5  and  C_6
REMARK    6  A    between atoms: C_6  and  C_7
REMARK    7  A    between atoms: C_6  and  N_14
REMARK    8  A    between atoms: C_17  and  C_18
REMARK    9  A    between atoms: C_18  and  C_19
REMARK   10  A    between atoms: C_19  and  O_21
REMARK   11  A    between atoms: C_23  and  C_24
REMARK   12  A    between atoms: C_27  and  C_28
REMARK                            x       y       z     vdW  Elec       q    Type
REMARK                         _______ _______ _______ _____ _____    ______ ____
ROOT
ATOM      1  N   UNL     1       4.669   4.837  18.243  0.00  0.00    +0.000 NA
ATOM      2  C   UNL     1       3.959   5.039  16.980  0.00  0.00    +0.000 C 
ATOM      3  C   UNL     1       4.541   4.403  15.700  0.00  0.00    +0.000 C 
ATOM      4  C   UNL     1       6.051   4.120  15.657  0.00  0.00    +0.000 C 
ATOM      5  C   UNL     1       6.537   3.749  17.060  0.00  0.00    +0.000 C 
ATOM      6  C   UNL     1       6.137   4.757  18.161  0.00  0.00    +0.000 C 
ENDROOT
BRANCH   6   7
ATOM      7  C   UNL     1       6.893   6.086  18.090  0.00  0.00    +0.000 A 
ATOM      8  C   UNL     1       6.492   7.117  17.237  0.00  0.00    +0.000 A 
ATOM      9  C   UNL     1       6.999   8.404  17.303  0.00  0.00    +0.000 A 
ATOM     10  C   UNL     1       8.061   8.674  18.149  0.00  0.00    +0.000 A 
ATOM     11  C   UNL     1       8.595   7.622  18.909  0.00  0.00    +0.000 A 
ATOM     12  C   UNL     1       8.004   6.346  18.899  0.00  0.00    +0.000 A 
BRANCH  10  13
ATOM     13  C   UNL     1       8.624  10.070  18.186  0.00  0.00    +0.000 C 
ATOM     14  F   UNL     1       7.817  10.992  17.583  0.00  0.00    +0.000 F 
ATOM     15  F   UNL     1       8.830  10.527  19.449  0.00  0.00    +0.000 F 
ATOM     16  F   UNL     1       9.821  10.153  17.545  0.00  0.00    +0.000 F 
ENDBRANCH  10  13
ENDBRANCH   6   7
BRANCH   1  17
ATOM     17  C   UNL     1       4.029   5.399  19.469  0.00  0.00    +0.000 C 
BRANCH  17  18
ATOM     18  C   UNL     1       3.140   6.639  19.161  0.00  0.00    +0.000 A 
ATOM     19  C   UNL     1       2.210   7.130  20.099  0.00  0.00    +0.000 A 
ATOM     20  C   UNL     1       1.435   8.262  19.835  0.00  0.00    +0.000 A 
ATOM     21  C   UNL     1       1.595   8.934  18.629  0.00  0.00    +0.000 A 
ATOM     22 CL   UNL     1       0.645  10.331  18.299  0.00  0.00    +0.000 Cl
ATOM     23  C   UNL     1       2.515   8.475  17.692  0.00  0.00    +0.000 A 
ATOM     24  C   UNL     1       3.282   7.332  17.950  0.00  0.00    +0.000 A 
ENDBRANCH  17  18
BRANCH  17  25
ATOM     25  C   UNL     1       3.231   4.491  20.467  0.00  0.00    +0.000 C 
BRANCH  25  26
ATOM     26  C   UNL     1       3.204   2.966  20.277  0.00  0.00    +0.000 C 
BRANCH  26  28
ATOM     27  C   UNL     1       0.746   3.342  19.999  0.00  0.00    +0.000 C 
ATOM     28  C   UNL     1       1.909   2.407  19.688  0.00  0.00    +0.000 C 
ATOM     29  C   UNL     1       2.072   2.229  18.175  0.00  0.00    +0.000 C 
ENDBRANCH  26  28
ENDBRANCH  25  26
ENDBRANCH  17  25
ENDBRANCH   1  17
BRANCH   4  30
ATOM     30  C   UNL     1       6.953   5.208  15.044  0.00  0.00    +0.000 C 
BRANCH  30  31
ATOM     31  C   UNL     1       7.386   4.991  13.612  0.00  0.00    +0.000 C 
ATOM     32  O   UNL     1       6.859   4.229  12.817  0.00  0.00    +0.000 OA
BRANCH  31  33
ATOM     33  O   UNL     1       8.446   5.781  13.279  0.00  0.00    +0.000 OA
ATOM     34  H   UNL     1       9.278   5.283  13.088  0.00  0.00    +0.000 HD
ENDBRANCH  31  33
ENDBRANCH  30  31
ENDBRANCH   4  30
TORSDOF 10
ENDMDL
MODEL 2
REMARK VINA RESULT:      -7.8      4.239      7.199
REMARK  Name = 
REMARK  12 active torsions:
REMARK  status: ('A' for Active; 'I' for Inactive)
REMARK    1  A    between atoms: C_1  and  C_2
REMARK    2  A    between atoms: C_2  and  C_3
REMARK    3  A    between atoms: C_2  and  C_4
REMARK    4  A    between atoms: C_4  and  C_5
REMARK    5  A    between atoms: C_5  and  C_6
REMARK    6  A    between atoms: C_6  and  C_7
REMARK    7  A    between atoms: C_6  and  N_14
REMARK    8  A    between atoms: C_17  and  C_18
REMARK    9  A    between atoms: C_18  and  C_19
REMARK   10  A    between atoms: C_19  and  O_21
REMARK   11  A    between atoms: C_23  and  C_24
REMARK   12  A    between atoms: C_27  and  C_28
REMARK                            x       y       z     vdW  Elec       q    Type
REMARK                         _______ _______ _______ _____ _____    ______ ____
ROOT
ATOM      1  N   UNL     1       4.276   4.460  17.430  0.00  0.00    +0.000 NA
ATOM      2  C   UNL     1       4.613   3.600  18.565  0.00  0.00    +0.000 C 
ATOM      3  C   UNL     1       3.530   2.645  19.110  0.00  0.00    +0.000 C 
ATOM      4  C   UNL     1       2.057   3.021  18.886  0.00  0.00    +0.000 C 
ATOM      5  C   UNL     1       1.918   3.750  17.547  0.00  0.00    +0.000 C 
ATOM      6  C   UNL     1       2.885   4.942  17.367  0.00  0.00    +0.000 C 
ENDROOT
BRANCH   6   7
ATOM      7  C   UNL     1       2.541   6.156  18.233  0.00  0.00    +0.000 A 
ATOM      8  C   UNL     1       1.972   7.311  17.691  0.00  0.00    +0.000 A 
ATOM      9  C   UNL     1       1.439   8.333  18.458  0.00  0.00    +0.000 A 
ATOM     10  C   UNL     1       1.595   8.303  19.834  0.00  0.00    +0.000 A 
ATOM     11  C   UNL     1       2.302   7.233  20.404  0.00  0.00    +0.000 A 
ATOM     12  C   UNL     1       2.751   6.158  19.616  0.00  0.00    +0.000 A 
BRANCH  10  13
ATOM     13  C   UNL     1       1.041   9.437  20.653  0.00  0.00    +0.000 C 
ATOM     14  F   UNL     1       1.531   9.471  21.927  0.00  0.00    +0.000 F 
ATOM     15  F   UNL     1       1.308  10.659  20.120  0.00  0.00    +0.000 F 
ATOM     16  F   UNL     1      -0.311   9.360  20.780  0.00  0.00    +0.000 F 
ENDBRANCH  10  13
ENDBRANCH   6   7
BRANCH   1  17
ATOM     17  C   UNL     1       5.375   5.307  16.881  0.00  0.00    +0.000 C 
BRANCH  17  18
ATOM     18  C   UNL     1       5.829   4.847  15.465  0.00  0.00    +0.000 A 
ATOM     19  C   UNL     1       7.090   5.202  14.944  0.00  0.00    +0.000 A 
ATOM     20  C   UNL     1       7.509   4.763  13.686  0.00  0.00    +0.000 A 
ATOM     21  C   UNL     1       6.677   3.942  12.935  0.00  0.00    +0.000 A 
ATOM     22 CL   UNL     1       7.190   3.396  11.386  0.00  0.00    +0.000 Cl
ATOM     23  C   UNL     1       5.433   3.569  13.433  0.00  0.00    +0.000 A 
ATOM     24  C   UNL     1       5.005   4.020  14.688  0.00  0.00    +0.000 A 
ENDBRANCH  17  18
BRANCH  17  25
ATOM     25  C   UNL     1       5.269   6.870  16.851  0.00  0.00    +0.000 C 
BRANCH  25  26
ATOM     26  C   UNL     1       6.089   7.722  17.832  0.00  0.00    +0.000 C 
BRANCH  26  28
ATOM     27  C   UNL     1       8.303   8.880  17.971  0.00  0.00    +0.000 C 
ATOM     28  C   UNL     1       7.604   7.546  17.737  0.00  0.00    +0.000 C 
ATOM     29  C   UNL     1       8.063   6.506  18.764  0.00  0.00    +0.000 C 
ENDBRANCH  26  28
ENDBRANCH  25  26
ENDBRANCH  17  25
ENDBRANCH   1  17
BRANCH   4  30
ATOM     30  C   UNL     1       1.354   3.811  20.006  0.00  0.00    +0.000 C 
BRANCH  30  31
ATOM     31  C   UNL     1       1.600   3.335  21.419  0.00  0.00    +0.000 C 
ATOM     32  O   UNL     1       2.438   3.784  22.185  0.00  0.00    +0.000 OA
BRANCH  31  33
ATOM     33  O   UNL     1       0.743   2.336  21.773  0.00  0.00    +0.000 OA
ATOM     34  H   UNL     1       1.006   1.442  21.444  0.00  0.00    +0.000 HD
ENDBRANCH  31  33
ENDBRANCH  30  31
ENDBRANCH   4  30
TORSDOF 10
ENDMDL
MODEL 3
REMARK VINA RESULT:      -7.8      4.284      7.206
REMARK  Name = 
REMARK  12 active torsions:
REMARK  status: ('A' for Active; 'I' for Inactive)
REMARK    1  A    between atoms: C_1  and  C_2
REMARK    2  A    between atoms: C_2  and  C_3
REMARK    3  A    between atoms: C_2  and  C_4
REMARK    4  A    between atoms: C_4  and  C_5
REMARK    5  A    between atoms: C_5  and  C_6
REMARK    6  A    between atoms: C_6  and  C_7
REMARK    7  A    between atoms: C_6  and  N_14
REMARK    8  A    between atoms: C_17  and  C_18
REMARK    9  A    between atoms: C_18  and  C_19
REMARK   10  A    between atoms: C_19  and  O_21
REMARK   11  A    between atoms: C_23  and  C_24
REMARK   12  A    between atoms: C_27  and  C_28
REMARK                            x       y       z     vdW  Elec       q    Type
REMARK                         _______ _______ _______ _____ _____    ______ ____
ROOT
ATOM      1  N   UNL     1       4.442   3.888  17.970  0.00  0.00    +0.000 NA
ATOM      2  C   UNL     1       4.656   2.931  19.056  0.00  0.00    +0.000 C 
ATOM      3  C   UNL     1       3.512   1.961  19.417  0.00  0.00    +0.000 C 
ATOM      4  C   UNL     1       2.073   2.389  19.089  0.00  0.00    +0.000 C 
ATOM      5  C   UNL     1       2.073   3.228  17.809  0.00  0.00    +0.000 C 
ATOM      6  C   UNL     1       3.071   4.407  17.818  0.00  0.00    +0.000 C 
ENDROOT
BRANCH   6   7
ATOM      7  C   UNL     1       2.667   5.554  18.747  0.00  0.00    +0.000 A 
ATOM      8  C   UNL     1       2.231   6.785  18.251  0.00  0.00    +0.000 A 
ATOM      9  C   UNL     1       1.644   7.762  19.038  0.00  0.00    +0.000 A 
ATOM     10  C   UNL     1       1.608   7.597  20.412  0.00  0.00    +0.000 A 
ATOM     11  C   UNL     1       2.180   6.440  20.963  0.00  0.00    +0.000 A 
ATOM     12  C   UNL     1       2.684   5.417  20.139  0.00  0.00    +0.000 A 
BRANCH  10  13
ATOM     13  C   UNL     1       0.998   8.682  21.259  0.00  0.00    +0.000 C 
ATOM     14  F   UNL     1       0.873   9.872  20.601  0.00  0.00    +0.000 F 
ATOM     15  F   UNL     1      -0.249   8.372  21.703  0.00  0.00    +0.000 F 
ATOM     16  F   UNL     1       1.746   8.947  22.363  0.00  0.00    +0.000 F 
ENDBRANCH  10  13
ENDBRANCH   6   7
BRANCH   1  17
ATOM     17  C   UNL     1       5.602   4.750  17.598  0.00  0.00    +0.000 C 
BRANCH  17  18
ATOM     18  C   UNL     1       5.976   4.626  16.092  0.00  0.00    +0.000 A 
ATOM     19  C   UNL     1       7.290   4.860  15.638  0.00  0.00    +0.000 A 
ATOM     20  C   UNL     1       7.632   4.716  14.291  0.00  0.00    +0.000 A 
ATOM     21  C   UNL     1       6.664   4.317  13.378  0.00  0.00    +0.000 A 
ATOM     22 CL   UNL     1       7.082   4.137  11.718  0.00  0.00    +0.000 Cl
ATOM     23  C   UNL     1       5.363   4.069  13.804  0.00  0.00    +0.000 A 
ATOM     24  C   UNL     1       5.016   4.226  15.152  0.00  0.00    +0.000 A 
ENDBRANCH  17  18
BRANCH  17  25
ATOM     25  C   UNL     1       5.641   6.274  17.962  0.00  0.00    +0.000 C 
BRANCH  25  26
ATOM     26  C   UNL     1       6.429   7.261  17.086  0.00  0.00    +0.000 C 
BRANCH  26  28
ATOM     27  C   UNL     1       7.982   9.070  17.845  0.00  0.00    +0.000 C 
ATOM     28  C   UNL     1       7.843   7.577  17.573  0.00  0.00    +0.000 C 
ATOM     29  C   UNL     1       8.141   6.765  18.837  0.00  0.00    +0.000 C 
ENDBRANCH  26  28
ENDBRANCH  25  26
ENDBRANCH  17  25
ENDBRANCH   1  17
BRANCH   4  30
ATOM     30  C   UNL     1       1.280   3.102  20.201  0.00  0.00    +0.000 C 
BRANCH  30  31
ATOM     31  C   UNL     1       1.651   2.747  21.623  0.00  0.00    +0.000 C 
ATOM     32  O   UNL     1       2.774   2.789  22.097  0.00  0.00    +0.000 OA
BRANCH  31  33
ATOM     33  O   UNL     1       0.558   2.388  22.355  0.00  0.00    +0.000 OA
ATOM     34  H   UNL     1       0.762   1.794  23.119  0.00  0.00    +0.000 HD
ENDBRANCH  31  33
ENDBRANCH  30  31
ENDBRANCH   4  30
TORSDOF 10
ENDMDL
MODEL 4
REMARK VINA RESULT:      -7.6      7.439     10.716
REMARK  Name = 
REMARK  12 active torsions:
REMARK  status: ('A' for Active; 'I' for Inactive)
REMARK    1  A    between atoms: C_1  and  C_2
REMARK    2  A    between atoms: C_2  and  C_3
REMARK    3  A    between atoms: C_2  and  C_4
REMARK    4  A    between atoms: C_4  and  C_5
REMARK    5  A    between atoms: C_5  and  C_6
REMARK    6  A    between atoms: C_6  and  C_7
REMARK    7  A    between atoms: C_6  and  N_14
REMARK    8  A    between atoms: C_17  and  C_18
REMARK    9  A    between atoms: C_18  and  C_19
REMARK   10  A    between atoms: C_19  and  O_21
REMARK   11  A    between atoms: C_23  and  C_24
REMARK   12  A    between atoms: C_27  and  C_28
REMARK                            x       y       z     vdW  Elec       q    Type
REMARK                         _______ _______ _______ _____ _____    ______ ____
ROOT
ATOM      1  N   UNL     1       0.802  11.943  19.007  0.00  0.00    +0.000 NA
ATOM      2  C   UNL     1       0.640  13.214  18.301  0.00  0.00    +0.000 C 
ATOM      3  C   UNL     1       1.284  14.479  18.908  0.00  0.00    +0.000 C 
ATOM      4  C   UNL     1       1.528  14.508  20.424  0.00  0.00    +0.000 C 
ATOM      5  C   UNL     1       1.863  13.095  20.910  0.00  0.00    +0.000 C 
ATOM      6  C   UNL     1       0.847  12.015  20.478  0.00  0.00    +0.000 C 
ENDROOT
BRANCH   6   7
ATOM      7  C   UNL     1      -0.500  12.105  21.200  0.00  0.00    +0.000 A 
ATOM      8  C   UNL     1      -0.692  11.563  22.473  0.00  0.00    +0.000 A 
ATOM      9  C   UNL     1      -1.808  11.816  23.251  0.00  0.00    +0.000 A 
ATOM     10  C   UNL     1      -2.870  12.520  22.709  0.00  0.00    +0.000 A 
ATOM     11  C   UNL     1      -2.778  12.946  21.375  0.00  0.00    +0.000 A 
ATOM     12  C   UNL     1      -1.597  12.763  20.634  0.00  0.00    +0.000 A 
BRANCH  10  13
ATOM     13  C   UNL     1      -4.092  12.759  23.555  0.00  0.00    +0.000 C 
ATOM     14  F   UNL     1      -4.195  11.896  24.607  0.00  0.00    +0.000 F 
ATOM     15  F   UNL     1      -4.130  14.007  24.094  0.00  0.00    +0.000 F 
ATOM     16  F   UNL     1      -5.241  12.612  22.843  0.00  0.00    +0.000 F 
ENDBRANCH  10  13
ENDBRANCH   6   7
BRANCH   1  17
ATOM     17  C   UNL     1       0.236  10.732  18.345  0.00  0.00    +0.000 C 
BRANCH  17  18
ATOM     18  C   UNL     1       1.034   9.440  18.685  0.00  0.00    +0.000 A 
ATOM     19  C   UNL     1       1.865   8.816  17.733  0.00  0.00    +0.000 A 
ATOM     20  C   UNL     1       2.607   7.674  18.049  0.00  0.00    +0.000 A 
ATOM     21  C   UNL     1       2.542   7.150  19.334  0.00  0.00    +0.000 A 
ATOM     22 CL   UNL     1       3.455   5.745  19.729  0.00  0.00    +0.000 Cl
ATOM     23  C   UNL     1       1.737   7.756  20.294  0.00  0.00    +0.000 A 
ATOM     24  C   UNL     1       0.983   8.891  19.974  0.00  0.00    +0.000 A 
ENDBRANCH  17  18
BRANCH  17  25
ATOM     25  C   UNL     1      -1.288  10.377  18.448  0.00  0.00    +0.000 C 
BRANCH  25  26
ATOM     26  C   UNL     1      -2.042   9.832  17.224  0.00  0.00    +0.000 C 
BRANCH  26  28
ATOM     27  C   UNL     1      -2.959  10.317  14.947  0.00  0.00    +0.000 C 
ATOM     28  C   UNL     1      -2.684  10.893  16.332  0.00  0.00    +0.000 C 
ATOM     29  C   UNL     1      -3.981  11.389  16.979  0.00  0.00    +0.000 C 
ENDBRANCH  26  28
ENDBRANCH  25  26
ENDBRANCH  17  25
ENDBRANCH   1  17
BRANCH   4  30
ATOM     30  C   UNL     1       0.429  15.134  21.302  0.00  0.00    +0.000 C 
BRANCH  30  31
ATOM     31  C   UNL     1      -0.319  16.305  20.708  0.00  0.00    +0.000 C 
ATOM     32  O   UNL     1      -1.458  16.275  20.273  0.00  0.00    +0.000 OA
BRANCH  31  33
ATOM     33  O   UNL     1       0.427  17.447  20.732  0.00  0.00    +0.000 OA
ATOM     34  H   UNL     1       0.057  18.183  20.186  0.00  0.00    +0.000 HD
ENDBRANCH  31  33
ENDBRANCH  30  31
ENDBRANCH   4  30
TORSDOF 10
ENDMDL
MODEL 5
REMARK VINA RESULT:      -7.5      7.817     11.121
REMARK  Name = 
REMARK  12 active torsions:
REMARK  status: ('A' for Active; 'I' for Inactive)
REMARK    1  A    between atoms: C_1  and  C_2
REMARK    2  A    between atoms: C_2  and  C_3
REMARK    3  A    between atoms: C_2  and  C_4
REMARK    4  A    between atoms: C_4  and  C_5
REMARK    5  A    between atoms: C_5  and  C_6
REMARK    6  A    between atoms: C_6  and  C_7
REMARK    7  A    between atoms: C_6  and  N_14
REMARK    8  A    between atoms: C_17  and  C_18
REMARK    9  A    between atoms: C_18  and  C_19
REMARK   10  A    between atoms: C_19  and  O_21
REMARK   11  A    between atoms: C_23  and  C_24
REMARK   12  A    between atoms: C_27  and  C_28
REMARK                            x       y       z     vdW  Elec       q    Type
REMARK                         _______ _______ _______ _____ _____    ______ ____
ROOT
ATOM      1  N   UNL     1       0.264  12.307  19.114  0.00  0.00    +0.000 NA
ATOM      2  C   UNL     1      -0.012  13.556  18.404  0.00  0.00    +0.000 C 
ATOM      3  C   UNL     1       0.551  14.870  18.984  0.00  0.00    +0.000 C 
ATOM      4  C   UNL     1       0.833  14.931  20.493  0.00  0.00    +0.000 C 
ATOM      5  C   UNL     1       1.286  13.552  20.980  0.00  0.00    +0.000 C 
ATOM      6  C   UNL     1       0.343  12.394  20.583  0.00  0.00    +0.000 C 
ENDROOT
BRANCH   6   7
ATOM      7  C   UNL     1      -0.987  12.390  21.341  0.00  0.00    +0.000 A 
ATOM      8  C   UNL     1      -1.082  11.943  22.661  0.00  0.00    +0.000 A 
ATOM      9  C   UNL     1      -2.201  12.131  23.453  0.00  0.00    +0.000 A 
ATOM     10  C   UNL     1      -3.353  12.656  22.890  0.00  0.00    +0.000 A 
ATOM     11  C   UNL     1      -3.345  12.971  21.523  0.00  0.00    +0.000 A 
ATOM     12  C   UNL     1      -2.168  12.863  20.760  0.00  0.00    +0.000 A 
BRANCH  10  13
ATOM     13  C   UNL     1      -4.573  12.824  23.755  0.00  0.00    +0.000 C 
ATOM     14  F   UNL     1      -4.581  11.997  24.841  0.00  0.00    +0.000 F 
ATOM     15  F   UNL     1      -4.708  14.084  24.246  0.00  0.00    +0.000 F 
ATOM     16  F   UNL     1      -5.720  12.551  23.075  0.00  0.00    +0.000 F 
ENDBRANCH  10  13
ENDBRANCH   6   7
BRANCH   1  17
ATOM     17  C   UNL     1      -0.226  11.050  18.476  0.00  0.00    +0.000 C 
BRANCH  17  18
ATOM     18  C   UNL     1       0.677   9.825  18.803  0.00  0.00    +0.000 A 
ATOM     19  C   UNL     1       0.727   9.271  20.098  0.00  0.00    +0.000 A 
ATOM     20  C   UNL     1       1.514   8.152  20.382  0.00  0.00    +0.000 A 
ATOM     21  C   UNL     1       2.250   7.556  19.365  0.00  0.00    +0.000 A 
ATOM     22 CL   UNL     1       3.218   6.176  19.710  0.00  0.00    +0.000 Cl
ATOM     23  C   UNL     1       2.207   8.078  18.076  0.00  0.00    +0.000 A 
ATOM     24  C   UNL     1       1.430   9.209  17.793  0.00  0.00    +0.000 A 
ENDBRANCH  17  18
BRANCH  17  25
ATOM     25  C   UNL     1      -1.715  10.582  18.624  0.00  0.00    +0.000 C 
BRANCH  25  26
ATOM     26  C   UNL     1      -2.372   9.729  17.528  0.00  0.00    +0.000 C 
BRANCH  26  28
ATOM     27  C   UNL     1      -4.059  11.574  17.609  0.00  0.00    +0.000 C 
ATOM     28  C   UNL     1      -3.537  10.394  16.797  0.00  0.00    +0.000 C 
ATOM     29  C   UNL     1      -3.076  10.852  15.410  0.00  0.00    +0.000 C 
ENDBRANCH  26  28
ENDBRANCH  25  26
ENDBRANCH  17  25
ENDBRANCH   1  17
BRANCH   4  30
ATOM     30  C   UNL     1      -0.287  15.481  21.397  0.00  0.00    +0.000 C 
BRANCH  30  31
ATOM     31  C   UNL     1       0.153  16.142  22.683  0.00  0.00    +0.000 C 
ATOM     32  O   UNL     1       0.369  15.570  23.739  0.00  0.00    +0.000 OA
BRANCH  31  33
ATOM     33  O   UNL     1       0.318  17.487  22.530  0.00  0.00    +0.000 OA
ATOM     34  H   UNL     1      -0.402  17.926  22.014  0.00  0.00    +0.000 HD
ENDBRANCH  31  33
ENDBRANCH  30  31
ENDBRANCH   4  30
TORSDOF 10
ENDMDL
MODEL 6
REMARK VINA RESULT:      -7.4      0.507      1.387
REMARK  Name = 
REMARK  12 active torsions:
REMARK  status: ('A' for Active; 'I' for Inactive)
REMARK    1  A    between atoms: C_1  and  C_2
REMARK    2  A    between atoms: C_2  and  C_3
REMARK    3  A    between atoms: C_2  and  C_4
REMARK    4  A    between atoms: C_4  and  C_5
REMARK    5  A    between atoms: C_5  and  C_6
REMARK    6  A    between atoms: C_6  and  C_7
REMARK    7  A    between atoms: C_6  and  N_14
REMARK    8  A    between atoms: C_17  and  C_18
REMARK    9  A    between atoms: C_18  and  C_19
REMARK   10  A    between atoms: C_19  and  O_21
REMARK   11  A    between atoms: C_23  and  C_24
REMARK   12  A    between atoms: C_27  and  C_28
REMARK                            x       y       z     vdW  Elec       q    Type
REMARK                         _______ _______ _______ _____ _____    ______ ____
ROOT
ATOM      1  N   UNL     1       4.454   4.903  18.353  0.00  0.00    +0.000 NA
ATOM      2  C   UNL     1       3.741   5.098  17.091  0.00  0.00    +0.000 C 
ATOM      3  C   UNL     1       4.287   4.408  15.824  0.00  0.00    +0.000 C 
ATOM      4  C   UNL     1       5.785   4.069  15.775  0.00  0.00    +0.000 C 
ATOM      5  C   UNL     1       6.270   3.715  17.183  0.00  0.00    +0.000 C 
ATOM      6  C   UNL     1       5.918   4.765  18.261  0.00  0.00    +0.000 C 
ENDROOT
BRANCH   6   7
ATOM      7  C   UNL     1       6.722   6.063  18.149  0.00  0.00    +0.000 A 
ATOM      8  C   UNL     1       6.312   7.115  17.326  0.00  0.00    +0.000 A 
ATOM      9  C   UNL     1       6.874   8.380  17.365  0.00  0.00    +0.000 A 
ATOM     10  C   UNL     1       7.995   8.602  18.147  0.00  0.00    +0.000 A 
ATOM     11  C   UNL     1       8.532   7.525  18.868  0.00  0.00    +0.000 A 
ATOM     12  C   UNL     1       7.889   6.274  18.890  0.00  0.00    +0.000 A 
BRANCH  10  13
ATOM     13  C   UNL     1       8.616   9.973  18.154  0.00  0.00    +0.000 C 
ATOM     14  F   UNL     1       8.879  10.438  19.410  0.00  0.00    +0.000 F 
ATOM     15  F   UNL     1       9.798  10.026  17.484  0.00  0.00    +0.000 F 
ATOM     16  F   UNL     1       7.805  10.902  17.579  0.00  0.00    +0.000 F 
ENDBRANCH  10  13
ENDBRANCH   6   7
BRANCH   1  17
ATOM     17  C   UNL     1       3.847   5.519  19.569  0.00  0.00    +0.000 C 
BRANCH  17  18
ATOM     18  C   UNL     1       3.033   6.805  19.241  0.00  0.00    +0.000 A 
ATOM     19  C   UNL     1       3.119   7.429  17.981  0.00  0.00    +0.000 A 
ATOM     20  C   UNL     1       2.364   8.565  17.677  0.00  0.00    +0.000 A 
ATOM     21  C   UNL     1       1.493   9.083  18.629  0.00  0.00    +0.000 A 
ATOM     22 CL   UNL     1       0.559  10.480  18.258  0.00  0.00    +0.000 Cl
ATOM     23  C   UNL     1       1.384   8.476  19.876  0.00  0.00    +0.000 A 
ATOM     24  C   UNL     1       2.150   7.346  20.187  0.00  0.00    +0.000 A 
ENDBRANCH  17  18
BRANCH  17  25
ATOM     25  C   UNL     1       2.995   4.674  20.578  0.00  0.00    +0.000 C 
BRANCH  25  26
ATOM     26  C   UNL     1       1.692   4.001  20.120  0.00  0.00    +0.000 C 
BRANCH  26  28
ATOM     27  C   UNL     1       2.958   1.982  19.354  0.00  0.00    +0.000 C 
ATOM     28  C   UNL     1       1.852   2.971  19.002  0.00  0.00    +0.000 C 
ATOM     29  C   UNL     1       0.522   2.242  18.785  0.00  0.00    +0.000 C 
ENDBRANCH  26  28
ENDBRANCH  25  26
ENDBRANCH  17  25
ENDBRANCH   1  17
BRANCH   4  30
ATOM     30  C   UNL     1       6.721   5.106  15.126  0.00  0.00    +0.000 C 
BRANCH  30  31
ATOM     31  C   UNL     1       7.153   4.823  13.706  0.00  0.00    +0.000 C 
ATOM     32  O   UNL     1       7.897   5.521  13.036  0.00  0.00    +0.000 OA
BRANCH  31  33
ATOM     33  O   UNL     1       6.632   3.651  13.242  0.00  0.00    +0.000 OA
ATOM     34  H   UNL     1       7.160   3.232  12.520  0.00  0.00    +0.000 HD
ENDBRANCH  31  33
ENDBRANCH  30  31
ENDBRANCH   4  30
TORSDOF 10
ENDMDL
MODEL 7
REMARK VINA RESULT:      -7.4      4.151      7.147
REMARK  Name = 
REMARK  12 active torsions:
REMARK  status: ('A' for Active; 'I' for Inactive)
REMARK    1  A    between atoms: C_1  and  C_2
REMARK    2  A    between atoms: C_2  and  C_3
REMARK    3  A    between atoms: C_2  and  C_4
REMARK    4  A    between atoms: C_4  and  C_5
REMARK    5  A    between atoms: C_5  and  C_6
REMARK    6  A    between atoms: C_6  and  C_7
REMARK    7  A    between atoms: C_6  and  N_14
REMARK    8  A    between atoms: C_17  and  C_18
REMARK    9  A    between atoms: C_18  and  C_19
REMARK   10  A    between atoms: C_19  and  O_21
REMARK   11  A    between atoms: C_23  and  C_24
REMARK   12  A    between atoms: C_27  and  C_28
REMARK                            x       y       z     vdW  Elec       q    Type
REMARK                         _______ _______ _______ _____ _____    ______ ____
ROOT
ATOM      1  N   UNL     1       4.569   3.974  18.043  0.00  0.00    +0.000 NA
ATOM      2  C   UNL     1       4.816   3.286  19.311  0.00  0.00    +0.000 C 
ATOM      3  C   UNL     1       3.786   2.242  19.793  0.00  0.00    +0.000 C 
ATOM      4  C   UNL     1       2.337   2.378  19.302  0.00  0.00    +0.000 C 
ATOM      5  C   UNL     1       2.335   2.946  17.880  0.00  0.00    +0.000 C 
ATOM      6  C   UNL     1       3.159   4.241  17.710  0.00  0.00    +0.000 C 
ENDROOT
BRANCH   6   7
ATOM      7  C   UNL     1       2.523   5.472  18.362  0.00  0.00    +0.000 A 
ATOM      8  C   UNL     1       2.620   5.712  19.734  0.00  0.00    +0.000 A 
ATOM      9  C   UNL     1       2.264   6.911  20.327  0.00  0.00    +0.000 A 
ATOM     10  C   UNL     1       1.642   7.887  19.567  0.00  0.00    +0.000 A 
ATOM     11  C   UNL     1       1.384   7.619  18.215  0.00  0.00    +0.000 A 
ATOM     12  C   UNL     1       1.841   6.434  17.610  0.00  0.00    +0.000 A 
BRANCH  10  13
ATOM     13  C   UNL     1       1.229   9.173  20.232  0.00  0.00    +0.000 C 
ATOM     14  F   UNL     1       1.697   9.293  21.509  0.00  0.00    +0.000 F 
ATOM     15  F   UNL     1       1.667  10.278  19.572  0.00  0.00    +0.000 F 
ATOM     16  F   UNL     1      -0.123   9.289  20.322  0.00  0.00    +0.000 F 
ENDBRANCH  10  13
ENDBRANCH   6   7
BRANCH   1  17
ATOM     17  C   UNL     1       5.629   4.913  17.573  0.00  0.00    +0.000 C 
BRANCH  17  18
ATOM     18  C   UNL     1       5.978   4.712  16.070  0.00  0.00    +0.000 A 
ATOM     19  C   UNL     1       7.288   4.899  15.586  0.00  0.00    +0.000 A 
ATOM     20  C   UNL     1       7.607   4.687  14.242  0.00  0.00    +0.000 A 
ATOM     21  C   UNL     1       6.619   4.263  13.363  0.00  0.00    +0.000 A 
ATOM     22 CL   UNL     1       7.007   3.998  11.707  0.00  0.00    +0.000 Cl
ATOM     23  C   UNL     1       5.320   4.060  13.820  0.00  0.00    +0.000 A 
ATOM     24  C   UNL     1       4.996   4.286  15.163  0.00  0.00    +0.000 A 
ENDBRANCH  17  18
BRANCH  17  25
ATOM     25  C   UNL     1       5.526   6.457  17.823  0.00  0.00    +0.000 C 
BRANCH  25  26
ATOM     26  C   UNL     1       6.423   7.431  17.042  0.00  0.00    +0.000 C 
BRANCH  26  28
ATOM     27  C   UNL     1       8.081   9.065  17.960  0.00  0.00    +0.000 C 
ATOM     28  C   UNL     1       7.835   7.604  17.600  0.00  0.00    +0.000 C 
ATOM     29  C   UNL     1       8.013   6.706  18.828  0.00  0.00    +0.000 C 
ENDBRANCH  26  28
ENDBRANCH  25  26
ENDBRANCH  17  25
ENDBRANCH   1  17
BRANCH   4  30
ATOM     30  C   UNL     1       1.361   3.163  20.198  0.00  0.00    +0.000 C 
BRANCH  30  31
ATOM     31  C   UNL     1       1.514   2.968  21.689  0.00  0.00    +0.000 C 
ATOM     32  O   UNL     1       0.984   2.089  22.349  0.00  0.00    +0.000 OA
BRANCH  31  33
ATOM     33  O   UNL     1       2.356   3.890  22.236  0.00  0.00    +0.000 OA
ATOM     34  H   UNL     1       2.706   4.551  21.590  0.00  0.00    +0.000 HD
ENDBRANCH  31  33
ENDBRANCH  30  31
ENDBRANCH   4  30
TORSDOF 10
ENDMDL
MODEL 8
REMARK VINA RESULT:      -7.4      4.009      6.771
REMARK  Name = 
REMARK  12 active torsions:
REMARK  status: ('A' for Active; 'I' for Inactive)
REMARK    1  A    between atoms: C_1  and  C_2
REMARK    2  A    between atoms: C_2  and  C_3
REMARK    3  A    between atoms: C_2  and  C_4
REMARK    4  A    between atoms: C_4  and  C_5
REMARK    5  A    between atoms: C_5  and  C_6
REMARK    6  A    between atoms: C_6  and  C_7
REMARK    7  A    between atoms: C_6  and  N_14
REMARK    8  A    between atoms: C_17  and  C_18
REMARK    9  A    between atoms: C_18  and  C_19
REMARK   10  A    between atoms: C_19  and  O_21
REMARK   11  A    between atoms: C_23  and  C_24
REMARK   12  A    between atoms: C_27  and  C_28
REMARK                            x       y       z     vdW  Elec       q    Type
REMARK                         _______ _______ _______ _____ _____    ______ ____
ROOT
ATOM      1  N   UNL     1       3.953   3.482  17.007  0.00  0.00    +0.000 NA
ATOM      2  C   UNL     1       4.589   2.783  18.123  0.00  0.00    +0.000 C 
ATOM      3  C   UNL     1       3.707   1.914  19.045  0.00  0.00    +0.000 C 
ATOM      4  C   UNL     1       2.214   2.261  19.151  0.00  0.00    +0.000 C 
ATOM      5  C   UNL     1       1.722   2.802  17.806  0.00  0.00    +0.000 C 
ATOM      6  C   UNL     1       2.576   3.955  17.232  0.00  0.00    +0.000 C 
ENDROOT
BRANCH   6   7
ATOM      7  C   UNL     1       2.422   5.277  17.989  0.00  0.00    +0.000 A 
ATOM      8  C   UNL     1       1.731   6.362  17.444  0.00  0.00    +0.000 A 
ATOM      9  C   UNL     1       1.373   7.483  18.173  0.00  0.00    +0.000 A 
ATOM     10  C   UNL     1       1.836   7.628  19.470  0.00  0.00    +0.000 A 
ATOM     11  C   UNL     1       2.666   6.629  19.999  0.00  0.00    +0.000 A 
ATOM     12  C   UNL     1       2.938   5.453  19.277  0.00  0.00    +0.000 A 
BRANCH  10  13
ATOM     13  C   UNL     1       1.467   8.869  20.239  0.00  0.00    +0.000 C 
ATOM     14  F   UNL     1       0.120   9.013  20.414  0.00  0.00    +0.000 F 
ATOM     15  F   UNL     1       2.008   8.902  21.485  0.00  0.00    +0.000 F 
ATOM     16  F   UNL     1       1.880  10.000  19.608  0.00  0.00    +0.000 F 
ENDBRANCH  10  13
ENDBRANCH   6   7
BRANCH   1  17
ATOM     17  C   UNL     1       4.853   4.243  16.092  0.00  0.00    +0.000 C 
BRANCH  17  18
ATOM     18  C   UNL     1       5.802   5.209  16.859  0.00  0.00    +0.000 A 
ATOM     19  C   UNL     1       6.856   4.725  17.659  0.00  0.00    +0.000 A 
ATOM     20  C   UNL     1       7.728   5.594  18.321  0.00  0.00    +0.000 A 
ATOM     21  C   UNL     1       7.567   6.966  18.176  0.00  0.00    +0.000 A 
ATOM     22 CL   UNL     1       8.639   8.041  18.988  0.00  0.00    +0.000 Cl
ATOM     23  C   UNL     1       6.540   7.468  17.382  0.00  0.00    +0.000 A 
ATOM     24  C   UNL     1       5.658   6.598  16.729  0.00  0.00    +0.000 A 
ENDBRANCH  17  18
BRANCH  17  25
ATOM     25  C   UNL     1       5.711   3.520  14.997  0.00  0.00    +0.000 C 
BRANCH  25  26
ATOM     26  C   UNL     1       6.511   4.340  13.972  0.00  0.00    +0.000 C 
BRANCH  26  28
ATOM     27  C   UNL     1       5.249   3.318  12.069  0.00  0.00    +0.000 C 
ATOM     28  C   UNL     1       6.629   3.709  12.585  0.00  0.00    +0.000 C 
ATOM     29  C   UNL     1       7.306   4.697  11.630  0.00  0.00    +0.000 C 
ENDBRANCH  26  28
ENDBRANCH  25  26
ENDBRANCH  17  25
ENDBRANCH   1  17
BRANCH   4  30
ATOM     30  C   UNL     1       1.789   3.198  20.297  0.00  0.00    +0.000 C 
BRANCH  30  31
ATOM     31  C   UNL     1       1.994   2.677  21.701  0.00  0.00    +0.000 C 
ATOM     32  O   UNL     1       3.070   2.408  22.209  0.00  0.00    +0.000 OA
BRANCH  31  33
ATOM     33  O   UNL     1       0.815   2.560  22.375  0.00  0.00    +0.000 OA
ATOM     34  H   UNL     1       0.192   3.315  22.234  0.00  0.00    +0.000 HD
ENDBRANCH  31  33
ENDBRANCH  30  31
ENDBRANCH   4  30
TORSDOF 10
ENDMDL
MODEL 9
REMARK VINA RESULT:      -7.4      7.752     11.056
REMARK  Name = 
REMARK  12 active torsions:
REMARK  status: ('A' for Active; 'I' for Inactive)
REMARK    1  A    between atoms: C_1  and  C_2
REMARK    2  A    between atoms: C_2  and  C_3
REMARK    3  A    between atoms: C_2  and  C_4
REMARK    4  A    between atoms: C_4  and  C_5
REMARK    5  A    between atoms: C_5  and  C_6
REMARK    6  A    between atoms: C_6  and  C_7
REMARK    7  A    between atoms: C_6  and  N_14
REMARK    8  A    between atoms: C_17  and  C_18
REMARK    9  A    between atoms: C_18  and  C_19
REMARK   10  A    between atoms: C_19  and  O_21
REMARK   11  A    between atoms: C_23  and  C_24
REMARK   12  A    between atoms: C_27  and  C_28
REMARK                            x       y       z     vdW  Elec       q    Type
REMARK                         _______ _______ _______ _____ _____    ______ ____
ROOT
ATOM      1  N   UNL     1       0.547  12.271  19.202  0.00  0.00    +0.000 NA
ATOM      2  C   UNL     1       0.563  13.503  18.412  0.00  0.00    +0.000 C 
ATOM      3  C   UNL     1       1.261  14.745  19.004  0.00  0.00    +0.000 C 
ATOM      4  C   UNL     1       1.371  14.853  20.532  0.00  0.00    +0.000 C 
ATOM      5  C   UNL     1       1.533  13.452  21.128  0.00  0.00    +0.000 C 
ATOM      6  C   UNL     1       0.467  12.434  20.664  0.00  0.00    +0.000 C 
ENDROOT
BRANCH   6   7
ATOM      7  C   UNL     1      -0.925  12.684  21.250  0.00  0.00    +0.000 A 
ATOM      8  C   UNL     1      -1.919  13.352  20.530  0.00  0.00    +0.000 A 
ATOM      9  C   UNL     1      -3.246  13.399  20.922  0.00  0.00    +0.000 A 
ATOM     10  C   UNL     1      -3.608  12.892  22.158  0.00  0.00    +0.000 A 
ATOM     11  C   UNL     1      -2.607  12.353  22.980  0.00  0.00    +0.000 A 
ATOM     12  C   UNL     1      -1.283  12.227  22.522  0.00  0.00    +0.000 A 
BRANCH  10  13
ATOM     13  C   UNL     1      -5.049  12.980  22.587  0.00  0.00    +0.000 C 
ATOM     14  F   UNL     1      -5.280  12.431  23.815  0.00  0.00    +0.000 F 
ATOM     15  F   UNL     1      -5.505  14.259  22.660  0.00  0.00    +0.000 F 
ATOM     16  F   UNL     1      -5.876  12.325  21.729  0.00  0.00    +0.000 F 
ENDBRANCH  10  13
ENDBRANCH   6   7
BRANCH   1  17
ATOM     17  C   UNL     1      -0.064  11.071  18.560  0.00  0.00    +0.000 C 
BRANCH  17  18
ATOM     18  C   UNL     1       0.752   9.772  18.828  0.00  0.00    +0.000 A 
ATOM     19  C   UNL     1       1.513   9.159  17.813  0.00  0.00    +0.000 A 
ATOM     20  C   UNL     1       2.271   8.012  18.063  0.00  0.00    +0.000 A 
ATOM     21  C   UNL     1       2.293   7.471  19.342  0.00  0.00    +0.000 A 
ATOM     22 CL   UNL     1       3.227   6.059  19.655  0.00  0.00    +0.000 Cl
ATOM     23  C   UNL     1       1.558   8.066  20.363  0.00  0.00    +0.000 A 
ATOM     24  C   UNL     1       0.787   9.208  20.111  0.00  0.00    +0.000 A 
ENDBRANCH  17  18
BRANCH  17  25
ATOM     25  C   UNL     1      -1.578  10.717  18.757  0.00  0.00    +0.000 C 
BRANCH  25  26
ATOM     26  C   UNL     1      -2.275   9.733  17.803  0.00  0.00    +0.000 C 
BRANCH  26  28
ATOM     27  C   UNL     1      -4.085  11.461  17.762  0.00  0.00    +0.000 C 
ATOM     28  C   UNL     1      -3.427  10.322  16.990  0.00  0.00    +0.000 C 
ATOM     29  C   UNL     1      -2.900  10.816  15.639  0.00  0.00    +0.000 C 
ENDBRANCH  26  28
ENDBRANCH  25  26
ENDBRANCH  17  25
ENDBRANCH   1  17
BRANCH   4  30
ATOM     30  C   UNL     1       0.258  15.625  21.265  0.00  0.00    +0.000 C 
BRANCH  30  31
ATOM     31  C   UNL     1       0.433  15.799  22.757  0.00  0.00    +0.000 C 
ATOM     32  O   UNL     1       1.470  16.108  23.320  0.00  0.00    +0.000 OA
BRANCH  31  33
ATOM     33  O   UNL     1      -0.735  15.595  23.430  0.00  0.00    +0.000 OA
ATOM     34  H   UNL     1      -1.040  16.375  23.955  0.00  0.00    +0.000 HD
ENDBRANCH  31  33
ENDBRANCH  30  31
ENDBRANCH   4  30
TORSDOF 10
ENDMDL
