MODEL 1
REMARK VINA RESULT:      -7.7      0.000      0.000
REMARK  Name = 
REMARK  6 active torsions:
REMARK  status: ('A' for Active; 'I' for Inactive)
REMARK    1  A    between atoms: C_1  and  O_2
REMARK    2  A    between atoms: O_2  and  C_3
REMARK    3  A    between atoms: C_3  and  C_5
REMARK    4  A    between atoms: C_5  and  N_6
REMARK    5  A    between atoms: C_5  and  C_17
REMARK    6  A    between atoms: C_7  and  C_9
REMARK                            x       y       z     vdW  Elec       q    Type
REMARK                         _______ _______ _______ _____ _____    ______ ____
ROOT
ATOM      1  N   UNL     1       5.382   4.874  16.676  0.00  0.00    +0.000 N 
ATOM      2  C   UNL     1       6.650   4.638  16.207  0.00  0.00    +0.000 C 
ATOM      3  O   UNL     1       7.627   4.519  16.936  0.00  0.00    +0.000 OA
ATOM      4  H   UNL     1       4.605   4.954  16.037  0.00  0.00    +0.000 HD
ENDROOT
BRANCH   2   5
ATOM      5  C   UNL     1       6.799   4.558  14.729  0.00  0.00    +0.000 A 
ATOM      6  C   UNL     1       6.097   3.565  14.038  0.00  0.00    +0.000 A 
ATOM      7  C   UNL     1       6.228   3.468  12.655  0.00  0.00    +0.000 A 
ATOM      8  F   UNL     1       5.564   2.510  11.996  0.00  0.00    +0.000 F 
ATOM      9  C   UNL     1       7.036   4.346  11.946  0.00  0.00    +0.000 A 
ATOM     10  C   UNL     1       7.714   5.338  12.639  0.00  0.00    +0.000 A 
ATOM     11  F   UNL     1       8.490   6.198  11.969  0.00  0.00    +0.000 F 
ATOM     12  C   UNL     1       7.604   5.459  14.021  0.00  0.00    +0.000 A 
ENDBRANCH   2   5
BRANCH   1  13
ATOM     13  C   UNL     1       5.073   4.883  18.104  0.00  0.00    +0.000 C 
BRANCH  13  14
ATOM     14  C   UNL     1       4.015   5.928  18.372  0.00  0.00    +0.000 A 
ATOM     15  C   UNL     1       3.816   7.030  17.527  0.00  0.00    +0.000 A 
ATOM     16  C   UNL     1       2.873   7.998  17.859  0.00  0.00    +0.000 A 
ATOM     17  C   UNL     1       2.150   7.832  19.027  0.00  0.00    +0.000 A 
ATOM     18  N   UNL     1       2.303   6.781  19.861  0.00  0.00    +0.000 NA
ATOM     19  C   UNL     1       3.229   5.857  19.518  0.00  0.00    +0.000 A 
ENDBRANCH  13  14
BRANCH  13  20
ATOM     20  C   UNL     1       4.607   3.485  18.558  0.00  0.00    +0.000 C 
ATOM     21  O   UNL     1       4.912   2.960  19.624  0.00  0.00    +0.000 OA
BRANCH  20  23
ATOM     22  C   UNL     1       2.569   2.482  17.957  0.00  0.00    +0.000 C 
ATOM     23  O   UNL     1       3.884   2.882  17.568  0.00  0.00    +0.000 OA
ENDBRANCH  20  23
ENDBRANCH  13  20
ENDBRANCH   1  13
TORSDOF 5
ENDMDL
MODEL 2
REMARK VINA RESULT:      -7.6      0.305      1.777
REMARK  Name = 
REMARK  6 active torsions:
REMARK  status: ('A' for Active; 'I' for Inactive)
REMARK    1  A    between atoms: C_1  and  O_2
REMARK    2  A    between atoms: O_2  and  C_3
REMARK    3  A    between atoms: C_3  and  C_5
REMARK    4  A    between atoms: C_5  and  N_6
REMARK    5  A    between atoms: C_5  and  C_17
REMARK    6  A    between atoms: C_7  and  C_9
REMARK                            x       y       z     vdW  Elec       q    Type
REMARK                         _______ _______ _______ _____ _____    ______ ____
ROOT
ATOM      1  N   UNL     1       5.339   4.905  16.730  0.00  0.00    +0.000 N 
ATOM      2  C   UNL     1       6.609   4.721  16.242  0.00  0.00    +0.000 C 
ATOM      3  O   UNL     1       7.608   4.719  16.950  0.00  0.00    +0.000 OA
ATOM      4  H   UNL     1       4.544   4.887  16.109  0.00  0.00    +0.000 HD
ENDROOT
BRANCH   2   5
ATOM      5  C   UNL     1       6.728   4.547  14.770  0.00  0.00    +0.000 A 
ATOM      6  C   UNL     1       7.553   5.424  14.057  0.00  0.00    +0.000 A 
ATOM      7  C   UNL     1       7.673   5.283  12.677  0.00  0.00    +0.000 A 
ATOM      8  F   UNL     1       8.454   6.130  11.994  0.00  0.00    +0.000 F 
ATOM      9  C   UNL     1       6.995   4.283  11.994  0.00  0.00    +0.000 A 
ATOM     10  C   UNL     1       6.194   3.408  12.713  0.00  0.00    +0.000 A 
ATOM     11  F   UNL     1       5.542   2.431  12.071  0.00  0.00    +0.000 F 
ATOM     12  C   UNL     1       6.053   3.524  14.093  0.00  0.00    +0.000 A 
ENDBRANCH   2   5
BRANCH   1  13
ATOM     13  C   UNL     1       5.063   4.994  18.162  0.00  0.00    +0.000 C 
BRANCH  13  14
ATOM     14  C   UNL     1       3.996   6.039  18.394  0.00  0.00    +0.000 A 
ATOM     15  C   UNL     1       3.799   7.118  17.521  0.00  0.00    +0.000 A 
ATOM     16  C   UNL     1       2.847   8.088  17.819  0.00  0.00    +0.000 A 
ATOM     17  C   UNL     1       2.113   7.946  18.984  0.00  0.00    +0.000 A 
ATOM     18  N   UNL     1       2.263   6.916  19.843  0.00  0.00    +0.000 NA
ATOM     19  C   UNL     1       3.198   5.990  19.532  0.00  0.00    +0.000 A 
ENDBRANCH  13  14
BRANCH  13  20
ATOM     20  C   UNL     1       4.630   3.619  18.709  0.00  0.00    +0.000 C 
ATOM     21  O   UNL     1       5.144   3.055  19.669  0.00  0.00    +0.000 OA
BRANCH  20  23
ATOM     22  C   UNL     1       3.484   1.671  18.066  0.00  0.00    +0.000 C 
ATOM     23  O   UNL     1       3.654   3.081  17.917  0.00  0.00    +0.000 OA
ENDBRANCH  20  23
ENDBRANCH  13  20
ENDBRANCH   1  13
TORSDOF 5
ENDMDL
MODEL 3
REMARK VINA RESULT:      -7.6      1.930      3.354
REMARK  Name = 
REMARK  6 active torsions:
REMARK  status: ('A' for Active; 'I' for Inactive)
REMARK    1  A    between atoms: C_1  and  O_2
REMARK    2  A    between atoms: O_2  and  C_3
REMARK    3  A    between atoms: C_3  and  C_5
REMARK    4  A    between atoms: C_5  and  N_6
REMARK    5  A    between atoms: C_5  and  C_17
REMARK    6  A    between atoms: C_7  and  C_9
REMARK                            x       y       z     vdW  Elec       q    Type
REMARK                         _______ _______ _______ _____ _____    ______ ____
ROOT
ATOM      1  N   UNL     1       4.892   4.522  16.692  0.00  0.00    +0.000 N 
ATOM      2  C   UNL     1       5.386   5.468  15.828  0.00  0.00    +0.000 C 
ATOM      3  O   UNL     1       5.331   6.671  16.045  0.00  0.00    +0.000 OA
ATOM      4  H   UNL     1       4.970   3.539  16.475  0.00  0.00    +0.000 HD
ENDROOT
BRANCH   2   5
ATOM      5  C   UNL     1       5.982   4.956  14.565  0.00  0.00    +0.000 A 
ATOM      6  C   UNL     1       7.201   5.492  14.134  0.00  0.00    +0.000 A 
ATOM      7  C   UNL     1       7.772   5.032  12.952  0.00  0.00    +0.000 A 
ATOM      8  F   UNL     1       8.934   5.553  12.535  0.00  0.00    +0.000 F 
ATOM      9  C   UNL     1       7.160   4.044  12.193  0.00  0.00    +0.000 A 
ATOM     10  C   UNL     1       5.960   3.507  12.638  0.00  0.00    +0.000 A 
ATOM     11  F   UNL     1       5.362   2.547  11.924  0.00  0.00    +0.000 F 
ATOM     12  C   UNL     1       5.364   3.947  13.816  0.00  0.00    +0.000 A 
ENDBRANCH   2   5
BRANCH   1  13
ATOM     13  C   UNL     1       4.365   4.874  18.009  0.00  0.00    +0.000 C 
BRANCH  13  14
ATOM     14  C   UNL     1       3.095   4.092  18.256  0.00  0.00    +0.000 A 
ATOM     15  C   UNL     1       2.173   4.452  19.249  0.00  0.00    +0.000 A 
ATOM     16  C   UNL     1       1.054   3.657  19.478  0.00  0.00    +0.000 A 
ATOM     17  C   UNL     1       0.888   2.524  18.701  0.00  0.00    +0.000 A 
ATOM     18  N   UNL     1       1.745   2.150  17.727  0.00  0.00    +0.000 NA
ATOM     19  C   UNL     1       2.826   2.937  17.528  0.00  0.00    +0.000 A 
ENDBRANCH  13  14
BRANCH  13  20
ATOM     20  C   UNL     1       5.418   4.590  19.098  0.00  0.00    +0.000 C 
ATOM     21  O   UNL     1       5.523   3.532  19.710  0.00  0.00    +0.000 OA
BRANCH  20  23
ATOM     22  C   UNL     1       7.533   5.608  18.975  0.00  0.00    +0.000 C 
ATOM     23  O   UNL     1       6.157   5.713  19.346  0.00  0.00    +0.000 OA
ENDBRANCH  20  23
ENDBRANCH  13  20
ENDBRANCH   1  13
TORSDOF 5
ENDMDL
MODEL 4
REMARK VINA RESULT:      -7.5      0.923      1.269
REMARK  Name = 
REMARK  6 active torsions:
REMARK  status: ('A' for Active; 'I' for Inactive)
REMARK    1  A    between atoms: C_1  and  O_2
REMARK    2  A    between atoms: O_2  and  C_3
REMARK    3  A    between atoms: C_3  and  C_5
REMARK    4  A    between atoms: C_5  and  N_6
REMARK    5  A    between atoms: C_5  and  C_17
REMARK    6  A    between atoms: C_7  and  C_9
REMARK                            x       y       z     vdW  Elec       q    Type
REMARK                         _______ _______ _______ _____ _____    ______ ____
ROOT
ATOM      1  N   UNL     1       4.600   4.041  16.526  0.00  0.00    +0.000 N 
ATOM      2  C   UNL     1       5.934   4.239  16.274  0.00  0.00    +0.000 C 
ATOM      3  O   UNL     1       6.769   4.404  17.155  0.00  0.00    +0.000 OA
ATOM      4  H   UNL     1       3.950   3.898  15.766  0.00  0.00    +0.000 HD
ENDROOT
BRANCH   2   5
ATOM      5  C   UNL     1       6.334   4.275  14.842  0.00  0.00    +0.000 A 
ATOM      6  C   UNL     1       5.637   3.473  13.931  0.00  0.00    +0.000 A 
ATOM      7  C   UNL     1       5.999   3.487  12.587  0.00  0.00    +0.000 A 
ATOM      8  F   UNL     1       5.338   2.711  11.719  0.00  0.00    +0.000 F 
ATOM      9  C   UNL     1       7.036   4.288  12.129  0.00  0.00    +0.000 A 
ATOM     10  C   UNL     1       7.709   5.092  13.038  0.00  0.00    +0.000 A 
ATOM     11  F   UNL     1       8.704   5.879  12.611  0.00  0.00    +0.000 F 
ATOM     12  C   UNL     1       7.370   5.100  14.388  0.00  0.00    +0.000 A 
ENDBRANCH   2   5
BRANCH   1  13
ATOM     13  C   UNL     1       4.081   3.889  17.883  0.00  0.00    +0.000 C 
BRANCH  13  14
ATOM     14  C   UNL     1       3.424   5.183  18.307  0.00  0.00    +0.000 A 
ATOM     15  C   UNL     1       3.483   6.346  17.526  0.00  0.00    +0.000 A 
ATOM     16  C   UNL     1       2.919   7.528  17.996  0.00  0.00    +0.000 A 
ATOM     17  C   UNL     1       2.304   7.509  19.236  0.00  0.00    +0.000 A 
ATOM     18  N   UNL     1       2.214   6.408  20.012  0.00  0.00    +0.000 NA
ATOM     19  C   UNL     1       2.776   5.274  19.534  0.00  0.00    +0.000 A 
ENDBRANCH  13  14
BRANCH  13  20
ATOM     20  C   UNL     1       3.089   2.710  17.947  0.00  0.00    +0.000 C 
ATOM     21  O   UNL     1       1.939   2.741  17.523  0.00  0.00    +0.000 OA
BRANCH  20  23
ATOM     22  C   UNL     1       4.367   2.029  19.798  0.00  0.00    +0.000 C 
ATOM     23  O   UNL     1       3.645   1.660  18.622  0.00  0.00    +0.000 OA
ENDBRANCH  20  23
ENDBRANCH  13  20
ENDBRANCH   1  13
TORSDOF 5
ENDMDL
MODEL 5
REMARK VINA RESULT:      -7.5      0.890      2.108
REMARK  Name = 
REMARK  6 active torsions:
REMARK  status: ('A' for Active; 'I' for Inactive)
REMARK    1  A    between atoms: C_1  and  O_2
REMARK    2  A    between atoms: O_2  and  C_3
REMARK    3  A    between atoms: C_3  and  C_5
REMARK    4  A    between atoms: C_5  and  N_6
REMARK    5  A    between atoms: C_5  and  C_17
REMARK    6  A    between atoms: C_7  and  C_9
REMARK                            x       y       z     vdW  Elec       q    Type
REMARK                         _______ _______ _______ _____ _____    ______ ____
ROOT
ATOM      1  N   UNL     1       4.555   4.273  16.497  0.00  0.00    +0.000 N 
ATOM      2  C   UNL     1       5.904   4.246  16.244  0.00  0.00    +0.000 C 
ATOM      3  O   UNL     1       6.754   4.230  17.125  0.00  0.00    +0.000 OA
ATOM      4  H   UNL     1       3.891   4.275  15.737  0.00  0.00    +0.000 HD
ENDROOT
BRANCH   2   5
ATOM      5  C   UNL     1       6.304   4.270  14.812  0.00  0.00    +0.000 A 
ATOM      6  C   UNL     1       7.370   5.091  14.427  0.00  0.00    +0.000 A 
ATOM      7  C   UNL     1       7.756   5.133  13.090  0.00  0.00    +0.000 A 
ATOM      8  F   UNL     1       8.769   5.928  12.721  0.00  0.00    +0.000 F 
ATOM      9  C   UNL     1       7.108   4.368  12.130  0.00  0.00    +0.000 A 
ATOM     10  C   UNL     1       6.064   3.544  12.525  0.00  0.00    +0.000 A 
ATOM     11  F   UNL     1       5.437   2.792  11.614  0.00  0.00    +0.000 F 
ATOM     12  C   UNL     1       5.656   3.481  13.854  0.00  0.00    +0.000 A 
ENDBRANCH   2   5
BRANCH   1  13
ATOM     13  C   UNL     1       4.018   4.159  17.851  0.00  0.00    +0.000 C 
BRANCH  13  14
ATOM     14  C   UNL     1       3.374   5.471  18.236  0.00  0.00    +0.000 A 
ATOM     15  C   UNL     1       3.447   6.611  17.422  0.00  0.00    +0.000 A 
ATOM     16  C   UNL     1       2.894   7.812  17.858  0.00  0.00    +0.000 A 
ATOM     17  C   UNL     1       2.279   7.835  19.098  0.00  0.00    +0.000 A 
ATOM     18  N   UNL     1       2.177   6.758  19.905  0.00  0.00    +0.000 NA
ATOM     19  C   UNL     1       2.726   5.605  19.460  0.00  0.00    +0.000 A 
ENDBRANCH  13  14
BRANCH  13  20
ATOM     20  C   UNL     1       3.009   2.996  17.929  0.00  0.00    +0.000 C 
ATOM     21  O   UNL     1       1.840   3.060  17.563  0.00  0.00    +0.000 OA
BRANCH  20  23
ATOM     22  C   UNL     1       4.239   2.219  19.774  0.00  0.00    +0.000 C 
ATOM     23  O   UNL     1       3.577   1.917  18.545  0.00  0.00    +0.000 OA
ENDBRANCH  20  23
ENDBRANCH  13  20
ENDBRANCH   1  13
TORSDOF 5
ENDMDL
MODEL 6
REMARK VINA RESULT:      -7.4      1.063      2.081
REMARK  Name = 
REMARK  6 active torsions:
REMARK  status: ('A' for Active; 'I' for Inactive)
REMARK    1  A    between atoms: C_1  and  O_2
REMARK    2  A    between atoms: O_2  and  C_3
REMARK    3  A    between atoms: C_3  and  C_5
REMARK    4  A    between atoms: C_5  and  N_6
REMARK    5  A    between atoms: C_5  and  C_17
REMARK    6  A    between atoms: C_7  and  C_9
REMARK                            x       y       z     vdW  Elec       q    Type
REMARK                         _______ _______ _______ _____ _____    ______ ____
ROOT
ATOM      1  N   UNL     1       4.626   3.782  16.619  0.00  0.00    +0.000 N 
ATOM      2  C   UNL     1       5.914   4.146  16.318  0.00  0.00    +0.000 C 
ATOM      3  O   UNL     1       6.747   4.440  17.167  0.00  0.00    +0.000 OA
ATOM      4  H   UNL     1       3.978   3.537  15.885  0.00  0.00    +0.000 HD
ENDROOT
BRANCH   2   5
ATOM      5  C   UNL     1       6.261   4.200  14.873  0.00  0.00    +0.000 A 
ATOM      6  C   UNL     1       7.337   4.999  14.471  0.00  0.00    +0.000 A 
ATOM      7  C   UNL     1       7.674   5.069  13.122  0.00  0.00    +0.000 A 
ATOM      8  F   UNL     1       8.697   5.843  12.737  0.00  0.00    +0.000 F 
ATOM      9  C   UNL     1       6.967   4.353  12.166  0.00  0.00    +0.000 A 
ATOM     10  C   UNL     1       5.913   3.550  12.577  0.00  0.00    +0.000 A 
ATOM     11  F   UNL     1       5.229   2.845  11.669  0.00  0.00    +0.000 F 
ATOM     12  C   UNL     1       5.553   3.460  13.918  0.00  0.00    +0.000 A 
ENDBRANCH   2   5
BRANCH   1  13
ATOM     13  C   UNL     1       4.174   3.596  17.996  0.00  0.00    +0.000 C 
BRANCH  13  14
ATOM     14  C   UNL     1       3.489   4.860  18.463  0.00  0.00    +0.000 A 
ATOM     15  C   UNL     1       3.303   5.968  17.624  0.00  0.00    +0.000 A 
ATOM     16  C   UNL     1       2.728   7.131  18.127  0.00  0.00    +0.000 A 
ATOM     17  C   UNL     1       2.349   7.149  19.458  0.00  0.00    +0.000 A 
ATOM     18  N   UNL     1       2.498   6.101  20.294  0.00  0.00    +0.000 NA
ATOM     19  C   UNL     1       3.065   4.985  19.782  0.00  0.00    +0.000 A 
ENDBRANCH  13  14
BRANCH  13  20
ATOM     20  C   UNL     1       3.230   2.381  18.089  0.00  0.00    +0.000 C 
ATOM     21  O   UNL     1       3.576   1.251  18.417  0.00  0.00    +0.000 OA
BRANCH  20  23
ATOM     22  C   UNL     1       0.929   2.353  18.569  0.00  0.00    +0.000 C 
ATOM     23  O   UNL     1       1.975   2.722  17.668  0.00  0.00    +0.000 OA
ENDBRANCH  20  23
ENDBRANCH  13  20
ENDBRANCH   1  13
TORSDOF 5
ENDMDL
MODEL 7
REMARK VINA RESULT:      -7.4      1.961      2.901
REMARK  Name = 
REMARK  6 active torsions:
REMARK  status: ('A' for Active; 'I' for Inactive)
REMARK    1  A    between atoms: C_1  and  O_2
REMARK    2  A    between atoms: O_2  and  C_3
REMARK    3  A    between atoms: C_3  and  C_5
REMARK    4  A    between atoms: C_5  and  N_6
REMARK    5  A    between atoms: C_5  and  C_17
REMARK    6  A    between atoms: C_7  and  C_9
REMARK                            x       y       z     vdW  Elec       q    Type
REMARK                         _______ _______ _______ _____ _____    ______ ____
ROOT
ATOM      1  N   UNL     1       4.940   4.495  16.808  0.00  0.00    +0.000 N 
ATOM      2  C   UNL     1       5.285   5.467  15.902  0.00  0.00    +0.000 C 
ATOM      3  O   UNL     1       5.059   6.658  16.073  0.00  0.00    +0.000 OA
ATOM      4  H   UNL     1       5.157   3.526  16.628  0.00  0.00    +0.000 HD
ENDROOT
BRANCH   2   5
ATOM      5  C   UNL     1       5.938   4.996  14.652  0.00  0.00    +0.000 A 
ATOM      6  C   UNL     1       5.304   4.002  13.898  0.00  0.00    +0.000 A 
ATOM      7  C   UNL     1       5.902   3.542  12.728  0.00  0.00    +0.000 A 
ATOM      8  F   UNL     1       5.300   2.583  12.013  0.00  0.00    +0.000 F 
ATOM      9  C   UNL     1       7.114   4.057  12.289  0.00  0.00    +0.000 A 
ATOM     10  C   UNL     1       7.725   5.054  13.035  0.00  0.00    +0.000 A 
ATOM     11  F   UNL     1       8.889   5.569  12.619  0.00  0.00    +0.000 F 
ATOM     12  C   UNL     1       7.152   5.534  14.208  0.00  0.00    +0.000 A 
ENDBRANCH   2   5
BRANCH   1  13
ATOM     13  C   UNL     1       4.379   4.821  18.118  0.00  0.00    +0.000 C 
BRANCH  13  14
ATOM     14  C   UNL     1       3.094   4.047  18.308  0.00  0.00    +0.000 A 
ATOM     15  C   UNL     1       2.133   4.411  19.262  0.00  0.00    +0.000 A 
ATOM     16  C   UNL     1       1.000   3.623  19.441  0.00  0.00    +0.000 A 
ATOM     17  C   UNL     1       0.858   2.494  18.654  0.00  0.00    +0.000 A 
ATOM     18  N   UNL     1       1.753   2.117  17.716  0.00  0.00    +0.000 NA
ATOM     19  C   UNL     1       2.848   2.897  17.566  0.00  0.00    +0.000 A 
ENDBRANCH  13  14
BRANCH  13  20
ATOM     20  C   UNL     1       5.396   4.498  19.230  0.00  0.00    +0.000 C 
ATOM     21  O   UNL     1       5.517   3.404  19.771  0.00  0.00    +0.000 OA
BRANCH  20  23
ATOM     22  C   UNL     1       7.422   5.683  19.099  0.00  0.00    +0.000 C 
ATOM     23  O   UNL     1       6.080   5.626  19.587  0.00  0.00    +0.000 OA
ENDBRANCH  20  23
ENDBRANCH  13  20
ENDBRANCH   1  13
TORSDOF 5
ENDMDL
MODEL 8
REMARK VINA RESULT:      -7.4      0.646      2.044
REMARK  Name = 
REMARK  6 active torsions:
REMARK  status: ('A' for Active; 'I' for Inactive)
REMARK    1  A    between atoms: C_1  and  O_2
REMARK    2  A    between atoms: O_2  and  C_3
REMARK    3  A    between atoms: C_3  and  C_5
REMARK    4  A    between atoms: C_5  and  N_6
REMARK    5  A    between atoms: C_5  and  C_17
REMARK    6  A    between atoms: C_7  and  C_9
REMARK                            x       y       z     vdW  Elec       q    Type
REMARK                         _______ _______ _______ _____ _____    ______ ____
ROOT
ATOM      1  N   UNL     1       5.356   4.524  16.730  0.00  0.00    +0.000 N 
ATOM      2  C   UNL     1       6.599   4.795  16.213  0.00  0.00    +0.000 C 
ATOM      3  O   UNL     1       7.541   5.184  16.892  0.00  0.00    +0.000 OA
ATOM      4  H   UNL     1       4.613   4.195  16.132  0.00  0.00    +0.000 HD
ENDROOT
BRANCH   2   5
ATOM      5  C   UNL     1       6.751   4.619  14.744  0.00  0.00    +0.000 A 
ATOM      6  C   UNL     1       7.616   5.475  14.052  0.00  0.00    +0.000 A 
ATOM      7  C   UNL     1       7.767   5.332  12.676  0.00  0.00    +0.000 A 
ATOM      8  F   UNL     1       8.587   6.159  12.014  0.00  0.00    +0.000 F 
ATOM      9  C   UNL     1       7.082   4.349  11.975  0.00  0.00    +0.000 A 
ATOM     10  C   UNL     1       6.241   3.495  12.673  0.00  0.00    +0.000 A 
ATOM     11  F   UNL     1       5.581   2.535  12.013  0.00  0.00    +0.000 F 
ATOM     12  C   UNL     1       6.068   3.614  14.049  0.00  0.00    +0.000 A 
ENDBRANCH   2   5
BRANCH   1  13
ATOM     13  C   UNL     1       5.089   4.563  18.166  0.00  0.00    +0.000 C 
BRANCH  13  14
ATOM     14  C   UNL     1       4.126   5.692  18.456  0.00  0.00    +0.000 A 
ATOM     15  C   UNL     1       3.288   5.693  19.581  0.00  0.00    +0.000 A 
ATOM     16  C   UNL     1       2.372   6.725  19.763  0.00  0.00    +0.000 A 
ATOM     17  C   UNL     1       2.325   7.731  18.815  0.00  0.00    +0.000 A 
ATOM     18  N   UNL     1       3.123   7.773  17.726  0.00  0.00    +0.000 NA
ATOM     19  C   UNL     1       4.000   6.756  17.570  0.00  0.00    +0.000 A 
ENDBRANCH  13  14
BRANCH  13  20
ATOM     20  C   UNL     1       4.525   3.209  18.641  0.00  0.00    +0.000 C 
ATOM     21  O   UNL     1       4.807   2.670  19.705  0.00  0.00    +0.000 OA
BRANCH  20  23
ATOM     22  C   UNL     1       2.447   2.243  18.118  0.00  0.00    +0.000 C 
ATOM     23  O   UNL     1       3.739   2.657  17.669  0.00  0.00    +0.000 OA
ENDBRANCH  20  23
ENDBRANCH  13  20
ENDBRANCH   1  13
TORSDOF 5
ENDMDL
MODEL 9
REMARK VINA RESULT:      -7.3      3.818      6.518
REMARK  Name = 
REMARK  6 active torsions:
REMARK  status: ('A' for Active; 'I' for Inactive)
REMARK    1  A    between atoms: C_1  and  O_2
REMARK    2  A    between atoms: O_2  and  C_3
REMARK    3  A    between atoms: C_3  and  C_5
REMARK    4  A    between atoms: C_5  and  N_6
REMARK    5  A    between atoms: C_5  and  C_17
REMARK    6  A    between atoms: C_7  and  C_9
REMARK                            x       y       z     vdW  Elec       q    Type
REMARK                         _______ _______ _______ _____ _____    ______ ____
ROOT
ATOM      1  N   UNL     1       4.584   4.795  17.350  0.00  0.00    +0.000 N 
ATOM      2  C   UNL     1       3.495   5.379  17.948  0.00  0.00    +0.000 C 
ATOM      3  O   UNL     1       3.203   6.560  17.810  0.00  0.00    +0.000 OA
ATOM      4  H   UNL     1       4.779   3.814  17.484  0.00  0.00    +0.000 HD
ENDROOT
BRANCH   2   5
ATOM      5  C   UNL     1       2.676   4.497  18.822  0.00  0.00    +0.000 A 
ATOM      6  C   UNL     1       1.745   3.639  18.224  0.00  0.00    +0.000 A 
ATOM      7  C   UNL     1       0.963   2.811  19.024  0.00  0.00    +0.000 A 
ATOM      8  F   UNL     1       0.066   1.998  18.451  0.00  0.00    +0.000 F 
ATOM      9  C   UNL     1       1.094   2.813  20.406  0.00  0.00    +0.000 A 
ATOM     10  C   UNL     1       2.031   3.655  20.987  0.00  0.00    +0.000 A 
ATOM     11  F   UNL     1       2.176   3.661  22.317  0.00  0.00    +0.000 F 
ATOM     12  C   UNL     1       2.827   4.494  20.214  0.00  0.00    +0.000 A 
ENDBRANCH   2   5
BRANCH   1  13
ATOM     13  C   UNL     1       5.422   5.515  16.393  0.00  0.00    +0.000 C 
BRANCH  13  14
ATOM     14  C   UNL     1       6.495   6.268  17.147  0.00  0.00    +0.000 A 
ATOM     15  C   UNL     1       7.213   5.691  18.205  0.00  0.00    +0.000 A 
ATOM     16  C   UNL     1       8.142   6.452  18.909  0.00  0.00    +0.000 A 
ATOM     17  C   UNL     1       8.329   7.769  18.529  0.00  0.00    +0.000 A 
ATOM     18  N   UNL     1       7.668   8.357  17.509  0.00  0.00    +0.000 NA
ATOM     19  C   UNL     1       6.767   7.597  16.845  0.00  0.00    +0.000 A 
ENDBRANCH  13  14
BRANCH  13  20
ATOM     20  C   UNL     1       6.036   4.534  15.376  0.00  0.00    +0.000 C 
ATOM     21  O   UNL     1       6.002   3.312  15.476  0.00  0.00    +0.000 OA
BRANCH  20  23
ATOM     22  C   UNL     1       6.877   4.490  13.182  0.00  0.00    +0.000 C 
ATOM     23  O   UNL     1       6.699   5.219  14.397  0.00  0.00    +0.000 OA
ENDBRANCH  20  23
ENDBRANCH  13  20
ENDBRANCH   1  13
TORSDOF 5
ENDMDL
