MODEL 1
REMARK VINA RESULT:      -8.0      0.000      0.000
REMARK  Name = 
REMARK  5 active torsions:
REMARK  status: ('A' for Active; 'I' for Inactive)
REMARK    1  A    between atoms: C_1  and  C_2
REMARK    2  A    between atoms: C_2  and  N_3
REMARK    3  A    between atoms: C_2  and  C_17
REMARK    4  A    between atoms: C_4  and  C_6
REMARK    5  A    between atoms: C_15  and  O_16
REMARK                            x       y       z     vdW  Elec       q    Type
REMARK                         _______ _______ _______ _____ _____    ______ ____
ROOT
ATOM      1  N   UNL     1       3.822   6.577  18.553  0.00  0.00    +0.000 N 
ATOM      2  C   UNL     1       2.702   6.488  19.347  0.00  0.00    +0.000 C 
ATOM      3  O   UNL     1       2.327   5.435  19.853  0.00  0.00    +0.000 OA
ATOM      4  H   UNL     1       3.982   7.462  18.079  0.00  0.00    +0.000 HD
ENDROOT
BRANCH   2   5
ATOM      5  C   UNL     1       1.948   7.747  19.604  0.00  0.00    +0.000 A 
ATOM      6  C   UNL     1       1.370   7.877  20.876  0.00  0.00    +0.000 A 
ATOM      7  C   UNL     1       0.668   9.033  21.242  0.00  0.00    +0.000 A 
ATOM      8  C   UNL     1       0.124   9.168  22.528  0.00  0.00    +0.000 A 
ATOM      9  C   UNL     1      -0.564  10.325  22.890  0.00  0.00    +0.000 A 
ATOM     10  C   UNL     1      -0.720  11.356  21.967  0.00  0.00    +0.000 A 
ATOM     11  C   UNL     1      -0.188  11.232  20.682  0.00  0.00    +0.000 A 
ATOM     12  C   UNL     1       0.517  10.076  20.304  0.00  0.00    +0.000 A 
ATOM     13  C   UNL     1       1.076   9.937  19.022  0.00  0.00    +0.000 A 
ATOM     14  C   UNL     1       1.790   8.784  18.677  0.00  0.00    +0.000 A 
BRANCH  14  15
ATOM     15  O   UNL     1       2.326   8.689  17.418  0.00  0.00    +0.000 OA
ATOM     16  H   UNL     1       2.225   9.548  16.970  0.00  0.00    +0.000 HD
ENDBRANCH  14  15
ENDBRANCH   2   5
BRANCH   1  18
ATOM     17  C   UNL     1       5.694   5.193  19.268  0.00  0.00    +0.000 C 
ATOM     18  C   UNL     1       4.625   5.415  18.197  0.00  0.00    +0.000 C 
BRANCH  18  19
ATOM     19  C   UNL     1       5.228   5.521  16.774  0.00  0.00    +0.000 C 
ATOM     20  C   UNL     1       4.936   4.296  15.890  0.00  0.00    +0.000 C 
ATOM     21  C   UNL     1       5.651   4.401  14.546  0.00  0.00    +0.000 C 
ATOM     22  C   UNL     1       7.123   4.720  14.743  0.00  0.00    +0.000 C 
ATOM     23  O   UNL     1       7.260   5.934  15.477  0.00  0.00    +0.000 OA
ATOM     24  C   UNL     1       6.739   5.805  16.806  0.00  0.00    +0.000 C 
ENDBRANCH  18  19
ENDBRANCH   1  18
TORSDOF 4
ENDMDL
MODEL 2
REMARK VINA RESULT:      -7.9      1.788      2.213
REMARK  Name = 
REMARK  5 active torsions:
REMARK  status: ('A' for Active; 'I' for Inactive)
REMARK    1  A    between atoms: C_1  and  C_2
REMARK    2  A    between atoms: C_2  and  N_3
REMARK    3  A    between atoms: C_2  and  C_17
REMARK    4  A    between atoms: C_4  and  C_6
REMARK    5  A    between atoms: C_15  and  O_16
REMARK                            x       y       z     vdW  Elec       q    Type
REMARK                         _______ _______ _______ _____ _____    ______ ____
ROOT
ATOM      1  N   UNL     1       2.606   6.916  18.800  0.00  0.00    +0.000 N 
ATOM      2  C   UNL     1       2.371   8.138  18.211  0.00  0.00    +0.000 C 
ATOM      3  O   UNL     1       2.706   8.396  17.059  0.00  0.00    +0.000 OA
ATOM      4  H   UNL     1       2.406   6.837  19.794  0.00  0.00    +0.000 HD
ENDROOT
BRANCH   2   5
ATOM      5  C   UNL     1       1.657   9.160  19.027  0.00  0.00    +0.000 A 
ATOM      6  C   UNL     1       1.084   8.707  20.226  0.00  0.00    +0.000 A 
ATOM      7  C   UNL     1       0.419   9.586  21.091  0.00  0.00    +0.000 A 
ATOM      8  C   UNL     1      -0.121   9.131  22.303  0.00  0.00    +0.000 A 
ATOM      9  C   UNL     1      -0.772  10.012  23.165  0.00  0.00    +0.000 A 
ATOM     10  C   UNL     1      -0.895  11.355  22.820  0.00  0.00    +0.000 A 
ATOM     11  C   UNL     1      -0.367  11.820  21.614  0.00  0.00    +0.000 A 
ATOM     12  C   UNL     1       0.301  10.946  20.738  0.00  0.00    +0.000 A 
ATOM     13  C   UNL     1       0.856  11.395  19.527  0.00  0.00    +0.000 A 
ATOM     14  C   UNL     1       1.533  10.510  18.682  0.00  0.00    +0.000 A 
BRANCH  14  15
ATOM     15  O   UNL     1       2.066  10.988  17.512  0.00  0.00    +0.000 OA
ATOM     16  H   UNL     1       2.841  11.539  17.724  0.00  0.00    +0.000 HD
ENDBRANCH  14  15
ENDBRANCH   2   5
BRANCH   1  18
ATOM     17  C   UNL     1       2.743   4.497  18.552  0.00  0.00    +0.000 C 
ATOM     18  C   UNL     1       3.325   5.845  18.123  0.00  0.00    +0.000 C 
BRANCH  18  19
ATOM     19  C   UNL     1       4.856   5.924  18.345  0.00  0.00    +0.000 C 
ATOM     20  C   UNL     1       5.641   6.318  17.080  0.00  0.00    +0.000 C 
ATOM     21  C   UNL     1       7.146   6.265  17.324  0.00  0.00    +0.000 C 
ATOM     22  C   UNL     1       7.544   4.936  17.944  0.00  0.00    +0.000 C 
ATOM     23  O   UNL     1       6.833   4.740  19.163  0.00  0.00    +0.000 OA
ATOM     24  C   UNL     1       5.423   4.623  18.936  0.00  0.00    +0.000 C 
ENDBRANCH  18  19
ENDBRANCH   1  18
TORSDOF 4
ENDMDL
MODEL 3
REMARK VINA RESULT:      -7.7      2.774      7.308
REMARK  Name = 
REMARK  5 active torsions:
REMARK  status: ('A' for Active; 'I' for Inactive)
REMARK    1  A    between atoms: C_1  and  C_2
REMARK    2  A    between atoms: C_2  and  N_3
REMARK    3  A    between atoms: C_2  and  C_17
REMARK    4  A    between atoms: C_4  and  C_6
REMARK    5  A    between atoms: C_15  and  O_16
REMARK                            x       y       z     vdW  Elec       q    Type
REMARK                         _______ _______ _______ _____ _____    ______ ____
ROOT
ATOM      1  N   UNL     1       1.308   9.134  19.288  0.00  0.00    +0.000 N 
ATOM      2  C   UNL     1       2.062   8.521  18.314  0.00  0.00    +0.000 C 
ATOM      3  O   UNL     1       2.314   9.050  17.236  0.00  0.00    +0.000 OA
ATOM      4  H   UNL     1       1.048   8.571  20.093  0.00  0.00    +0.000 HD
ENDROOT
BRANCH   2   5
ATOM      5  C   UNL     1       2.600   7.166  18.622  0.00  0.00    +0.000 A 
ATOM      6  C   UNL     1       1.979   6.477  19.676  0.00  0.00    +0.000 A 
ATOM      7  C   UNL     1       2.377   5.182  20.033  0.00  0.00    +0.000 A 
ATOM      8  C   UNL     1       1.728   4.488  21.065  0.00  0.00    +0.000 A 
ATOM      9  C   UNL     1       2.121   3.195  21.408  0.00  0.00    +0.000 A 
ATOM     10  C   UNL     1       3.171   2.587  20.727  0.00  0.00    +0.000 A 
ATOM     11  C   UNL     1       3.830   3.269  19.701  0.00  0.00    +0.000 A 
ATOM     12  C   UNL     1       3.439   4.569  19.336  0.00  0.00    +0.000 A 
ATOM     13  C   UNL     1       4.075   5.267  18.295  0.00  0.00    +0.000 A 
ATOM     14  C   UNL     1       3.655   6.553  17.938  0.00  0.00    +0.000 A 
BRANCH  14  15
ATOM     15  O   UNL     1       4.297   7.199  16.913  0.00  0.00    +0.000 OA
ATOM     16  H   UNL     1       5.245   7.262  17.128  0.00  0.00    +0.000 HD
ENDBRANCH  14  15
ENDBRANCH   2   5
BRANCH   1  18
ATOM     17  C   UNL     1       1.070  11.350  20.269  0.00  0.00    +0.000 C 
ATOM     18  C   UNL     1       0.694  10.442  19.098  0.00  0.00    +0.000 C 
BRANCH  18  19
ATOM     19  C   UNL     1      -0.837  10.356  18.884  0.00  0.00    +0.000 C 
ATOM     20  C   UNL     1      -1.235   9.857  17.483  0.00  0.00    +0.000 C 
ATOM     21  C   UNL     1      -2.748   9.905  17.288  0.00  0.00    +0.000 C 
ATOM     22  C   UNL     1      -3.296  11.269  17.669  0.00  0.00    +0.000 C 
ATOM     23  O   UNL     1      -2.957  11.567  19.021  0.00  0.00    +0.000 OA
ATOM     24  C   UNL     1      -1.540  11.688  19.192  0.00  0.00    +0.000 C 
ENDBRANCH  18  19
ENDBRANCH   1  18
TORSDOF 4
ENDMDL
MODEL 4
REMARK VINA RESULT:      -7.5      1.845      2.920
REMARK  Name = 
REMARK  5 active torsions:
REMARK  status: ('A' for Active; 'I' for Inactive)
REMARK    1  A    between atoms: C_1  and  C_2
REMARK    2  A    between atoms: C_2  and  N_3
REMARK    3  A    between atoms: C_2  and  C_17
REMARK    4  A    between atoms: C_4  and  C_6
REMARK    5  A    between atoms: C_15  and  O_16
REMARK                            x       y       z     vdW  Elec       q    Type
REMARK                         _______ _______ _______ _____ _____    ______ ____
ROOT
ATOM      1  N   UNL     1       5.199   5.461  17.661  0.00  0.00    +0.000 N 
ATOM      2  C   UNL     1       3.976   5.070  18.156  0.00  0.00    +0.000 C 
ATOM      3  O   UNL     1       3.567   3.915  18.086  0.00  0.00    +0.000 OA
ATOM      4  H   UNL     1       5.396   6.458  17.652  0.00  0.00    +0.000 HD
ENDROOT
BRANCH   2   5
ATOM      5  C   UNL     1       3.146   6.115  18.820  0.00  0.00    +0.000 A 
ATOM      6  C   UNL     1       2.934   7.295  18.092  0.00  0.00    +0.000 A 
ATOM      7  C   UNL     1       2.142   8.332  18.602  0.00  0.00    +0.000 A 
ATOM      8  C   UNL     1       1.907   9.494  17.851  0.00  0.00    +0.000 A 
ATOM      9  C   UNL     1       1.108  10.518  18.359  0.00  0.00    +0.000 A 
ATOM     10  C   UNL     1       0.542  10.391  19.624  0.00  0.00    +0.000 A 
ATOM     11  C   UNL     1       0.772   9.242  20.384  0.00  0.00    +0.000 A 
ATOM     12  C   UNL     1       1.567   8.197  19.882  0.00  0.00    +0.000 A 
ATOM     13  C   UNL     1       1.797   7.024  20.621  0.00  0.00    +0.000 A 
ATOM     14  C   UNL     1       2.576   5.989  20.092  0.00  0.00    +0.000 A 
BRANCH  14  15
ATOM     15  O   UNL     1       2.772   4.857  20.842  0.00  0.00    +0.000 OA
ATOM     16  H   UNL     1       3.388   5.065  21.567  0.00  0.00    +0.000 HD
ENDBRANCH  14  15
ENDBRANCH   2   5
BRANCH   1  18
ATOM     17  C   UNL     1       7.487   4.630  17.571  0.00  0.00    +0.000 C 
ATOM     18  C   UNL     1       6.088   4.546  16.957  0.00  0.00    +0.000 C 
BRANCH  18  19
ATOM     19  C   UNL     1       6.100   4.786  15.427  0.00  0.00    +0.000 C 
ATOM     20  C   UNL     1       5.488   3.627  14.619  0.00  0.00    +0.000 C 
ATOM     21  C   UNL     1       5.633   3.862  13.118  0.00  0.00    +0.000 C 
ATOM     22  C   UNL     1       7.069   4.211  12.764  0.00  0.00    +0.000 C 
ATOM     23  O   UNL     1       7.480   5.365  13.493  0.00  0.00    +0.000 OA
ATOM     24  C   UNL     1       7.507   5.112  14.903  0.00  0.00    +0.000 C 
ENDBRANCH  18  19
ENDBRANCH   1  18
TORSDOF 4
ENDMDL
MODEL 5
REMARK VINA RESULT:      -7.5      1.620      2.721
REMARK  Name = 
REMARK  5 active torsions:
REMARK  status: ('A' for Active; 'I' for Inactive)
REMARK    1  A    between atoms: C_1  and  C_2
REMARK    2  A    between atoms: C_2  and  N_3
REMARK    3  A    between atoms: C_2  and  C_17
REMARK    4  A    between atoms: C_4  and  C_6
REMARK    5  A    between atoms: C_15  and  O_16
REMARK                            x       y       z     vdW  Elec       q    Type
REMARK                         _______ _______ _______ _____ _____    ______ ____
ROOT
ATOM      1  N   UNL     1       2.504   6.680  18.687  0.00  0.00    +0.000 N 
ATOM      2  C   UNL     1       2.216   8.011  18.483  0.00  0.00    +0.000 C 
ATOM      3  O   UNL     1       2.538   8.612  17.463  0.00  0.00    +0.000 OA
ATOM      4  H   UNL     1       2.309   6.302  19.610  0.00  0.00    +0.000 HD
ENDROOT
BRANCH   2   5
ATOM      5  C   UNL     1       1.460   8.715  19.556  0.00  0.00    +0.000 A 
ATOM      6  C   UNL     1       0.861   9.932  19.197  0.00  0.00    +0.000 A 
ATOM      7  C   UNL     1       0.095  10.665  20.113  0.00  0.00    +0.000 A 
ATOM      8  C   UNL     1      -0.529  11.863  19.735  0.00  0.00    +0.000 A 
ATOM      9  C   UNL     1      -1.299  12.582  20.648  0.00  0.00    +0.000 A 
ATOM     10  C   UNL     1      -1.447  12.112  21.950  0.00  0.00    +0.000 A 
ATOM     11  C   UNL     1      -0.827  10.924  22.341  0.00  0.00    +0.000 A 
ATOM     12  C   UNL     1      -0.056  10.182  21.430  0.00  0.00    +0.000 A 
ATOM     13  C   UNL     1       0.563   8.974  21.796  0.00  0.00    +0.000 A 
ATOM     14  C   UNL     1       1.310   8.244  20.865  0.00  0.00    +0.000 A 
BRANCH  14  15
ATOM     15  O   UNL     1       1.892   7.067  21.260  0.00  0.00    +0.000 OA
ATOM     16  H   UNL     1       1.389   6.706  22.012  0.00  0.00    +0.000 HD
ENDBRANCH  14  15
ENDBRANCH   2   5
BRANCH   1  18
ATOM     17  C   UNL     1       2.651   4.494  17.624  0.00  0.00    +0.000 C 
ATOM     18  C   UNL     1       3.269   5.888  17.732  0.00  0.00    +0.000 C 
BRANCH  18  19
ATOM     19  C   UNL     1       4.779   5.840  18.073  0.00  0.00    +0.000 C 
ATOM     20  C   UNL     1       5.673   6.477  16.994  0.00  0.00    +0.000 C 
ATOM     21  C   UNL     1       7.152   6.297  17.324  0.00  0.00    +0.000 C 
ATOM     22  C   UNL     1       7.459   4.843  17.643  0.00  0.00    +0.000 C 
ATOM     23  O   UNL     1       6.647   4.405  18.730  0.00  0.00    +0.000 OA
ATOM     24  C   UNL     1       5.257   4.413  18.383  0.00  0.00    +0.000 C 
ENDBRANCH  18  19
ENDBRANCH   1  18
TORSDOF 4
ENDMDL
MODEL 6
REMARK VINA RESULT:      -7.5      2.145      3.333
REMARK  Name = 
REMARK  5 active torsions:
REMARK  status: ('A' for Active; 'I' for Inactive)
REMARK    1  A    between atoms: C_1  and  C_2
REMARK    2  A    between atoms: C_2  and  N_3
REMARK    3  A    between atoms: C_2  and  C_17
REMARK    4  A    between atoms: C_4  and  C_6
REMARK    5  A    between atoms: C_15  and  O_16
REMARK                            x       y       z     vdW  Elec       q    Type
REMARK                         _______ _______ _______ _____ _____    ______ ____
ROOT
ATOM      1  N   UNL     1       3.043   6.458  19.998  0.00  0.00    +0.000 N 
ATOM      2  C   UNL     1       2.469   7.244  19.026  0.00  0.00    +0.000 C 
ATOM      3  O   UNL     1       2.599   7.021  17.826  0.00  0.00    +0.000 OA
ATOM      4  H   UNL     1       2.984   6.792  20.956  0.00  0.00    +0.000 HD
ENDROOT
BRANCH   2   5
ATOM      5  C   UNL     1       1.639   8.394  19.484  0.00  0.00    +0.000 A 
ATOM      6  C   UNL     1       1.134   8.313  20.791  0.00  0.00    +0.000 A 
ATOM      7  C   UNL     1       0.371   9.351  21.341  0.00  0.00    +0.000 A 
ATOM      8  C   UNL     1      -0.101   9.277  22.661  0.00  0.00    +0.000 A 
ATOM      9  C   UNL     1      -0.850  10.318  23.206  0.00  0.00    +0.000 A 
ATOM     10  C   UNL     1      -1.141  11.440  22.436  0.00  0.00    +0.000 A 
ATOM     11  C   UNL     1      -0.683  11.524  21.119  0.00  0.00    +0.000 A 
ATOM     12  C   UNL     1       0.083  10.488  20.557  0.00  0.00    +0.000 A 
ATOM     13  C   UNL     1       0.570  10.559  19.241  0.00  0.00    +0.000 A 
ATOM     14  C   UNL     1       1.346   9.523  18.710  0.00  0.00    +0.000 A 
BRANCH  14  15
ATOM     15  O   UNL     1       1.808   9.633  17.424  0.00  0.00    +0.000 OA
ATOM     16  H   UNL     1       1.771  10.569  17.157  0.00  0.00    +0.000 HD
ENDBRANCH  14  15
ENDBRANCH   2   5
BRANCH   1  18
ATOM     17  C   UNL     1       4.726   5.651  18.433  0.00  0.00    +0.000 C 
ATOM     18  C   UNL     1       3.906   5.327  19.683  0.00  0.00    +0.000 C 
BRANCH  18  19
ATOM     19  C   UNL     1       3.121   3.999  19.545  0.00  0.00    +0.000 C 
ATOM     20  C   UNL     1       2.933   3.544  18.087  0.00  0.00    +0.000 C 
ATOM     21  C   UNL     1       2.053   2.300  18.005  0.00  0.00    +0.000 C 
ATOM     22  C   UNL     1       0.769   2.496  18.791  0.00  0.00    +0.000 C 
ATOM     23  O   UNL     1       1.075   2.802  20.149  0.00  0.00    +0.000 OA
ATOM     24  C   UNL     1       1.762   4.054  20.263  0.00  0.00    +0.000 C 
ENDBRANCH  18  19
ENDBRANCH   1  18
TORSDOF 4
ENDMDL
MODEL 7
REMARK VINA RESULT:      -7.4      2.287      3.187
REMARK  Name = 
REMARK  5 active torsions:
REMARK  status: ('A' for Active; 'I' for Inactive)
REMARK    1  A    between atoms: C_1  and  C_2
REMARK    2  A    between atoms: C_2  and  N_3
REMARK    3  A    between atoms: C_2  and  C_17
REMARK    4  A    between atoms: C_4  and  C_6
REMARK    5  A    between atoms: C_15  and  O_16
REMARK                            x       y       z     vdW  Elec       q    Type
REMARK                         _______ _______ _______ _____ _____    ______ ____
ROOT
ATOM      1  N   UNL     1       2.849   6.565  19.944  0.00  0.00    +0.000 N 
ATOM      2  C   UNL     1       2.363   7.427  18.987  0.00  0.00    +0.000 C 
ATOM      3  O   UNL     1       2.543   7.256  17.785  0.00  0.00    +0.000 OA
ATOM      4  H   UNL     1       2.758   6.854  20.914  0.00  0.00    +0.000 HD
ENDROOT
BRANCH   2   5
ATOM      5  C   UNL     1       1.570   8.595  19.464  0.00  0.00    +0.000 A 
ATOM      6  C   UNL     1       1.028   8.491  20.754  0.00  0.00    +0.000 A 
ATOM      7  C   UNL     1       0.293   9.541  21.321  0.00  0.00    +0.000 A 
ATOM      8  C   UNL     1      -0.215   9.443  22.625  0.00  0.00    +0.000 A 
ATOM      9  C   UNL     1      -0.936  10.495  23.187  0.00  0.00    +0.000 A 
ATOM     10  C   UNL     1      -1.160  11.654  22.449  0.00  0.00    +0.000 A 
ATOM     11  C   UNL     1      -0.664  11.763  21.148  0.00  0.00    +0.000 A 
ATOM     12  C   UNL     1       0.074  10.715  20.570  0.00  0.00    +0.000 A 
ATOM     13  C   UNL     1       0.598  10.810  19.269  0.00  0.00    +0.000 A 
ATOM     14  C   UNL     1       1.344   9.760  18.723  0.00  0.00    +0.000 A 
BRANCH  14  15
ATOM     15  O   UNL     1       1.844   9.894  17.453  0.00  0.00    +0.000 OA
ATOM     16  H   UNL     1       1.547  10.746  17.088  0.00  0.00    +0.000 HD
ENDBRANCH  14  15
ENDBRANCH   2   5
BRANCH   1  18
ATOM     17  C   UNL     1       4.872   5.862  18.785  0.00  0.00    +0.000 C 
ATOM     18  C   UNL     1       3.669   5.407  19.613  0.00  0.00    +0.000 C 
BRANCH  18  19
ATOM     19  C   UNL     1       2.861   4.286  18.913  0.00  0.00    +0.000 C 
ATOM     20  C   UNL     1       1.520   3.974  19.601  0.00  0.00    +0.000 C 
ATOM     21  C   UNL     1       0.824   2.786  18.943  0.00  0.00    +0.000 C 
ATOM     22  C   UNL     1       1.774   1.608  18.817  0.00  0.00    +0.000 C 
ATOM     23  O   UNL     1       2.923   1.992  18.066  0.00  0.00    +0.000 OA
ATOM     24  C   UNL     1       3.683   2.998  18.748  0.00  0.00    +0.000 C 
ENDBRANCH  18  19
ENDBRANCH   1  18
TORSDOF 4
ENDMDL
MODEL 8
REMARK VINA RESULT:      -7.4      2.899      7.913
REMARK  Name = 
REMARK  5 active torsions:
REMARK  status: ('A' for Active; 'I' for Inactive)
REMARK    1  A    between atoms: C_1  and  C_2
REMARK    2  A    between atoms: C_2  and  N_3
REMARK    3  A    between atoms: C_2  and  C_17
REMARK    4  A    between atoms: C_4  and  C_6
REMARK    5  A    between atoms: C_15  and  O_16
REMARK                            x       y       z     vdW  Elec       q    Type
REMARK                         _______ _______ _______ _____ _____    ______ ____
ROOT
ATOM      1  N   UNL     1       0.320   9.520  19.151  0.00  0.00    +0.000 N 
ATOM      2  C   UNL     1       1.586   9.491  18.611  0.00  0.00    +0.000 C 
ATOM      3  O   UNL     1       2.119  10.477  18.112  0.00  0.00    +0.000 OA
ATOM      4  H   UNL     1      -0.085   8.629  19.425  0.00  0.00    +0.000 HD
ENDROOT
BRANCH   2   5
ATOM      5  C   UNL     1       2.322   8.197  18.672  0.00  0.00    +0.000 A 
ATOM      6  C   UNL     1       3.132   7.891  17.567  0.00  0.00    +0.000 A 
ATOM      7  C   UNL     1       3.898   6.718  17.530  0.00  0.00    +0.000 A 
ATOM      8  C   UNL     1       4.731   6.438  16.436  0.00  0.00    +0.000 A 
ATOM      9  C   UNL     1       5.499   5.275  16.409  0.00  0.00    +0.000 A 
ATOM     10  C   UNL     1       5.436   4.378  17.472  0.00  0.00    +0.000 A 
ATOM     11  C   UNL     1       4.606   4.643  18.564  0.00  0.00    +0.000 A 
ATOM     12  C   UNL     1       3.833   5.816  18.612  0.00  0.00    +0.000 A 
ATOM     13  C   UNL     1       3.005   6.111  19.708  0.00  0.00    +0.000 A 
ATOM     14  C   UNL     1       2.259   7.295  19.740  0.00  0.00    +0.000 A 
BRANCH  14  15
ATOM     15  O   UNL     1       1.468   7.550  20.830  0.00  0.00    +0.000 OA
ATOM     16  H   UNL     1       1.220   6.703  21.242  0.00  0.00    +0.000 HD
ENDBRANCH  14  15
ENDBRANCH   2   5
BRANCH   1  18
ATOM     17  C   UNL     1      -0.685  11.245  20.545  0.00  0.00    +0.000 C 
ATOM     18  C   UNL     1      -0.518  10.712  19.122  0.00  0.00    +0.000 C 
BRANCH  18  19
ATOM     19  C   UNL     1      -1.877  10.467  18.419  0.00  0.00    +0.000 C 
ATOM     20  C   UNL     1      -1.738   9.960  16.972  0.00  0.00    +0.000 C 
ATOM     21  C   UNL     1      -3.100   9.851  16.292  0.00  0.00    +0.000 C 
ATOM     22  C   UNL     1      -3.887  11.140  16.453  0.00  0.00    +0.000 C 
ATOM     23  O   UNL     1      -4.043  11.442  17.837  0.00  0.00    +0.000 OA
ATOM     24  C   UNL     1      -2.781  11.709  18.461  0.00  0.00    +0.000 C 
ENDBRANCH  18  19
ENDBRANCH   1  18
TORSDOF 4
ENDMDL
MODEL 9
REMARK VINA RESULT:      -7.4      2.979      7.781
REMARK  Name = 
REMARK  5 active torsions:
REMARK  status: ('A' for Active; 'I' for Inactive)
REMARK    1  A    between atoms: C_1  and  C_2
REMARK    2  A    between atoms: C_2  and  N_3
REMARK    3  A    between atoms: C_2  and  C_17
REMARK    4  A    between atoms: C_4  and  C_6
REMARK    5  A    between atoms: C_15  and  O_16
REMARK                            x       y       z     vdW  Elec       q    Type
REMARK                         _______ _______ _______ _____ _____    ______ ____
ROOT
ATOM      1  N   UNL     1       0.900   8.959  18.938  0.00  0.00    +0.000 N 
ATOM      2  C   UNL     1       1.892   8.257  18.293  0.00  0.00    +0.000 C 
ATOM      3  O   UNL     1       2.513   8.709  17.336  0.00  0.00    +0.000 OA
ATOM      4  H   UNL     1       0.359   8.457  19.637  0.00  0.00    +0.000 HD
ENDROOT
BRANCH   2   5
ATOM      5  C   UNL     1       2.219   6.901  18.819  0.00  0.00    +0.000 A 
ATOM      6  C   UNL     1       2.551   5.928  17.864  0.00  0.00    +0.000 A 
ATOM      7  C   UNL     1       2.910   4.628  18.245  0.00  0.00    +0.000 A 
ATOM      8  C   UNL     1       3.275   3.672  17.285  0.00  0.00    +0.000 A 
ATOM      9  C   UNL     1       3.642   2.383  17.671  0.00  0.00    +0.000 A 
ATOM     10  C   UNL     1       3.641   2.037  19.019  0.00  0.00    +0.000 A 
ATOM     11  C   UNL     1       3.275   2.978  19.984  0.00  0.00    +0.000 A 
ATOM     12  C   UNL     1       2.912   4.284  19.613  0.00  0.00    +0.000 A 
ATOM     13  C   UNL     1       2.557   5.253  20.568  0.00  0.00    +0.000 A 
ATOM     14  C   UNL     1       2.218   6.552  20.174  0.00  0.00    +0.000 A 
BRANCH  14  15
ATOM     15  O   UNL     1       1.885   7.470  21.137  0.00  0.00    +0.000 OA
ATOM     16  H   UNL     1       1.013   7.235  21.504  0.00  0.00    +0.000 HD
ENDBRANCH  14  15
ENDBRANCH   2   5
BRANCH   1  18
ATOM     17  C   UNL     1       1.118  11.344  19.378  0.00  0.00    +0.000 C 
ATOM     18  C   UNL     1       0.462  10.278  18.500  0.00  0.00    +0.000 C 
BRANCH  18  19
ATOM     19  C   UNL     1      -1.081  10.410  18.464  0.00  0.00    +0.000 C 
ATOM     20  C   UNL     1      -1.721   9.794  17.206  0.00  0.00    +0.000 C 
ATOM     21  C   UNL     1      -3.224  10.057  17.165  0.00  0.00    +0.000 C 
ATOM     22  C   UNL     1      -3.518  11.531  17.384  0.00  0.00    +0.000 C 
ATOM     23  O   UNL     1      -2.971  11.953  18.631  0.00  0.00    +0.000 OA
ATOM     24  C   UNL     1      -1.541  11.867  18.632  0.00  0.00    +0.000 C 
ENDBRANCH  18  19
ENDBRANCH   1  18
TORSDOF 4
ENDMDL
