MODEL 1
REMARK VINA RESULT:      -8.3      0.000      0.000
REMARK  Name = 
REMARK  4 active torsions:
REMARK  status: ('A' for Active; 'I' for Inactive)
REMARK    1  A    between atoms: C_1  and  C_2
REMARK    2  A    between atoms: C_2  and  C_3
REMARK    3  A    between atoms: C_12  and  C_13
REMARK    4  A    between atoms: C_18  and  C_19
REMARK                            x       y       z     vdW  Elec       q    Type
REMARK                         _______ _______ _______ _____ _____    ______ ____
ROOT
ATOM      1  C   UNL     1      -1.106  10.881  20.977  0.00  0.00    +0.000 C 
ATOM      2  C   UNL     1       0.365  10.490  21.246  0.00  0.00    +0.000 C 
ATOM      3  C   UNL     1       0.311   9.676  22.564  0.00  0.00    +0.000 C 
ATOM      4  O   UNL     1       1.183  11.618  21.589  0.00  0.00    +0.000 OA
ATOM      5  C   UNL     1       1.174  12.743  20.734  0.00  0.00    +0.000 C 
ATOM      6  C   UNL     1       1.638  12.574  19.280  0.00  0.00    +0.000 C 
ATOM      7  O   UNL     1       2.524  13.266  18.783  0.00  0.00    +0.000 OA
ATOM      8  N   UNL     1       0.911  11.658  18.532  0.00  0.00    +0.000 N 
ATOM      9  C   UNL     1       1.203  10.303  18.814  0.00  0.00    +0.000 A 
ATOM     10  C   UNL     1       1.759   9.583  17.755  0.00  0.00    +0.000 A 
ATOM     11  C   UNL     1       2.198   8.277  17.943  0.00  0.00    +0.000 A 
ATOM     12  C   UNL     1       2.124   7.667  19.201  0.00  0.00    +0.000 A 
ATOM     13  C   UNL     1       1.515   8.407  20.243  0.00  0.00    +0.000 A 
ATOM     14  C   UNL     1       1.013   9.723  20.080  0.00  0.00    +0.000 A 
ATOM     15  H   UNL     1      -0.071  11.820  18.699  0.00  0.00    +0.000 HD
ENDROOT
BRANCH  12  16
ATOM     16  C   UNL     1       2.698   6.320  19.436  0.00  0.00    +0.000 A 
ATOM     17  C   UNL     1       3.861   5.885  18.774  0.00  0.00    +0.000 A 
ATOM     18  C   UNL     1       4.372   4.600  18.976  0.00  0.00    +0.000 A 
ATOM     19 CL   UNL     1       5.782   4.105  18.122  0.00  0.00    +0.000 Cl
ATOM     20  C   UNL     1       3.752   3.716  19.852  0.00  0.00    +0.000 A 
ATOM     21  C   UNL     1       2.604   4.122  20.531  0.00  0.00    +0.000 A 
ATOM     22  C   UNL     1       2.084   5.406  20.319  0.00  0.00    +0.000 A 
BRANCH  21  23
ATOM     23  C   UNL     1       1.953   3.224  21.439  0.00  0.00    +0.000 C 
ATOM     24  N   UNL     1       1.423   2.494  22.174  0.00  0.00    +0.000 NA
ENDBRANCH  21  23
ENDBRANCH  12  16
TORSDOF 2
ENDMDL
MODEL 2
REMARK VINA RESULT:      -8.1      1.939      2.414
REMARK  Name = 
REMARK  4 active torsions:
REMARK  status: ('A' for Active; 'I' for Inactive)
REMARK    1  A    between atoms: C_1  and  C_2
REMARK    2  A    between atoms: C_2  and  C_3
REMARK    3  A    between atoms: C_12  and  C_13
REMARK    4  A    between atoms: C_18  and  C_19
REMARK                            x       y       z     vdW  Elec       q    Type
REMARK                         _______ _______ _______ _____ _____    ______ ____
ROOT
ATOM      1  C   UNL     1      -0.942  10.441  21.215  0.00  0.00    +0.000 C 
ATOM      2  C   UNL     1       0.573  10.149  21.310  0.00  0.00    +0.000 C 
ATOM      3  C   UNL     1       0.725   9.331  22.618  0.00  0.00    +0.000 C 
ATOM      4  O   UNL     1       1.348  11.329  21.568  0.00  0.00    +0.000 OA
ATOM      5  C   UNL     1       1.165  12.453  20.731  0.00  0.00    +0.000 C 
ATOM      6  C   UNL     1       1.470  12.319  19.232  0.00  0.00    +0.000 C 
ATOM      7  O   UNL     1       2.244  13.070  18.643  0.00  0.00    +0.000 OA
ATOM      8  N   UNL     1       0.724  11.357  18.563  0.00  0.00    +0.000 N 
ATOM      9  C   UNL     1       1.136  10.024  18.796  0.00  0.00    +0.000 A 
ATOM     10  C   UNL     1       1.614   9.346  17.673  0.00  0.00    +0.000 A 
ATOM     11  C   UNL     1       2.158   8.072  17.797  0.00  0.00    +0.000 A 
ATOM     12  C   UNL     1       2.270   7.456  19.050  0.00  0.00    +0.000 A 
ATOM     13  C   UNL     1       1.737   8.151  20.162  0.00  0.00    +0.000 A 
ATOM     14  C   UNL     1       1.132   9.431  20.070  0.00  0.00    +0.000 A 
ATOM     15  H   UNL     1      -0.241  11.452  18.843  0.00  0.00    +0.000 HD
ENDROOT
BRANCH  12  16
ATOM     16  C   UNL     1       2.956   6.150  19.204  0.00  0.00    +0.000 A 
ATOM     17  C   UNL     1       2.320   5.045  19.799  0.00  0.00    +0.000 A 
ATOM     18  C   UNL     1       2.989   3.831  19.973  0.00  0.00    +0.000 A 
ATOM     19 CL   UNL     1       2.176   2.517  20.732  0.00  0.00    +0.000 Cl
ATOM     20  C   UNL     1       4.303   3.674  19.547  0.00  0.00    +0.000 A 
ATOM     21  C   UNL     1       4.957   4.747  18.944  0.00  0.00    +0.000 A 
ATOM     22  C   UNL     1       4.290   5.969  18.781  0.00  0.00    +0.000 A 
BRANCH  21  23
ATOM     23  C   UNL     1       6.312   4.602  18.497  0.00  0.00    +0.000 C 
ATOM     24  N   UNL     1       7.410   4.487  18.130  0.00  0.00    +0.000 NA
ENDBRANCH  21  23
ENDBRANCH  12  16
TORSDOF 2
ENDMDL
MODEL 3
REMARK VINA RESULT:      -7.8      1.920      2.364
REMARK  Name = 
REMARK  4 active torsions:
REMARK  status: ('A' for Active; 'I' for Inactive)
REMARK    1  A    between atoms: C_1  and  C_2
REMARK    2  A    between atoms: C_2  and  C_3
REMARK    3  A    between atoms: C_12  and  C_13
REMARK    4  A    between atoms: C_18  and  C_19
REMARK                            x       y       z     vdW  Elec       q    Type
REMARK                         _______ _______ _______ _____ _____    ______ ____
ROOT
ATOM      1  C   UNL     1      -1.222  11.236  20.681  0.00  0.00    +0.000 C 
ATOM      2  C   UNL     1       0.174  10.708  21.084  0.00  0.00    +0.000 C 
ATOM      3  C   UNL     1      -0.104   9.755  22.274  0.00  0.00    +0.000 C 
ATOM      4  O   UNL     1       1.003  11.726  21.665  0.00  0.00    +0.000 OA
ATOM      5  C   UNL     1       1.175  12.940  20.960  0.00  0.00    +0.000 C 
ATOM      6  C   UNL     1       1.821  12.904  19.567  0.00  0.00    +0.000 C 
ATOM      7  O   UNL     1       2.805  13.580  19.276  0.00  0.00    +0.000 OA
ATOM      8  N   UNL     1       1.149  12.136  18.626  0.00  0.00    +0.000 N 
ATOM      9  C   UNL     1       1.320  10.739  18.774  0.00  0.00    +0.000 A 
ATOM     10  C   UNL     1       1.971  10.106  17.713  0.00  0.00    +0.000 A 
ATOM     11  C   UNL     1       2.304   8.758  17.793  0.00  0.00    +0.000 A 
ATOM     12  C   UNL     1       2.025   8.016  18.947  0.00  0.00    +0.000 A 
ATOM     13  C   UNL     1       1.326   8.675  19.986  0.00  0.00    +0.000 A 
ATOM     14  C   UNL     1       0.928  10.034  19.924  0.00  0.00    +0.000 A 
ATOM     15  H   UNL     1       0.164  12.350  18.686  0.00  0.00    +0.000 HD
ENDROOT
BRANCH  12  16
ATOM     16  C   UNL     1       2.483   6.612  19.085  0.00  0.00    +0.000 A 
ATOM     17  C   UNL     1       2.139   5.828  20.202  0.00  0.00    +0.000 A 
ATOM     18  C   UNL     1       2.606   4.518  20.339  0.00  0.00    +0.000 A 
ATOM     19 CL   UNL     1       2.180   3.609  21.738  0.00  0.00    +0.000 Cl
ATOM     20  C   UNL     1       3.415   3.944  19.365  0.00  0.00    +0.000 A 
ATOM     21  C   UNL     1       3.764   4.692  18.242  0.00  0.00    +0.000 A 
ATOM     22  C   UNL     1       3.306   6.010  18.110  0.00  0.00    +0.000 A 
BRANCH  21  23
ATOM     23  C   UNL     1       4.596   4.115  17.226  0.00  0.00    +0.000 C 
ATOM     24  N   UNL     1       5.267   3.646  16.400  0.00  0.00    +0.000 NA
ENDBRANCH  21  23
ENDBRANCH  12  16
TORSDOF 2
ENDMDL
MODEL 4
REMARK VINA RESULT:      -7.6      4.192      7.239
REMARK  Name = 
REMARK  4 active torsions:
REMARK  status: ('A' for Active; 'I' for Inactive)
REMARK    1  A    between atoms: C_1  and  C_2
REMARK    2  A    between atoms: C_2  and  C_3
REMARK    3  A    between atoms: C_12  and  C_13
REMARK    4  A    between atoms: C_18  and  C_19
REMARK                            x       y       z     vdW  Elec       q    Type
REMARK                         _______ _______ _______ _____ _____    ______ ____
ROOT
ATOM      1  C   UNL     1       5.055   4.651  15.201  0.00  0.00    +0.000 C 
ATOM      2  C   UNL     1       5.267   5.936  16.035  0.00  0.00    +0.000 C 
ATOM      3  C   UNL     1       4.726   7.073  15.131  0.00  0.00    +0.000 C 
ATOM      4  O   UNL     1       6.654   6.272  16.191  0.00  0.00    +0.000 OA
ATOM      5  C   UNL     1       7.538   5.280  16.674  0.00  0.00    +0.000 C 
ATOM      6  C   UNL     1       7.299   4.692  18.072  0.00  0.00    +0.000 C 
ATOM      7  O   UNL     1       8.166   4.684  18.944  0.00  0.00    +0.000 OA
ATOM      8  N   UNL     1       6.071   4.070  18.248  0.00  0.00    +0.000 N 
ATOM      9  C   UNL     1       4.978   4.955  18.402  0.00  0.00    +0.000 A 
ATOM     10  C   UNL     1       4.334   4.893  19.640  0.00  0.00    +0.000 A 
ATOM     11  C   UNL     1       3.324   5.795  19.955  0.00  0.00    +0.000 A 
ATOM     12  C   UNL     1       2.953   6.803  19.057  0.00  0.00    +0.000 A 
ATOM     13  C   UNL     1       3.593   6.812  17.795  0.00  0.00    +0.000 A 
ATOM     14  C   UNL     1       4.595   5.882  17.417  0.00  0.00    +0.000 A 
ATOM     15  H   UNL     1       5.898   3.477  17.450  0.00  0.00    +0.000 HD
ENDROOT
BRANCH  12  16
ATOM     16  C   UNL     1       1.961   7.839  19.433  0.00  0.00    +0.000 A 
ATOM     17  C   UNL     1       1.279   8.598  18.464  0.00  0.00    +0.000 A 
ATOM     18  C   UNL     1       0.373   9.597  18.832  0.00  0.00    +0.000 A 
ATOM     19 CL   UNL     1      -0.415  10.517  17.608  0.00  0.00    +0.000 Cl
ATOM     20  C   UNL     1       0.107   9.861  20.170  0.00  0.00    +0.000 A 
ATOM     21  C   UNL     1       0.759   9.119  21.154  0.00  0.00    +0.000 A 
ATOM     22  C   UNL     1       1.677   8.125  20.786  0.00  0.00    +0.000 A 
BRANCH  21  23
ATOM     23  C   UNL     1       0.495   9.376  22.539  0.00  0.00    +0.000 C 
ATOM     24  N   UNL     1       0.280   9.581  23.664  0.00  0.00    +0.000 NA
ENDBRANCH  21  23
ENDBRANCH  12  16
TORSDOF 2
ENDMDL
MODEL 5
REMARK VINA RESULT:      -7.4      3.911      7.424
REMARK  Name = 
REMARK  4 active torsions:
REMARK  status: ('A' for Active; 'I' for Inactive)
REMARK    1  A    between atoms: C_1  and  C_2
REMARK    2  A    between atoms: C_2  and  C_3
REMARK    3  A    between atoms: C_12  and  C_13
REMARK    4  A    between atoms: C_18  and  C_19
REMARK                            x       y       z     vdW  Elec       q    Type
REMARK                         _______ _______ _______ _____ _____    ______ ____
ROOT
ATOM      1  C   UNL     1       4.051   2.851  20.636  0.00  0.00    +0.000 C 
ATOM      2  C   UNL     1       2.659   3.432  20.301  0.00  0.00    +0.000 C 
ATOM      3  C   UNL     1       1.923   3.475  21.665  0.00  0.00    +0.000 C 
ATOM      4  O   UNL     1       1.856   2.532  19.523  0.00  0.00    +0.000 OA
ATOM      5  C   UNL     1       2.406   1.990  18.338  0.00  0.00    +0.000 C 
ATOM      6  C   UNL     1       2.818   2.944  17.208  0.00  0.00    +0.000 C 
ATOM      7  O   UNL     1       2.401   2.829  16.058  0.00  0.00    +0.000 OA
ATOM      8  N   UNL     1       3.782   3.882  17.551  0.00  0.00    +0.000 N 
ATOM      9  C   UNL     1       3.304   4.963  18.329  0.00  0.00    +0.000 A 
ATOM     10  C   UNL     1       3.388   6.216  17.719  0.00  0.00    +0.000 A 
ATOM     11  C   UNL     1       2.841   7.338  18.332  0.00  0.00    +0.000 A 
ATOM     12  C   UNL     1       2.168   7.233  19.555  0.00  0.00    +0.000 A 
ATOM     13  C   UNL     1       2.138   5.957  20.169  0.00  0.00    +0.000 A 
ATOM     14  C   UNL     1       2.723   4.799  19.598  0.00  0.00    +0.000 A 
ATOM     15  H   UNL     1       4.514   3.413  18.065  0.00  0.00    +0.000 HD
ENDROOT
BRANCH  12  16
ATOM     16  C   UNL     1       1.481   8.402  20.156  0.00  0.00    +0.000 A 
ATOM     17  C   UNL     1       1.122   8.431  21.516  0.00  0.00    +0.000 A 
ATOM     18  C   UNL     1       0.442   9.522  22.063  0.00  0.00    +0.000 A 
ATOM     19 CL   UNL     1       0.001   9.498  23.727  0.00  0.00    +0.000 Cl
ATOM     20  C   UNL     1       0.113  10.622  21.280  0.00  0.00    +0.000 A 
ATOM     21  C   UNL     1       0.464  10.628  19.931  0.00  0.00    +0.000 A 
ATOM     22  C   UNL     1       1.135   9.528  19.379  0.00  0.00    +0.000 A 
BRANCH  21  23
ATOM     23  C   UNL     1       0.135  11.755  19.108  0.00  0.00    +0.000 C 
ATOM     24  N   UNL     1      -0.130  12.671  18.442  0.00  0.00    +0.000 NA
ENDBRANCH  21  23
ENDBRANCH  12  16
TORSDOF 2
ENDMDL
MODEL 6
REMARK VINA RESULT:      -7.4      2.345      2.925
REMARK  Name = 
REMARK  4 active torsions:
REMARK  status: ('A' for Active; 'I' for Inactive)
REMARK    1  A    between atoms: C_1  and  C_2
REMARK    2  A    between atoms: C_2  and  C_3
REMARK    3  A    between atoms: C_12  and  C_13
REMARK    4  A    between atoms: C_18  and  C_19
REMARK                            x       y       z     vdW  Elec       q    Type
REMARK                         _______ _______ _______ _____ _____    ______ ____
ROOT
ATOM      1  C   UNL     1      -0.792   9.739  21.662  0.00  0.00    +0.000 C 
ATOM      2  C   UNL     1       0.729   9.794  21.387  0.00  0.00    +0.000 C 
ATOM      3  C   UNL     1       1.359   8.993  22.556  0.00  0.00    +0.000 C 
ATOM      4  O   UNL     1       1.275  11.110  21.559  0.00  0.00    +0.000 OA
ATOM      5  C   UNL     1       0.663  12.188  20.878  0.00  0.00    +0.000 C 
ATOM      6  C   UNL     1       0.623  12.169  19.343  0.00  0.00    +0.000 C 
ATOM      7  O   UNL     1       1.057  13.092  18.658  0.00  0.00    +0.000 OA
ATOM      8  N   UNL     1      -0.039  11.084  18.785  0.00  0.00    +0.000 N 
ATOM      9  C   UNL     1       0.689   9.872  18.810  0.00  0.00    +0.000 A 
ATOM     10  C   UNL     1       1.018   9.351  17.556  0.00  0.00    +0.000 A 
ATOM     11  C   UNL     1       1.834   8.229  17.450  0.00  0.00    +0.000 A 
ATOM     12  C   UNL     1       2.369   7.619  18.590  0.00  0.00    +0.000 A 
ATOM     13  C   UNL     1       1.982   8.143  19.847  0.00  0.00    +0.000 A 
ATOM     14  C   UNL     1       1.116   9.256  19.999  0.00  0.00    +0.000 A 
ATOM     15  H   UNL     1      -0.907  10.951  19.283  0.00  0.00    +0.000 HD
ENDROOT
BRANCH  12  16
ATOM     16  C   UNL     1       3.333   6.497  18.479  0.00  0.00    +0.000 A 
ATOM     17  C   UNL     1       3.175   5.309  19.216  0.00  0.00    +0.000 A 
ATOM     18  C   UNL     1       4.110   4.274  19.131  0.00  0.00    +0.000 A 
ATOM     19 CL   UNL     1       3.886   2.851  20.073  0.00  0.00    +0.000 Cl
ATOM     20  C   UNL     1       5.220   4.382  18.301  0.00  0.00    +0.000 A 
ATOM     21  C   UNL     1       5.399   5.543  17.550  0.00  0.00    +0.000 A 
ATOM     22  C   UNL     1       4.467   6.587  17.644  0.00  0.00    +0.000 A 
BRANCH  21  23
ATOM     23  C   UNL     1       6.536   5.671  16.687  0.00  0.00    +0.000 C 
ATOM     24  N   UNL     1       7.458   5.772  15.984  0.00  0.00    +0.000 NA
ENDBRANCH  21  23
ENDBRANCH  12  16
TORSDOF 2
ENDMDL
MODEL 7
REMARK VINA RESULT:      -7.2      1.747      2.938
REMARK  Name = 
REMARK  4 active torsions:
REMARK  status: ('A' for Active; 'I' for Inactive)
REMARK    1  A    between atoms: C_1  and  C_2
REMARK    2  A    between atoms: C_2  and  C_3
REMARK    3  A    between atoms: C_12  and  C_13
REMARK    4  A    between atoms: C_18  and  C_19
REMARK                            x       y       z     vdW  Elec       q    Type
REMARK                         _______ _______ _______ _____ _____    ______ ____
ROOT
ATOM      1  C   UNL     1       1.739  13.358  20.181  0.00  0.00    +0.000 C 
ATOM      2  C   UNL     1       1.178  12.222  19.295  0.00  0.00    +0.000 C 
ATOM      3  C   UNL     1       2.265  12.009  18.211  0.00  0.00    +0.000 C 
ATOM      4  O   UNL     1       0.031  12.629  18.535  0.00  0.00    +0.000 OA
ATOM      5  C   UNL     1      -1.050  13.234  19.217  0.00  0.00    +0.000 C 
ATOM      6  C   UNL     1      -1.784  12.433  20.302  0.00  0.00    +0.000 C 
ATOM      7  O   UNL     1      -3.000  12.254  20.286  0.00  0.00    +0.000 OA
ATOM      8  N   UNL     1      -0.992  12.017  21.364  0.00  0.00    +0.000 N 
ATOM      9  C   UNL     1      -0.152  10.915  21.077  0.00  0.00    +0.000 A 
ATOM     10  C   UNL     1      -0.420   9.757  21.810  0.00  0.00    +0.000 A 
ATOM     11  C   UNL     1       0.257   8.574  21.535  0.00  0.00    +0.000 A 
ATOM     12  C   UNL     1       1.196   8.508  20.498  0.00  0.00    +0.000 A 
ATOM     13  C   UNL     1       1.477   9.708  19.803  0.00  0.00    +0.000 A 
ATOM     14  C   UNL     1       0.842  10.945  20.084  0.00  0.00    +0.000 A 
ATOM     15  H   UNL     1      -0.418  12.794  21.656  0.00  0.00    +0.000 HD
ENDROOT
BRANCH  12  16
ATOM     16  C   UNL     1       1.834   7.223  20.122  0.00  0.00    +0.000 A 
ATOM     17  C   UNL     1       2.629   7.101  18.967  0.00  0.00    +0.000 A 
ATOM     18  C   UNL     1       3.194   5.876  18.603  0.00  0.00    +0.000 A 
ATOM     19 CL   UNL     1       4.136   5.772  17.165  0.00  0.00    +0.000 Cl
ATOM     20  C   UNL     1       3.001   4.741  19.382  0.00  0.00    +0.000 A 
ATOM     21  C   UNL     1       2.227   4.833  20.538  0.00  0.00    +0.000 A 
ATOM     22  C   UNL     1       1.649   6.059  20.897  0.00  0.00    +0.000 A 
BRANCH  21  23
ATOM     23  C   UNL     1       2.018   3.673  21.355  0.00  0.00    +0.000 C 
ATOM     24  N   UNL     1       1.849   2.735  22.022  0.00  0.00    +0.000 NA
ENDBRANCH  21  23
ENDBRANCH  12  16
TORSDOF 2
ENDMDL
MODEL 8
REMARK VINA RESULT:      -7.1      2.228      3.593
REMARK  Name = 
REMARK  4 active torsions:
REMARK  status: ('A' for Active; 'I' for Inactive)
REMARK    1  A    between atoms: C_1  and  C_2
REMARK    2  A    between atoms: C_2  and  C_3
REMARK    3  A    between atoms: C_12  and  C_13
REMARK    4  A    between atoms: C_18  and  C_19
REMARK                            x       y       z     vdW  Elec       q    Type
REMARK                         _______ _______ _______ _____ _____    ______ ____
ROOT
ATOM      1  C   UNL     1      -0.399  13.486  19.952  0.00  0.00    +0.000 C 
ATOM      2  C   UNL     1      -1.018  12.076  19.815  0.00  0.00    +0.000 C 
ATOM      3  C   UNL     1      -0.906  11.753  18.303  0.00  0.00    +0.000 C 
ATOM      4  O   UNL     1      -2.434  12.069  20.049  0.00  0.00    +0.000 OA
ATOM      5  C   UNL     1      -2.925  12.654  21.239  0.00  0.00    +0.000 C 
ATOM      6  C   UNL     1      -2.480  12.073  22.589  0.00  0.00    +0.000 C 
ATOM      7  O   UNL     1      -3.279  11.703  23.446  0.00  0.00    +0.000 OA
ATOM      8  N   UNL     1      -1.111  12.097  22.819  0.00  0.00    +0.000 N 
ATOM      9  C   UNL     1      -0.378  11.110  22.119  0.00  0.00    +0.000 A 
ATOM     10  C   UNL     1       0.269  10.170  22.924  0.00  0.00    +0.000 A 
ATOM     11  C   UNL     1       0.922   9.082  22.353  0.00  0.00    +0.000 A 
ATOM     12  C   UNL     1       0.917   8.887  20.967  0.00  0.00    +0.000 A 
ATOM     13  C   UNL     1       0.291   9.880  20.176  0.00  0.00    +0.000 A 
ATOM     14  C   UNL     1      -0.345  11.027  20.717  0.00  0.00    +0.000 A 
ATOM     15  H   UNL     1      -0.761  13.007  22.556  0.00  0.00    +0.000 HD
ENDROOT
BRANCH  12  16
ATOM     16  C   UNL     1       1.508   7.669  20.361  0.00  0.00    +0.000 A 
ATOM     17  C   UNL     1       2.326   7.732  19.218  0.00  0.00    +0.000 A 
ATOM     18  C   UNL     1       2.847   6.574  18.635  0.00  0.00    +0.000 A 
ATOM     19 CL   UNL     1       3.820   6.703  17.220  0.00  0.00    +0.000 Cl
ATOM     20  C   UNL     1       2.585   5.322  19.179  0.00  0.00    +0.000 A 
ATOM     21  C   UNL     1       1.786   5.227  20.318  0.00  0.00    +0.000 A 
ATOM     22  C   UNL     1       1.253   6.388  20.896  0.00  0.00    +0.000 A 
BRANCH  21  23
ATOM     23  C   UNL     1       1.507   3.944  20.894  0.00  0.00    +0.000 C 
ATOM     24  N   UNL     1       1.283   2.904  21.364  0.00  0.00    +0.000 NA
ENDBRANCH  21  23
ENDBRANCH  12  16
TORSDOF 2
ENDMDL
MODEL 9
REMARK VINA RESULT:      -7.0      1.259      1.260
REMARK  Name = 
REMARK  4 active torsions:
REMARK  status: ('A' for Active; 'I' for Inactive)
REMARK    1  A    between atoms: C_1  and  C_2
REMARK    2  A    between atoms: C_2  and  C_3
REMARK    3  A    between atoms: C_12  and  C_13
REMARK    4  A    between atoms: C_18  and  C_19
REMARK                            x       y       z     vdW  Elec       q    Type
REMARK                         _______ _______ _______ _____ _____    ______ ____
ROOT
ATOM      1  C   UNL     1      -1.273  10.836  20.455  0.00  0.00    +0.000 C 
ATOM      2  C   UNL     1       0.108  10.300  20.894  0.00  0.00    +0.000 C 
ATOM      3  C   UNL     1      -0.218   9.236  21.973  0.00  0.00    +0.000 C 
ATOM      4  O   UNL     1       0.876  11.275  21.616  0.00  0.00    +0.000 OA
ATOM      5  C   UNL     1       1.060  12.552  21.037  0.00  0.00    +0.000 C 
ATOM      6  C   UNL     1       1.790  12.657  19.690  0.00  0.00    +0.000 C 
ATOM      7  O   UNL     1       2.772  13.376  19.523  0.00  0.00    +0.000 OA
ATOM      8  N   UNL     1       1.195  11.967  18.643  0.00  0.00    +0.000 N 
ATOM      9  C   UNL     1       1.391  10.566  18.673  0.00  0.00    +0.000 A 
ATOM     10  C   UNL     1       2.120  10.046  17.601  0.00  0.00    +0.000 A 
ATOM     11  C   UNL     1       2.480   8.702  17.579  0.00  0.00    +0.000 A 
ATOM     12  C   UNL     1       2.151   7.852  18.641  0.00  0.00    +0.000 A 
ATOM     13  C   UNL     1       1.374   8.399  19.690  0.00  0.00    +0.000 A 
ATOM     14  C   UNL     1       0.947   9.750  19.728  0.00  0.00    +0.000 A 
ATOM     15  H   UNL     1       0.203  12.156  18.660  0.00  0.00    +0.000 HD
ENDROOT
BRANCH  12  16
ATOM     16  C   UNL     1       2.633   6.450  18.679  0.00  0.00    +0.000 A 
ATOM     17  C   UNL     1       4.004   6.140  18.732  0.00  0.00    +0.000 A 
ATOM     18  C   UNL     1       4.448   4.815  18.731  0.00  0.00    +0.000 A 
ATOM     19 CL   UNL     1       6.138   4.488  18.768  0.00  0.00    +0.000 Cl
ATOM     20  C   UNL     1       3.544   3.760  18.693  0.00  0.00    +0.000 A 
ATOM     21  C   UNL     1       2.178   4.035  18.651  0.00  0.00    +0.000 A 
ATOM     22  C   UNL     1       1.732   5.364  18.640  0.00  0.00    +0.000 A 
BRANCH  21  23
ATOM     23  C   UNL     1       1.230   2.959  18.613  0.00  0.00    +0.000 C 
ATOM     24  N   UNL     1       0.460   2.088  18.580  0.00  0.00    +0.000 NA
ENDBRANCH  21  23
ENDBRANCH  12  16
TORSDOF 2
ENDMDL
