MODEL 1
REMARK VINA RESULT:      -7.7      0.000      0.000
REMARK  Name = 
REMARK  10 active torsions:
REMARK  status: ('A' for Active; 'I' for Inactive)
REMARK    1  A    between atoms: C_1  and  C_2
REMARK    2  A    between atoms: C_2  and  C_3
REMARK    3  A    between atoms: C_2  and  C_4
REMARK    4  A    between atoms: C_2  and  C_5
REMARK    5  A    between atoms: C_8  and  N_9
REMARK    6  A    between atoms: N_9  and  C_17
REMARK    7  A    between atoms: C_10  and  C_12
REMARK    8  A    between atoms: C_17  and  C_18
REMARK    9  A    between atoms: C_17  and  C_27
REMARK   10  A    between atoms: N_20  and  C_21
REMARK                            x       y       z     vdW  Elec       q    Type
REMARK                         _______ _______ _______ _____ _____    ______ ____
ROOT
ATOM      1  N   UNL     1       0.541  10.963  19.352  0.00  0.00    +0.000 N 
ATOM      2  C   UNL     1       1.221  12.195  19.307  0.00  0.00    +0.000 C 
ATOM      3  O   UNL     1       2.446  12.310  19.228  0.00  0.00    +0.000 OA
ENDROOT
BRANCH   1   7
ATOM      4  C   UNL     1       2.665   7.223  18.557  0.00  0.00    +0.000 A 
ATOM      5  C   UNL     1       2.500   8.203  17.572  0.00  0.00    +0.000 A 
ATOM      6  C   UNL     1       1.803   9.396  17.823  0.00  0.00    +0.000 A 
ATOM      7  C   UNL     1       1.252   9.700  19.074  0.00  0.00    +0.000 A 
ATOM      8  C   UNL     1       1.429   8.712  20.056  0.00  0.00    +0.000 A 
ATOM      9  C   UNL     1       2.092   7.500  19.801  0.00  0.00    +0.000 A 
BRANCH   4  11
ATOM     10  C   UNL     1       4.131   5.361  19.501  0.00  0.00    +0.000 C 
ATOM     11  C   UNL     1       3.380   5.902  18.262  0.00  0.00    +0.000 C 
ATOM     12  C   UNL     1       4.394   6.154  17.131  0.00  0.00    +0.000 C 
ATOM     13  C   UNL     1       2.401   4.792  17.820  0.00  0.00    +0.000 C 
ENDBRANCH   4  11
ENDBRANCH   1   7
BRANCH   2  14
ATOM     14  C   UNL     1       0.511  13.516  19.375  0.00  0.00    +0.000 C 
ATOM     15  C   UNL     1      -0.265  14.175  18.504  0.00  0.00    +0.000 C 
ATOM     16  C   UNL     1      -0.591  15.561  18.961  0.00  0.00    +0.000 C 
ATOM     17  C   UNL     1       0.009  15.650  20.360  0.00  0.00    +0.000 C 
ATOM     18  C   UNL     1       0.868  14.404  20.543  0.00  0.00    +0.000 C 
ENDBRANCH   2  14
BRANCH   1  19
ATOM     19  C   UNL     1      -0.802  10.855  20.007  0.00  0.00    +0.000 C 
BRANCH  19  20
ATOM     20  C   UNL     1      -1.973  11.202  19.072  0.00  0.00    +0.000 A 
ATOM     21  C   UNL     1      -2.123  10.672  17.780  0.00  0.00    +0.000 A 
ATOM     22  C   UNL     1      -3.288  10.893  17.049  0.00  0.00    +0.000 A 
ATOM     23  C   UNL     1      -4.293  11.640  17.631  0.00  0.00    +0.000 A 
ATOM     24  N   UNL     1      -4.196  12.178  18.860  0.00  0.00    +0.000 NA
ATOM     25  C   UNL     1      -3.049  11.953  19.547  0.00  0.00    +0.000 A 
ENDBRANCH  19  20
BRANCH  19  26
ATOM     26  C   UNL     1      -0.878  11.414  21.478  0.00  0.00    +0.000 C 
ATOM     27  O   UNL     1      -0.009  11.192  22.321  0.00  0.00    +0.000 OA
ATOM     28  N   UNL     1      -1.920  12.295  21.737  0.00  0.00    +0.000 N 
ATOM     29  H   UNL     1      -2.695  12.291  21.082  0.00  0.00    +0.000 HD
BRANCH  28  30
ATOM     30  C   UNL     1      -2.136  12.886  23.064  0.00  0.00    +0.000 C 
ATOM     31  C   UNL     1      -2.071  14.416  23.022  0.00  0.00    +0.000 C 
ATOM     32  C   UNL     1      -3.257  15.041  22.292  0.00  0.00    +0.000 C 
ATOM     33  C   UNL     1      -4.607  14.547  22.802  0.00  0.00    +0.000 C 
ATOM     34  C   UNL     1      -4.686  13.036  23.008  0.00  0.00    +0.000 C 
ATOM     35  C   UNL     1      -3.461  12.446  23.703  0.00  0.00    +0.000 C 
ENDBRANCH  28  30
ENDBRANCH  19  26
ENDBRANCH   1  19
TORSDOF 7
ENDMDL
MODEL 2
REMARK VINA RESULT:      -7.7      0.281      1.144
REMARK  Name = 
REMARK  10 active torsions:
REMARK  status: ('A' for Active; 'I' for Inactive)
REMARK    1  A    between atoms: C_1  and  C_2
REMARK    2  A    between atoms: C_2  and  C_3
REMARK    3  A    between atoms: C_2  and  C_4
REMARK    4  A    between atoms: C_2  and  C_5
REMARK    5  A    between atoms: C_8  and  N_9
REMARK    6  A    between atoms: N_9  and  C_17
REMARK    7  A    between atoms: C_10  and  C_12
REMARK    8  A    between atoms: C_17  and  C_18
REMARK    9  A    between atoms: C_17  and  C_27
REMARK   10  A    between atoms: N_20  and  C_21
REMARK                            x       y       z     vdW  Elec       q    Type
REMARK                         _______ _______ _______ _____ _____    ______ ____
ROOT
ATOM      1  N   UNL     1       0.658  10.785  19.291  0.00  0.00    +0.000 N 
ATOM      2  C   UNL     1       1.324  12.021  19.179  0.00  0.00    +0.000 C 
ATOM      3  O   UNL     1       2.544  12.143  19.044  0.00  0.00    +0.000 OA
ENDROOT
BRANCH   1   7
ATOM      4  C   UNL     1       2.749   7.034  18.462  0.00  0.00    +0.000 A 
ATOM      5  C   UNL     1       2.170   7.299  19.709  0.00  0.00    +0.000 A 
ATOM      6  C   UNL     1       1.514   8.510  19.980  0.00  0.00    +0.000 A 
ATOM      7  C   UNL     1       1.368   9.521  19.022  0.00  0.00    +0.000 A 
ATOM      8  C   UNL     1       1.948   9.242  17.772  0.00  0.00    +0.000 A 
ATOM      9  C   UNL     1       2.638   8.048  17.508  0.00  0.00    +0.000 A 
BRANCH   4  11
ATOM     10  C   UNL     1       4.499   5.877  17.012  0.00  0.00    +0.000 C 
ATOM     11  C   UNL     1       3.508   5.733  18.190  0.00  0.00    +0.000 C 
ATOM     12  C   UNL     1       2.476   4.644  17.847  0.00  0.00    +0.000 C 
ATOM     13  C   UNL     1       4.337   5.272  19.409  0.00  0.00    +0.000 C 
ENDBRANCH   4  11
ENDBRANCH   1   7
BRANCH   2  14
ATOM     14  C   UNL     1       0.606  13.338  19.238  0.00  0.00    +0.000 C 
ATOM     15  C   UNL     1      -0.173  13.986  18.361  0.00  0.00    +0.000 C 
ATOM     16  C   UNL     1      -0.508  15.373  18.807  0.00  0.00    +0.000 C 
ATOM     17  C   UNL     1       0.091  15.476  20.205  0.00  0.00    +0.000 C 
ATOM     18  C   UNL     1       0.957  14.237  20.398  0.00  0.00    +0.000 C 
ENDBRANCH   2  14
BRANCH   1  19
ATOM     19  C   UNL     1      -0.655  10.688  20.007  0.00  0.00    +0.000 C 
BRANCH  19  20
ATOM     20  C   UNL     1      -1.866  11.017  19.118  0.00  0.00    +0.000 A 
ATOM     21  C   UNL     1      -2.169  10.336  17.928  0.00  0.00    +0.000 A 
ATOM     22  C   UNL     1      -3.368  10.567  17.257  0.00  0.00    +0.000 A 
ATOM     23  C   UNL     1      -4.253  11.478  17.798  0.00  0.00    +0.000 A 
ATOM     24  N   UNL     1      -4.008  12.165  18.929  0.00  0.00    +0.000 NA
ATOM     25  C   UNL     1      -2.830  11.925  19.557  0.00  0.00    +0.000 A 
ENDBRANCH  19  20
BRANCH  19  26
ATOM     26  C   UNL     1      -0.667  11.272  21.469  0.00  0.00    +0.000 C 
ATOM     27  O   UNL     1       0.296  11.185  22.230  0.00  0.00    +0.000 OA
ATOM     28  N   UNL     1      -1.785  12.023  21.811  0.00  0.00    +0.000 N 
ATOM     29  H   UNL     1      -2.610  11.903  21.232  0.00  0.00    +0.000 HD
BRANCH  28  30
ATOM     30  C   UNL     1      -1.953  12.617  23.143  0.00  0.00    +0.000 C 
ATOM     31  C   UNL     1      -1.697  14.127  23.127  0.00  0.00    +0.000 C 
ATOM     32  C   UNL     1      -2.780  14.906  22.385  0.00  0.00    +0.000 C 
ATOM     33  C   UNL     1      -4.192  14.578  22.862  0.00  0.00    +0.000 C 
ATOM     34  C   UNL     1      -4.463  13.086  23.041  0.00  0.00    +0.000 C 
ATOM     35  C   UNL     1      -3.336  12.338  23.750  0.00  0.00    +0.000 C 
ENDBRANCH  28  30
ENDBRANCH  19  26
ENDBRANCH   1  19
TORSDOF 7
ENDMDL
MODEL 3
REMARK VINA RESULT:      -7.6      0.544      1.129
REMARK  Name = 
REMARK  10 active torsions:
REMARK  status: ('A' for Active; 'I' for Inactive)
REMARK    1  A    between atoms: C_1  and  C_2
REMARK    2  A    between atoms: C_2  and  C_3
REMARK    3  A    between atoms: C_2  and  C_4
REMARK    4  A    between atoms: C_2  and  C_5
REMARK    5  A    between atoms: C_8  and  N_9
REMARK    6  A    between atoms: N_9  and  C_17
REMARK    7  A    between atoms: C_10  and  C_12
REMARK    8  A    between atoms: C_17  and  C_18
REMARK    9  A    between atoms: C_17  and  C_27
REMARK   10  A    between atoms: N_20  and  C_21
REMARK                            x       y       z     vdW  Elec       q    Type
REMARK                         _______ _______ _______ _____ _____    ______ ____
ROOT
ATOM      1  N   UNL     1       0.584  10.849  19.330  0.00  0.00    +0.000 N 
ATOM      2  C   UNL     1       1.251  12.086  19.247  0.00  0.00    +0.000 C 
ATOM      3  O   UNL     1       2.473  12.211  19.131  0.00  0.00    +0.000 OA
ENDROOT
BRANCH   1   7
ATOM      4  C   UNL     1       2.716   7.115  18.527  0.00  0.00    +0.000 A 
ATOM      5  C   UNL     1       2.542   8.094  17.542  0.00  0.00    +0.000 A 
ATOM      6  C   UNL     1       1.843   9.285  17.795  0.00  0.00    +0.000 A 
ATOM      7  C   UNL     1       1.298   9.589  19.049  0.00  0.00    +0.000 A 
ATOM      8  C   UNL     1       1.483   8.602  20.032  0.00  0.00    +0.000 A 
ATOM      9  C   UNL     1       2.149   7.392  19.773  0.00  0.00    +0.000 A 
BRANCH   4  11
ATOM     10  C   UNL     1       4.433   5.933  17.057  0.00  0.00    +0.000 C 
ATOM     11  C   UNL     1       3.434   5.797  18.229  0.00  0.00    +0.000 C 
ATOM     12  C   UNL     1       2.368   4.749  17.862  0.00  0.00    +0.000 C 
ATOM     13  C   UNL     1       4.244   5.284  19.441  0.00  0.00    +0.000 C 
ENDBRANCH   4  11
ENDBRANCH   1   7
BRANCH   2  14
ATOM     14  C   UNL     1       0.532  13.402  19.318  0.00  0.00    +0.000 C 
ATOM     15  C   UNL     1      -0.289  14.034  18.467  0.00  0.00    +0.000 C 
ATOM     16  C   UNL     1      -0.608  15.427  18.907  0.00  0.00    +0.000 C 
ATOM     17  C   UNL     1       0.053  15.554  20.274  0.00  0.00    +0.000 C 
ATOM     18  C   UNL     1       0.933  14.320  20.446  0.00  0.00    +0.000 C 
ENDBRANCH   2  14
BRANCH   1  19
ATOM     19  C   UNL     1      -0.738  10.739  20.025  0.00  0.00    +0.000 C 
BRANCH  19  20
ATOM     20  C   UNL     1      -1.944  10.963  19.096  0.00  0.00    +0.000 A 
ATOM     21  C   UNL     1      -3.018  11.814  19.403  0.00  0.00    +0.000 A 
ATOM     22  C   UNL     1      -3.994  12.103  18.452  0.00  0.00    +0.000 A 
ATOM     23  C   UNL     1      -3.872  11.537  17.198  0.00  0.00    +0.000 A 
ATOM     24  N   UNL     1      -2.869  10.708  16.856  0.00  0.00    +0.000 NA
ATOM     25  C   UNL     1      -1.937  10.439  17.803  0.00  0.00    +0.000 A 
ENDBRANCH  19  20
BRANCH  19  26
ATOM     26  C   UNL     1      -0.806  11.410  21.449  0.00  0.00    +0.000 C 
ATOM     27  O   UNL     1       0.111  11.332  22.266  0.00  0.00    +0.000 OA
ATOM     28  N   UNL     1      -1.909  12.221  21.684  0.00  0.00    +0.000 N 
ATOM     29  H   UNL     1      -2.706  12.099  21.067  0.00  0.00    +0.000 HD
BRANCH  28  30
ATOM     30  C   UNL     1      -2.124  12.900  22.967  0.00  0.00    +0.000 C 
ATOM     31  C   UNL     1      -2.098  14.424  22.815  0.00  0.00    +0.000 C 
ATOM     32  C   UNL     1      -3.309  14.967  22.059  0.00  0.00    +0.000 C 
ATOM     33  C   UNL     1      -4.640  14.478  22.622  0.00  0.00    +0.000 C 
ATOM     34  C   UNL     1      -4.678  12.984  22.936  0.00  0.00    +0.000 C 
ATOM     35  C   UNL     1      -3.430  12.475  23.655  0.00  0.00    +0.000 C 
ENDBRANCH  28  30
ENDBRANCH  19  26
ENDBRANCH   1  19
TORSDOF 7
ENDMDL
MODEL 4
REMARK VINA RESULT:      -7.6      0.568      1.182
REMARK  Name = 
REMARK  10 active torsions:
REMARK  status: ('A' for Active; 'I' for Inactive)
REMARK    1  A    between atoms: C_1  and  C_2
REMARK    2  A    between atoms: C_2  and  C_3
REMARK    3  A    between atoms: C_2  and  C_4
REMARK    4  A    between atoms: C_2  and  C_5
REMARK    5  A    between atoms: C_8  and  N_9
REMARK    6  A    between atoms: N_9  and  C_17
REMARK    7  A    between atoms: C_10  and  C_12
REMARK    8  A    between atoms: C_17  and  C_18
REMARK    9  A    between atoms: C_17  and  C_27
REMARK   10  A    between atoms: N_20  and  C_21
REMARK                            x       y       z     vdW  Elec       q    Type
REMARK                         _______ _______ _______ _____ _____    ______ ____
ROOT
ATOM      1  N   UNL     1       0.641  10.764  19.336  0.00  0.00    +0.000 N 
ATOM      2  C   UNL     1       1.294  12.007  19.230  0.00  0.00    +0.000 C 
ATOM      3  O   UNL     1       2.513  12.142  19.097  0.00  0.00    +0.000 OA
ENDROOT
BRANCH   1   7
ATOM      4  C   UNL     1       2.771   7.038  18.489  0.00  0.00    +0.000 A 
ATOM      5  C   UNL     1       2.178   7.285  19.732  0.00  0.00    +0.000 A 
ATOM      6  C   UNL     1       1.509   8.488  20.009  0.00  0.00    +0.000 A 
ATOM      7  C   UNL     1       1.364   9.508  19.060  0.00  0.00    +0.000 A 
ATOM      8  C   UNL     1       1.958   9.247  17.814  0.00  0.00    +0.000 A 
ATOM      9  C   UNL     1       2.661   8.062  17.543  0.00  0.00    +0.000 A 
BRANCH   4  11
ATOM     10  C   UNL     1       4.328   5.263  19.452  0.00  0.00    +0.000 C 
ATOM     11  C   UNL     1       3.544   5.747  18.210  0.00  0.00    +0.000 C 
ATOM     12  C   UNL     1       4.535   6.025  17.067  0.00  0.00    +0.000 C 
ATOM     13  C   UNL     1       2.614   4.586  17.796  0.00  0.00    +0.000 C 
ENDBRANCH   4  11
ENDBRANCH   1   7
BRANCH   2  14
ATOM     14  C   UNL     1       0.563  13.316  19.295  0.00  0.00    +0.000 C 
ATOM     15  C   UNL     1      -0.246  13.947  18.432  0.00  0.00    +0.000 C 
ATOM     16  C   UNL     1      -0.586  15.334  18.874  0.00  0.00    +0.000 C 
ATOM     17  C   UNL     1       0.046  15.456  20.256  0.00  0.00    +0.000 C 
ATOM     18  C   UNL     1       0.932  14.229  20.438  0.00  0.00    +0.000 C 
ENDBRANCH   2  14
BRANCH   1  19
ATOM     19  C   UNL     1      -0.671  10.649  20.050  0.00  0.00    +0.000 C 
BRANCH  19  20
ATOM     20  C   UNL     1      -1.889  10.903  19.146  0.00  0.00    +0.000 A 
ATOM     21  C   UNL     1      -2.940  11.773  19.479  0.00  0.00    +0.000 A 
ATOM     22  C   UNL     1      -3.928  12.089  18.549  0.00  0.00    +0.000 A 
ATOM     23  C   UNL     1      -3.842  11.530  17.289  0.00  0.00    +0.000 A 
ATOM     24  N   UNL     1      -2.862  10.684  16.922  0.00  0.00    +0.000 NA
ATOM     25  C   UNL     1      -1.917  10.389  17.849  0.00  0.00    +0.000 A 
ENDBRANCH  19  20
BRANCH  19  26
ATOM     26  C   UNL     1      -0.710  11.288  21.489  0.00  0.00    +0.000 C 
ATOM     27  O   UNL     1       0.224  11.196  22.285  0.00  0.00    +0.000 OA
ATOM     28  N   UNL     1      -1.811  12.089  21.766  0.00  0.00    +0.000 N 
ATOM     29  H   UNL     1      -2.620  11.977  21.164  0.00  0.00    +0.000 HD
BRANCH  28  30
ATOM     30  C   UNL     1      -2.000  12.739  23.069  0.00  0.00    +0.000 C 
ATOM     31  C   UNL     1      -1.894  14.263  22.964  0.00  0.00    +0.000 C 
ATOM     32  C   UNL     1      -3.069  14.891  22.217  0.00  0.00    +0.000 C 
ATOM     33  C   UNL     1      -4.428  14.455  22.757  0.00  0.00    +0.000 C 
ATOM     34  C   UNL     1      -4.546  12.956  23.024  0.00  0.00    +0.000 C 
ATOM     35  C   UNL     1      -3.332  12.362  23.734  0.00  0.00    +0.000 C 
ENDBRANCH  28  30
ENDBRANCH  19  26
ENDBRANCH   1  19
TORSDOF 7
ENDMDL
MODEL 5
REMARK VINA RESULT:      -7.3      1.360      5.891
REMARK  Name = 
REMARK  10 active torsions:
REMARK  status: ('A' for Active; 'I' for Inactive)
REMARK    1  A    between atoms: C_1  and  C_2
REMARK    2  A    between atoms: C_2  and  C_3
REMARK    3  A    between atoms: C_2  and  C_4
REMARK    4  A    between atoms: C_2  and  C_5
REMARK    5  A    between atoms: C_8  and  N_9
REMARK    6  A    between atoms: N_9  and  C_17
REMARK    7  A    between atoms: C_10  and  C_12
REMARK    8  A    between atoms: C_17  and  C_18
REMARK    9  A    between atoms: C_17  and  C_27
REMARK   10  A    between atoms: N_20  and  C_21
REMARK                            x       y       z     vdW  Elec       q    Type
REMARK                         _______ _______ _______ _____ _____    ______ ____
ROOT
ATOM      1  N   UNL     1       0.784  11.116  19.186  0.00  0.00    +0.000 N 
ATOM      2  C   UNL     1       1.761  10.362  18.508  0.00  0.00    +0.000 C 
ATOM      3  O   UNL     1       2.542  10.826  17.673  0.00  0.00    +0.000 OA
ENDROOT
BRANCH   1   7
ATOM      4  C   UNL     1       0.780  15.485  18.981  0.00  0.00    +0.000 A 
ATOM      5  C   UNL     1      -0.139  14.710  18.265  0.00  0.00    +0.000 A 
ATOM      6  C   UNL     1      -0.127  13.307  18.317  0.00  0.00    +0.000 A 
ATOM      7  C   UNL     1       0.781  12.589  19.106  0.00  0.00    +0.000 A 
ATOM      8  C   UNL     1       1.696  13.378  19.824  0.00  0.00    +0.000 A 
ATOM      9  C   UNL     1       1.712  14.779  19.746  0.00  0.00    +0.000 A 
BRANCH   4  11
ATOM     10  C   UNL     1       1.299  17.676  20.180  0.00  0.00    +0.000 C 
ATOM     11  C   UNL     1       0.794  17.012  18.877  0.00  0.00    +0.000 C 
ATOM     12  C   UNL     1      -0.645  17.482  18.599  0.00  0.00    +0.000 C 
ATOM     13  C   UNL     1       1.714  17.514  17.742  0.00  0.00    +0.000 C 
ENDBRANCH   4  11
ENDBRANCH   1   7
BRANCH   2  14
ATOM     14  C   UNL     1       1.938   8.886  18.719  0.00  0.00    +0.000 C 
ATOM     15  C   UNL     1       1.844   8.108  19.806  0.00  0.00    +0.000 C 
ATOM     16  C   UNL     1       2.298   6.707  19.549  0.00  0.00    +0.000 C 
ATOM     17  C   UNL     1       2.590   6.672  18.053  0.00  0.00    +0.000 C 
ATOM     18  C   UNL     1       2.533   8.115  17.566  0.00  0.00    +0.000 C 
ENDBRANCH   2  14
BRANCH   1  19
ATOM     19  C   UNL     1      -0.458  10.462  19.709  0.00  0.00    +0.000 C 
BRANCH  19  20
ATOM     20  C   UNL     1      -1.654  10.553  18.746  0.00  0.00    +0.000 A 
ATOM     21  C   UNL     1      -2.783  11.355  18.977  0.00  0.00    +0.000 A 
ATOM     22  C   UNL     1      -3.754  11.524  17.992  0.00  0.00    +0.000 A 
ATOM     23  C   UNL     1      -3.571  10.888  16.780  0.00  0.00    +0.000 A 
ATOM     24  N   UNL     1      -2.514  10.101  16.510  0.00  0.00    +0.000 NA
ATOM     25  C   UNL     1      -1.588   9.949  17.490  0.00  0.00    +0.000 A 
ENDBRANCH  19  20
BRANCH  19  26
ATOM     26  C   UNL     1      -0.756  10.710  21.235  0.00  0.00    +0.000 C 
ATOM     27  O   UNL     1      -0.551   9.860  22.101  0.00  0.00    +0.000 OA
ATOM     28  N   UNL     1      -1.136  12.002  21.576  0.00  0.00    +0.000 N 
ATOM     29  H   UNL     1      -1.467  12.595  20.821  0.00  0.00    +0.000 HD
BRANCH  28  30
ATOM     30  C   UNL     1      -1.466  12.386  22.954  0.00  0.00    +0.000 C 
ATOM     31  C   UNL     1      -1.087  13.841  23.245  0.00  0.00    +0.000 C 
ATOM     32  C   UNL     1      -1.970  14.844  22.506  0.00  0.00    +0.000 C 
ATOM     33  C   UNL     1      -3.462  14.598  22.709  0.00  0.00    +0.000 C 
ATOM     34  C   UNL     1      -3.879  13.134  22.578  0.00  0.00    +0.000 C 
ATOM     35  C   UNL     1      -2.946  12.162  23.296  0.00  0.00    +0.000 C 
ENDBRANCH  28  30
ENDBRANCH  19  26
ENDBRANCH   1  19
TORSDOF 7
ENDMDL
MODEL 6
REMARK VINA RESULT:      -7.3      1.426      3.625
REMARK  Name = 
REMARK  10 active torsions:
REMARK  status: ('A' for Active; 'I' for Inactive)
REMARK    1  A    between atoms: C_1  and  C_2
REMARK    2  A    between atoms: C_2  and  C_3
REMARK    3  A    between atoms: C_2  and  C_4
REMARK    4  A    between atoms: C_2  and  C_5
REMARK    5  A    between atoms: C_8  and  N_9
REMARK    6  A    between atoms: N_9  and  C_17
REMARK    7  A    between atoms: C_10  and  C_12
REMARK    8  A    between atoms: C_17  and  C_18
REMARK    9  A    between atoms: C_17  and  C_27
REMARK   10  A    between atoms: N_20  and  C_21
REMARK                            x       y       z     vdW  Elec       q    Type
REMARK                         _______ _______ _______ _____ _____    ______ ____
ROOT
ATOM      1  N   UNL     1      -0.113  10.973  20.527  0.00  0.00    +0.000 N 
ATOM      2  C   UNL     1      -0.539  11.006  21.869  0.00  0.00    +0.000 C 
ATOM      3  O   UNL     1      -0.467  10.049  22.644  0.00  0.00    +0.000 OA
ENDROOT
BRANCH   1   7
ATOM      4  C   UNL     1       2.202   7.600  18.980  0.00  0.00    +0.000 A 
ATOM      5  C   UNL     1       1.735   7.634  20.298  0.00  0.00    +0.000 A 
ATOM      6  C   UNL     1       1.007   8.724  20.800  0.00  0.00    +0.000 A 
ATOM      7  C   UNL     1       0.674   9.835  20.015  0.00  0.00    +0.000 A 
ATOM      8  C   UNL     1       1.143   9.788  18.691  0.00  0.00    +0.000 A 
ATOM      9  C   UNL     1       1.904   8.717  18.195  0.00  0.00    +0.000 A 
BRANCH   4  11
ATOM     10  C   UNL     1       3.842   5.742  19.583  0.00  0.00    +0.000 C 
ATOM     11  C   UNL     1       3.040   6.431  18.455  0.00  0.00    +0.000 C 
ATOM     12  C   UNL     1       4.022   6.985  17.407  0.00  0.00    +0.000 C 
ATOM     13  C   UNL     1       2.172   5.336  17.798  0.00  0.00    +0.000 C 
ENDBRANCH   4  11
ENDBRANCH   1   7
BRANCH   2  14
ATOM     14  C   UNL     1      -1.157  12.222  22.495  0.00  0.00    +0.000 C 
ATOM     15  C   UNL     1      -0.678  13.444  22.769  0.00  0.00    +0.000 C 
ATOM     16  C   UNL     1      -1.631  14.265  23.578  0.00  0.00    +0.000 C 
ATOM     17  C   UNL     1      -2.884  13.402  23.676  0.00  0.00    +0.000 C 
ATOM     18  C   UNL     1      -2.507  12.026  23.139  0.00  0.00    +0.000 C 
ENDBRANCH   2  14
BRANCH   1  19
ATOM     19  C   UNL     1      -0.720  11.891  19.510  0.00  0.00    +0.000 C 
BRANCH  19  20
ATOM     20  C   UNL     1      -1.528  11.159  18.426  0.00  0.00    +0.000 A 
ATOM     21  C   UNL     1      -2.326  10.030  18.675  0.00  0.00    +0.000 A 
ATOM     22  C   UNL     1      -3.164   9.514  17.689  0.00  0.00    +0.000 A 
ATOM     23  C   UNL     1      -3.194  10.148  16.462  0.00  0.00    +0.000 A 
ATOM     24  N   UNL     1      -2.444  11.225  16.167  0.00  0.00    +0.000 NA
ATOM     25  C   UNL     1      -1.632  11.702  17.145  0.00  0.00    +0.000 A 
ENDBRANCH  19  20
BRANCH  19  26
ATOM     26  C   UNL     1       0.207  13.070  19.031  0.00  0.00    +0.000 C 
ATOM     27  O   UNL     1       1.227  12.888  18.366  0.00  0.00    +0.000 OA
ATOM     28  N   UNL     1      -0.266  14.352  19.280  0.00  0.00    +0.000 N 
ATOM     29  H   UNL     1      -0.995  14.442  19.982  0.00  0.00    +0.000 HD
BRANCH  28  30
ATOM     30  C   UNL     1       0.491  15.554  18.911  0.00  0.00    +0.000 C 
ATOM     31  C   UNL     1      -0.409  16.623  18.284  0.00  0.00    +0.000 C 
ATOM     32  C   UNL     1      -1.371  17.253  19.288  0.00  0.00    +0.000 C 
ATOM     33  C   UNL     1      -0.678  17.766  20.546  0.00  0.00    +0.000 C 
ATOM     34  C   UNL     1       0.347  16.800  21.137  0.00  0.00    +0.000 C 
ATOM     35  C   UNL     1       1.261  16.160  20.093  0.00  0.00    +0.000 C 
ENDBRANCH  28  30
ENDBRANCH  19  26
ENDBRANCH   1  19
TORSDOF 7
ENDMDL
MODEL 7
REMARK VINA RESULT:      -7.3      1.421      3.593
REMARK  Name = 
REMARK  10 active torsions:
REMARK  status: ('A' for Active; 'I' for Inactive)
REMARK    1  A    between atoms: C_1  and  C_2
REMARK    2  A    between atoms: C_2  and  C_3
REMARK    3  A    between atoms: C_2  and  C_4
REMARK    4  A    between atoms: C_2  and  C_5
REMARK    5  A    between atoms: C_8  and  N_9
REMARK    6  A    between atoms: N_9  and  C_17
REMARK    7  A    between atoms: C_10  and  C_12
REMARK    8  A    between atoms: C_17  and  C_18
REMARK    9  A    between atoms: C_17  and  C_27
REMARK   10  A    between atoms: N_20  and  C_21
REMARK                            x       y       z     vdW  Elec       q    Type
REMARK                         _______ _______ _______ _____ _____    ______ ____
ROOT
ATOM      1  N   UNL     1      -0.159  11.029  20.481  0.00  0.00    +0.000 N 
ATOM      2  C   UNL     1      -0.558  11.066  21.831  0.00  0.00    +0.000 C 
ATOM      3  O   UNL     1      -0.446  10.120  22.615  0.00  0.00    +0.000 OA
ENDROOT
BRANCH   1   7
ATOM      4  C   UNL     1       2.235   7.692  18.977  0.00  0.00    +0.000 A 
ATOM      5  C   UNL     1       1.919   8.795  18.176  0.00  0.00    +0.000 A 
ATOM      6  C   UNL     1       1.136   9.858  18.654  0.00  0.00    +0.000 A 
ATOM      7  C   UNL     1       0.643   9.904  19.964  0.00  0.00    +0.000 A 
ATOM      8  C   UNL     1       0.972   8.794  20.760  0.00  0.00    +0.000 A 
ATOM      9  C   UNL     1       1.722   7.710  20.276  0.00  0.00    +0.000 A 
BRANCH   4  11
ATOM     10  C   UNL     1       4.065   6.956  17.359  0.00  0.00    +0.000 C 
ATOM     11  C   UNL     1       3.045   6.512  18.433  0.00  0.00    +0.000 C 
ATOM     12  C   UNL     1       2.060   5.510  17.806  0.00  0.00    +0.000 C 
ATOM     13  C   UNL     1       3.852   5.797  19.539  0.00  0.00    +0.000 C 
ENDBRANCH   4  11
ENDBRANCH   1   7
BRANCH   2  14
ATOM     14  C   UNL     1      -1.191  12.275  22.457  0.00  0.00    +0.000 C 
ATOM     15  C   UNL     1      -0.727  13.502  22.730  0.00  0.00    +0.000 C 
ATOM     16  C   UNL     1      -1.690  14.311  23.540  0.00  0.00    +0.000 C 
ATOM     17  C   UNL     1      -2.931  13.432  23.641  0.00  0.00    +0.000 C 
ATOM     18  C   UNL     1      -2.537  12.061  23.104  0.00  0.00    +0.000 C 
ENDBRANCH   2  14
BRANCH   1  19
ATOM     19  C   UNL     1      -0.809  11.921  19.468  0.00  0.00    +0.000 C 
BRANCH  19  20
ATOM     20  C   UNL     1      -1.594  11.157  18.388  0.00  0.00    +0.000 A 
ATOM     21  C   UNL     1      -2.387  10.028  18.651  0.00  0.00    +0.000 A 
ATOM     22  C   UNL     1      -3.204   9.482  17.664  0.00  0.00    +0.000 A 
ATOM     23  C   UNL     1      -3.219  10.085  16.422  0.00  0.00    +0.000 A 
ATOM     24  N   UNL     1      -2.472  11.161  16.114  0.00  0.00    +0.000 NA
ATOM     25  C   UNL     1      -1.681  11.668  17.093  0.00  0.00    +0.000 A 
ENDBRANCH  19  20
BRANCH  19  26
ATOM     26  C   UNL     1       0.067  13.136  18.983  0.00  0.00    +0.000 C 
ATOM     27  O   UNL     1       1.126  12.993  18.373  0.00  0.00    +0.000 OA
ATOM     28  N   UNL     1      -0.495  14.395  19.158  0.00  0.00    +0.000 N 
ATOM     29  H   UNL     1      -1.260  14.466  19.822  0.00  0.00    +0.000 HD
BRANCH  28  30
ATOM     30  C   UNL     1       0.206  15.627  18.774  0.00  0.00    +0.000 C 
ATOM     31  C   UNL     1      -0.770  16.778  18.515  0.00  0.00    +0.000 C 
ATOM     32  C   UNL     1      -1.448  17.281  19.788  0.00  0.00    +0.000 C 
ATOM     33  C   UNL     1      -0.461  17.618  20.902  0.00  0.00    +0.000 C 
ATOM     34  C   UNL     1       0.632  16.571  21.110  0.00  0.00    +0.000 C 
ATOM     35  C   UNL     1       1.252  16.064  19.810  0.00  0.00    +0.000 C 
ENDBRANCH  28  30
ENDBRANCH  19  26
ENDBRANCH   1  19
TORSDOF 7
ENDMDL
MODEL 8
REMARK VINA RESULT:      -7.3      1.207      5.868
REMARK  Name = 
REMARK  10 active torsions:
REMARK  status: ('A' for Active; 'I' for Inactive)
REMARK    1  A    between atoms: C_1  and  C_2
REMARK    2  A    between atoms: C_2  and  C_3
REMARK    3  A    between atoms: C_2  and  C_4
REMARK    4  A    between atoms: C_2  and  C_5
REMARK    5  A    between atoms: C_8  and  N_9
REMARK    6  A    between atoms: N_9  and  C_17
REMARK    7  A    between atoms: C_10  and  C_12
REMARK    8  A    between atoms: C_17  and  C_18
REMARK    9  A    between atoms: C_17  and  C_27
REMARK   10  A    between atoms: N_20  and  C_21
REMARK                            x       y       z     vdW  Elec       q    Type
REMARK                         _______ _______ _______ _____ _____    ______ ____
ROOT
ATOM      1  N   UNL     1       0.740  11.312  19.304  0.00  0.00    +0.000 N 
ATOM      2  C   UNL     1       1.728  10.568  18.630  0.00  0.00    +0.000 C 
ATOM      3  O   UNL     1       2.529  11.047  17.823  0.00  0.00    +0.000 OA
ENDROOT
BRANCH   1   7
ATOM      4  C   UNL     1       0.763  15.684  19.202  0.00  0.00    +0.000 A 
ATOM      5  C   UNL     1      -0.101  14.930  18.400  0.00  0.00    +0.000 A 
ATOM      6  C   UNL     1      -0.096  13.526  18.420  0.00  0.00    +0.000 A 
ATOM      7  C   UNL     1       0.747  12.786  19.258  0.00  0.00    +0.000 A 
ATOM      8  C   UNL     1       1.606  13.554  20.063  0.00  0.00    +0.000 A 
ATOM      9  C   UNL     1       1.632  14.957  20.019  0.00  0.00    +0.000 A 
BRANCH   4  11
ATOM     10  C   UNL     1      -0.634  17.819  19.186  0.00  0.00    +0.000 C 
ATOM     11  C   UNL     1       0.788  17.213  19.136  0.00  0.00    +0.000 C 
ATOM     12  C   UNL     1       1.460  17.620  17.812  0.00  0.00    +0.000 C 
ATOM     13  C   UNL     1       1.575  17.837  20.309  0.00  0.00    +0.000 C 
ENDBRANCH   4  11
ENDBRANCH   1   7
BRANCH   2  14
ATOM     14  C   UNL     1       1.892   9.086  18.810  0.00  0.00    +0.000 C 
ATOM     15  C   UNL     1       1.793   8.286  19.881  0.00  0.00    +0.000 C 
ATOM     16  C   UNL     1       2.235   6.887  19.594  0.00  0.00    +0.000 C 
ATOM     17  C   UNL     1       2.523   6.881  18.097  0.00  0.00    +0.000 C 
ATOM     18  C   UNL     1       2.478   8.335  17.640  0.00  0.00    +0.000 C 
ENDBRANCH   2  14
BRANCH   1  19
ATOM     19  C   UNL     1      -0.517  10.653  19.784  0.00  0.00    +0.000 C 
BRANCH  19  20
ATOM     20  C   UNL     1      -1.692  10.778  18.800  0.00  0.00    +0.000 A 
ATOM     21  C   UNL     1      -1.793  10.042  17.608  0.00  0.00    +0.000 A 
ATOM     22  C   UNL     1      -2.958  10.075  16.844  0.00  0.00    +0.000 A 
ATOM     23  C   UNL     1      -4.012  10.845  17.295  0.00  0.00    +0.000 A 
ATOM     24  N   UNL     1      -3.964  11.576  18.424  0.00  0.00    +0.000 NA
ATOM     25  C   UNL     1      -2.815  11.530  19.144  0.00  0.00    +0.000 A 
ENDBRANCH  19  20
BRANCH  19  26
ATOM     26  C   UNL     1      -0.843  10.862  21.310  0.00  0.00    +0.000 C 
ATOM     27  O   UNL     1      -0.670   9.984  22.156  0.00  0.00    +0.000 OA
ATOM     28  N   UNL     1      -1.212  12.150  21.680  0.00  0.00    +0.000 N 
ATOM     29  H   UNL     1      -1.519  12.768  20.935  0.00  0.00    +0.000 HD
BRANCH  28  30
ATOM     30  C   UNL     1      -1.565  12.499  23.061  0.00  0.00    +0.000 C 
ATOM     31  C   UNL     1      -1.203  13.950  23.390  0.00  0.00    +0.000 C 
ATOM     32  C   UNL     1      -2.083  14.963  22.661  0.00  0.00    +0.000 C 
ATOM     33  C   UNL     1      -3.576  14.700  22.836  0.00  0.00    +0.000 C 
ATOM     34  C   UNL     1      -3.980  13.237  22.665  0.00  0.00    +0.000 C 
ATOM     35  C   UNL     1      -3.049  12.256  23.376  0.00  0.00    +0.000 C 
ENDBRANCH  28  30
ENDBRANCH  19  26
ENDBRANCH   1  19
TORSDOF 7
ENDMDL
MODEL 9
REMARK VINA RESULT:      -7.2      1.219      5.891
REMARK  Name = 
REMARK  10 active torsions:
REMARK  status: ('A' for Active; 'I' for Inactive)
REMARK    1  A    between atoms: C_1  and  C_2
REMARK    2  A    between atoms: C_2  and  C_3
REMARK    3  A    between atoms: C_2  and  C_4
REMARK    4  A    between atoms: C_2  and  C_5
REMARK    5  A    between atoms: C_8  and  N_9
REMARK    6  A    between atoms: N_9  and  C_17
REMARK    7  A    between atoms: C_10  and  C_12
REMARK    8  A    between atoms: C_17  and  C_18
REMARK    9  A    between atoms: C_17  and  C_27
REMARK   10  A    between atoms: N_20  and  C_21
REMARK                            x       y       z     vdW  Elec       q    Type
REMARK                         _______ _______ _______ _____ _____    ______ ____
ROOT
ATOM      1  N   UNL     1       0.761  11.270  19.265  0.00  0.00    +0.000 N 
ATOM      2  C   UNL     1       1.748  10.519  18.596  0.00  0.00    +0.000 C 
ATOM      3  O   UNL     1       2.550  10.992  17.786  0.00  0.00    +0.000 OA
ENDROOT
BRANCH   1   7
ATOM      4  C   UNL     1       0.785  15.639  19.067  0.00  0.00    +0.000 A 
ATOM      5  C   UNL     1       1.679  14.931  19.877  0.00  0.00    +0.000 A 
ATOM      6  C   UNL     1       1.660  13.529  19.954  0.00  0.00    +0.000 A 
ATOM      7  C   UNL     1       0.770  12.744  19.209  0.00  0.00    +0.000 A 
ATOM      8  C   UNL     1      -0.119  13.466  18.395  0.00  0.00    +0.000 A 
ATOM      9  C   UNL     1      -0.130  14.869  18.344  0.00  0.00    +0.000 A 
BRANCH   4  11
ATOM     10  C   UNL     1       1.427  17.719  17.737  0.00  0.00    +0.000 C 
ATOM     11  C   UNL     1       0.776  17.169  19.028  0.00  0.00    +0.000 C 
ATOM     12  C   UNL     1       1.568  17.679  20.246  0.00  0.00    +0.000 C 
ATOM     13  C   UNL     1      -0.654  17.749  19.083  0.00  0.00    +0.000 C 
ENDBRANCH   4  11
ENDBRANCH   1   7
BRANCH   2  14
ATOM     14  C   UNL     1       1.909   9.039  18.786  0.00  0.00    +0.000 C 
ATOM     15  C   UNL     1       1.807   8.247  19.862  0.00  0.00    +0.000 C 
ATOM     16  C   UNL     1       2.247   6.845  19.585  0.00  0.00    +0.000 C 
ATOM     17  C   UNL     1       2.537   6.828  18.089  0.00  0.00    +0.000 C 
ATOM     18  C   UNL     1       2.495   8.279  17.622  0.00  0.00    +0.000 C 
ENDBRANCH   2  14
BRANCH   1  19
ATOM     19  C   UNL     1      -0.497  10.617  19.750  0.00  0.00    +0.000 C 
BRANCH  19  20
ATOM     20  C   UNL     1      -1.672  10.738  18.765  0.00  0.00    +0.000 A 
ATOM     21  C   UNL     1      -1.776   9.994  17.578  0.00  0.00    +0.000 A 
ATOM     22  C   UNL     1      -2.941  10.025  16.814  0.00  0.00    +0.000 A 
ATOM     23  C   UNL     1      -3.993  10.800  17.260  0.00  0.00    +0.000 A 
ATOM     24  N   UNL     1      -3.943  11.539  18.384  0.00  0.00    +0.000 NA
ATOM     25  C   UNL     1      -2.794  11.495  19.104  0.00  0.00    +0.000 A 
ENDBRANCH  19  20
BRANCH  19  26
ATOM     26  C   UNL     1      -0.823  10.836  21.275  0.00  0.00    +0.000 C 
ATOM     27  O   UNL     1      -0.660   9.960  22.124  0.00  0.00    +0.000 OA
ATOM     28  N   UNL     1      -1.178  12.129  21.638  0.00  0.00    +0.000 N 
ATOM     29  H   UNL     1      -1.477  12.748  20.891  0.00  0.00    +0.000 HD
BRANCH  28  30
ATOM     30  C   UNL     1      -1.529  12.488  23.017  0.00  0.00    +0.000 C 
ATOM     31  C   UNL     1      -1.136  13.931  23.346  0.00  0.00    +0.000 C 
ATOM     32  C   UNL     1      -1.990  14.963  22.612  0.00  0.00    +0.000 C 
ATOM     33  C   UNL     1      -3.488  14.734  22.781  0.00  0.00    +0.000 C 
ATOM     34  C   UNL     1      -3.924  13.280  22.611  0.00  0.00    +0.000 C 
ATOM     35  C   UNL     1      -3.019  12.279  23.326  0.00  0.00    +0.000 C 
ENDBRANCH  28  30
ENDBRANCH  19  26
ENDBRANCH   1  19
TORSDOF 7
ENDMDL
