MODEL 1
REMARK VINA RESULT:      -6.9      0.000      0.000
REMARK  Name = 
REMARK  6 active torsions:
REMARK  status: ('A' for Active; 'I' for Inactive)
REMARK    1  A    between atoms: C_1  and  O_2
REMARK    2  A    between atoms: O_2  and  C_3
REMARK    3  A    between atoms: C_6  and  C_7
REMARK    4  A    between atoms: C_21  and  C_22
REMARK    5  A    between atoms: C_26  and  O_27
REMARK    6  A    between atoms: O_27  and  C_28
REMARK                            x       y       z     vdW  Elec       q    Type
REMARK                         _______ _______ _______ _____ _____    ______ ____
ROOT
ATOM      1  C   UNL     1       0.605  10.820  19.908  0.00  0.00    +0.000 C 
ATOM      2  O   UNL     1       1.353  11.662  20.419  0.00  0.00    +0.000 OA
ATOM      3  N   UNL     1      -0.661  11.201  19.386  0.00  0.00    +0.000 N 
ATOM      4  C   UNL     1      -1.539  10.300  18.587  0.00  0.00    +0.000 C 
ATOM      5  C   UNL     1      -2.610  10.945  17.626  0.00  0.00    +0.000 C 
ATOM      6  C   UNL     1      -3.357  12.012  18.362  0.00  0.00    +0.000 A 
ATOM      7  C   UNL     1      -2.757  12.515  19.508  0.00  0.00    +0.000 A 
ATOM      8  N   UNL     1      -3.734  12.165  20.448  0.00  0.00    +0.000 N 
ATOM      9  C   UNL     1      -4.976  11.991  19.794  0.00  0.00    +0.000 A 
ATOM     10  C   UNL     1      -6.257  11.560  20.201  0.00  0.00    +0.000 A 
ATOM     11  C   UNL     1      -7.305  11.602  19.254  0.00  0.00    +0.000 A 
ATOM     12  C   UNL     1      -7.092  12.058  17.956  0.00  0.00    +0.000 A 
ATOM     13  C   UNL     1      -5.795  12.329  17.525  0.00  0.00    +0.000 A 
ATOM     14  C   UNL     1      -4.735  12.244  18.444  0.00  0.00    +0.000 A 
ATOM     15  C   UNL     1      -1.206  12.588  19.515  0.00  0.00    +0.000 C 
ATOM     16  H   UNL     1      -3.570  11.911  21.413  0.00  0.00    +0.000 HD
ENDROOT
BRANCH   1  20
ATOM     17  C   UNL     1       2.249   6.741  19.671  0.00  0.00    +0.000 A 
ATOM     18  C   UNL     1       2.370   7.649  18.617  0.00  0.00    +0.000 A 
ATOM     19  C   UNL     1       1.833   8.951  18.714  0.00  0.00    +0.000 A 
ATOM     20  C   UNL     1       1.160   9.392  19.872  0.00  0.00    +0.000 A 
ATOM     21  C   UNL     1       1.134   8.479  20.921  0.00  0.00    +0.000 A 
ATOM     22  C   UNL     1       1.624   7.171  20.831  0.00  0.00    +0.000 A 
BRANCH  17  24
ATOM     23  C   UNL     1       4.179   5.384  19.316  0.00  0.00    +0.000 C 
ATOM     24  O   UNL     1       2.764   5.492  19.459  0.00  0.00    +0.000 OA
ENDBRANCH  17  24
ENDBRANCH   1  20
BRANCH  15  25
ATOM     25  C   UNL     1      -0.421  13.864  19.886  0.00  0.00    +0.000 A 
ATOM     26  C   UNL     1      -0.485  14.497  21.136  0.00  0.00    +0.000 A 
ATOM     27  C   UNL     1       0.122  15.749  21.338  0.00  0.00    +0.000 A 
ATOM     28  C   UNL     1       0.794  16.405  20.296  0.00  0.00    +0.000 A 
ATOM     29  C   UNL     1       0.868  15.813  19.042  0.00  0.00    +0.000 A 
ATOM     30  C   UNL     1       0.293  14.549  18.848  0.00  0.00    +0.000 A 
BRANCH  29  31
ATOM     31  O   UNL     1       1.510  16.558  18.087  0.00  0.00    +0.000 OA
ATOM     32  C   UNL     1       0.942  17.831  17.797  0.00  0.00    +0.000 C 
ENDBRANCH  29  31
ENDBRANCH  15  25
TORSDOF 4
ENDMDL
MODEL 2
REMARK VINA RESULT:      -6.9      0.631      1.080
REMARK  Name = 
REMARK  6 active torsions:
REMARK  status: ('A' for Active; 'I' for Inactive)
REMARK    1  A    between atoms: C_1  and  O_2
REMARK    2  A    between atoms: O_2  and  C_3
REMARK    3  A    between atoms: C_6  and  C_7
REMARK    4  A    between atoms: C_21  and  C_22
REMARK    5  A    between atoms: C_26  and  O_27
REMARK    6  A    between atoms: O_27  and  C_28
REMARK                            x       y       z     vdW  Elec       q    Type
REMARK                         _______ _______ _______ _____ _____    ______ ____
ROOT
ATOM      1  C   UNL     1       0.586  10.973  19.833  0.00  0.00    +0.000 C 
ATOM      2  O   UNL     1       1.331  11.824  20.334  0.00  0.00    +0.000 OA
ATOM      3  N   UNL     1      -0.701  11.334  19.352  0.00  0.00    +0.000 N 
ATOM      4  C   UNL     1      -1.583  10.426  18.565  0.00  0.00    +0.000 C 
ATOM      5  C   UNL     1      -2.693  11.061  17.643  0.00  0.00    +0.000 C 
ATOM      6  C   UNL     1      -3.441  12.103  18.415  0.00  0.00    +0.000 A 
ATOM      7  C   UNL     1      -2.819  12.602  19.550  0.00  0.00    +0.000 A 
ATOM      8  N   UNL     1      -3.763  12.220  20.513  0.00  0.00    +0.000 N 
ATOM      9  C   UNL     1      -5.019  12.029  19.891  0.00  0.00    +0.000 A 
ATOM     10  C   UNL     1      -6.278  11.566  20.328  0.00  0.00    +0.000 A 
ATOM     11  C   UNL     1      -7.354  11.598  19.411  0.00  0.00    +0.000 A 
ATOM     12  C   UNL     1      -7.187  12.076  18.114  0.00  0.00    +0.000 A 
ATOM     13  C   UNL     1      -5.908  12.380  17.651  0.00  0.00    +0.000 A 
ATOM     14  C   UNL     1      -4.821  12.305  18.539  0.00  0.00    +0.000 A 
ATOM     15  C   UNL     1      -1.271  12.708  19.516  0.00  0.00    +0.000 C 
ATOM     16  H   UNL     1      -3.566  11.956  21.469  0.00  0.00    +0.000 HD
ENDROOT
BRANCH   1  20
ATOM     17  C   UNL     1       2.220   6.884  19.762  0.00  0.00    +0.000 A 
ATOM     18  C   UNL     1       1.594   7.410  20.894  0.00  0.00    +0.000 A 
ATOM     19  C   UNL     1       1.080   8.725  20.895  0.00  0.00    +0.000 A 
ATOM     20  C   UNL     1       1.169   9.558  19.761  0.00  0.00    +0.000 A 
ATOM     21  C   UNL     1       1.730   8.961  18.636  0.00  0.00    +0.000 A 
ATOM     22  C   UNL     1       2.282   7.676  18.626  0.00  0.00    +0.000 A 
BRANCH  17  24
ATOM     23  C   UNL     1       1.891   4.639  20.500  0.00  0.00    +0.000 C 
ATOM     24  O   UNL     1       2.724   5.618  19.881  0.00  0.00    +0.000 OA
ENDBRANCH  17  24
ENDBRANCH   1  20
BRANCH  15  25
ATOM     25  C   UNL     1      -0.502  13.995  19.882  0.00  0.00    +0.000 A 
ATOM     26  C   UNL     1      -0.588  14.642  21.125  0.00  0.00    +0.000 A 
ATOM     27  C   UNL     1       0.005  15.901  21.320  0.00  0.00    +0.000 A 
ATOM     28  C   UNL     1       0.685  16.552  20.280  0.00  0.00    +0.000 A 
ATOM     29  C   UNL     1       0.780  15.947  19.034  0.00  0.00    +0.000 A 
ATOM     30  C   UNL     1       0.220  14.675  18.846  0.00  0.00    +0.000 A 
BRANCH  29  31
ATOM     31  O   UNL     1       1.429  16.686  18.079  0.00  0.00    +0.000 OA
ATOM     32  C   UNL     1       2.800  16.368  17.862  0.00  0.00    +0.000 C 
ENDBRANCH  29  31
ENDBRANCH  15  25
TORSDOF 4
ENDMDL
MODEL 3
REMARK VINA RESULT:      -6.8      0.983      1.640
REMARK  Name = 
REMARK  6 active torsions:
REMARK  status: ('A' for Active; 'I' for Inactive)
REMARK    1  A    between atoms: C_1  and  O_2
REMARK    2  A    between atoms: O_2  and  C_3
REMARK    3  A    between atoms: C_6  and  C_7
REMARK    4  A    between atoms: C_21  and  C_22
REMARK    5  A    between atoms: C_26  and  O_27
REMARK    6  A    between atoms: O_27  and  C_28
REMARK                            x       y       z     vdW  Elec       q    Type
REMARK                         _______ _______ _______ _____ _____    ______ ____
ROOT
ATOM      1  C   UNL     1       0.668  10.772  19.606  0.00  0.00    +0.000 C 
ATOM      2  O   UNL     1       1.442  11.634  20.038  0.00  0.00    +0.000 OA
ATOM      3  N   UNL     1      -0.618  11.133  19.122  0.00  0.00    +0.000 N 
ATOM      4  C   UNL     1      -1.534  10.197  18.411  0.00  0.00    +0.000 C 
ATOM      5  C   UNL     1      -2.645  10.798  17.467  0.00  0.00    +0.000 C 
ATOM      6  C   UNL     1      -3.354  11.906  18.179  0.00  0.00    +0.000 A 
ATOM      7  C   UNL     1      -2.701  12.464  19.269  0.00  0.00    +0.000 A 
ATOM      8  N   UNL     1      -3.637  12.170  20.270  0.00  0.00    +0.000 N 
ATOM      9  C   UNL     1      -4.907  11.970  19.682  0.00  0.00    +0.000 A 
ATOM     10  C   UNL     1      -6.170  11.569  20.168  0.00  0.00    +0.000 A 
ATOM     11  C   UNL     1      -7.260  11.567  19.268  0.00  0.00    +0.000 A 
ATOM     12  C   UNL     1      -7.104  11.954  17.939  0.00  0.00    +0.000 A 
ATOM     13  C   UNL     1      -5.827  12.194  17.437  0.00  0.00    +0.000 A 
ATOM     14  C   UNL     1      -4.727  12.151  18.311  0.00  0.00    +0.000 A 
ATOM     15  C   UNL     1      -1.151  12.528  19.203  0.00  0.00    +0.000 C 
ATOM     16  H   UNL     1      -3.430  11.965  21.238  0.00  0.00    +0.000 HD
ENDROOT
BRANCH   1  20
ATOM     17  C   UNL     1       2.287   6.677  19.510  0.00  0.00    +0.000 A 
ATOM     18  C   UNL     1       2.383   7.536  18.413  0.00  0.00    +0.000 A 
ATOM     19  C   UNL     1       1.854   8.844  18.465  0.00  0.00    +0.000 A 
ATOM     20  C   UNL     1       1.216   9.340  19.619  0.00  0.00    +0.000 A 
ATOM     21  C   UNL     1       1.215   8.476  20.709  0.00  0.00    +0.000 A 
ATOM     22  C   UNL     1       1.696   7.163  20.666  0.00  0.00    +0.000 A 
BRANCH  17  24
ATOM     23  C   UNL     1       4.206   5.262  19.422  0.00  0.00    +0.000 C 
ATOM     24  O   UNL     1       2.790   5.417  19.340  0.00  0.00    +0.000 OA
ENDBRANCH  17  24
ENDBRANCH   1  20
BRANCH  15  25
ATOM     25  C   UNL     1      -0.345  13.816  19.471  0.00  0.00    +0.000 A 
ATOM     26  C   UNL     1       0.525  14.412  18.545  0.00  0.00    +0.000 A 
ATOM     27  C   UNL     1       1.354  15.483  18.926  0.00  0.00    +0.000 A 
ATOM     28  C   UNL     1       1.346  15.974  20.240  0.00  0.00    +0.000 A 
ATOM     29  C   UNL     1       0.506  15.400  21.186  0.00  0.00    +0.000 A 
ATOM     30  C   UNL     1      -0.347  14.356  20.799  0.00  0.00    +0.000 A 
BRANCH  29  31
ATOM     31  O   UNL     1       0.608  15.928  22.447  0.00  0.00    +0.000 OA
ATOM     32  C   UNL     1      -0.500  15.703  23.313  0.00  0.00    +0.000 C 
ENDBRANCH  29  31
ENDBRANCH  15  25
TORSDOF 4
ENDMDL
MODEL 4
REMARK VINA RESULT:      -6.8      1.111      1.895
REMARK  Name = 
REMARK  6 active torsions:
REMARK  status: ('A' for Active; 'I' for Inactive)
REMARK    1  A    between atoms: C_1  and  O_2
REMARK    2  A    between atoms: O_2  and  C_3
REMARK    3  A    between atoms: C_6  and  C_7
REMARK    4  A    between atoms: C_21  and  C_22
REMARK    5  A    between atoms: C_26  and  O_27
REMARK    6  A    between atoms: O_27  and  C_28
REMARK                            x       y       z     vdW  Elec       q    Type
REMARK                         _______ _______ _______ _____ _____    ______ ____
ROOT
ATOM      1  C   UNL     1       0.683  10.814  19.708  0.00  0.00    +0.000 C 
ATOM      2  O   UNL     1       1.436  11.661  20.205  0.00  0.00    +0.000 OA
ATOM      3  N   UNL     1      -0.594  11.187  19.212  0.00  0.00    +0.000 N 
ATOM      4  C   UNL     1      -1.482  10.281  18.429  0.00  0.00    +0.000 C 
ATOM      5  C   UNL     1      -2.576  10.919  17.490  0.00  0.00    +0.000 C 
ATOM      6  C   UNL     1      -3.315  11.981  18.241  0.00  0.00    +0.000 A 
ATOM      7  C   UNL     1      -2.696  12.487  19.375  0.00  0.00    +0.000 A 
ATOM      8  N   UNL     1      -3.653  12.131  20.334  0.00  0.00    +0.000 N 
ATOM      9  C   UNL     1      -4.906  11.950  19.704  0.00  0.00    +0.000 A 
ATOM     10  C   UNL     1      -6.176  11.510  20.136  0.00  0.00    +0.000 A 
ATOM     11  C   UNL     1      -7.243  11.545  19.210  0.00  0.00    +0.000 A 
ATOM     12  C   UNL     1      -7.058  12.002  17.908  0.00  0.00    +0.000 A 
ATOM     13  C   UNL     1      -5.771  12.282  17.452  0.00  0.00    +0.000 A 
ATOM     14  C   UNL     1      -4.693  12.204  18.350  0.00  0.00    +0.000 A 
ATOM     15  C   UNL     1      -1.146  12.571  19.352  0.00  0.00    +0.000 C 
ATOM     16  H   UNL     1      -3.468  11.877  21.295  0.00  0.00    +0.000 HD
ENDROOT
BRANCH   1  20
ATOM     17  C   UNL     1       2.256   6.701  19.706  0.00  0.00    +0.000 A 
ATOM     18  C   UNL     1       1.601   7.241  20.814  0.00  0.00    +0.000 A 
ATOM     19  C   UNL     1       1.107   8.563  20.794  0.00  0.00    +0.000 A 
ATOM     20  C   UNL     1       1.247   9.390  19.661  0.00  0.00    +0.000 A 
ATOM     21  C   UNL     1       1.836   8.781  18.557  0.00  0.00    +0.000 A 
ATOM     22  C   UNL     1       2.368   7.488  18.570  0.00  0.00    +0.000 A 
BRANCH  17  24
ATOM     23  C   UNL     1       2.081   4.582  20.789  0.00  0.00    +0.000 C 
ATOM     24  O   UNL     1       2.736   5.428  19.845  0.00  0.00    +0.000 OA
ENDBRANCH  17  24
ENDBRANCH   1  20
BRANCH  15  25
ATOM     25  C   UNL     1      -0.362  13.851  19.708  0.00  0.00    +0.000 A 
ATOM     26  C   UNL     1       0.355  14.623  18.780  0.00  0.00    +0.000 A 
ATOM     27  C   UNL     1       1.185  15.674  19.211  0.00  0.00    +0.000 A 
ATOM     28  C   UNL     1       1.332  15.969  20.575  0.00  0.00    +0.000 A 
ATOM     29  C   UNL     1       0.647  15.218  21.521  0.00  0.00    +0.000 A 
ATOM     30  C   UNL     1      -0.209  14.193  21.092  0.00  0.00    +0.000 A 
BRANCH  29  31
ATOM     31  O   UNL     1       0.894  15.564  22.824  0.00  0.00    +0.000 OA
ATOM     32  C   UNL     1       0.136  16.653  23.339  0.00  0.00    +0.000 C 
ENDBRANCH  29  31
ENDBRANCH  15  25
TORSDOF 4
ENDMDL
MODEL 5
REMARK VINA RESULT:      -6.8      2.189      5.743
REMARK  Name = 
REMARK  6 active torsions:
REMARK  status: ('A' for Active; 'I' for Inactive)
REMARK    1  A    between atoms: C_1  and  O_2
REMARK    2  A    between atoms: O_2  and  C_3
REMARK    3  A    between atoms: C_6  and  C_7
REMARK    4  A    between atoms: C_21  and  C_22
REMARK    5  A    between atoms: C_26  and  O_27
REMARK    6  A    between atoms: O_27  and  C_28
REMARK                            x       y       z     vdW  Elec       q    Type
REMARK                         _______ _______ _______ _____ _____    ______ ____
ROOT
ATOM      1  C   UNL     1      -0.505  10.584  19.696  0.00  0.00    +0.000 C 
ATOM      2  O   UNL     1      -1.665  10.155  19.681  0.00  0.00    +0.000 OA
ATOM      3  N   UNL     1      -0.242  11.942  20.020  0.00  0.00    +0.000 N 
ATOM      4  C   UNL     1       1.123  12.495  20.249  0.00  0.00    +0.000 C 
ATOM      5  C   UNL     1       1.273  13.809  21.107  0.00  0.00    +0.000 C 
ATOM      6  C   UNL     1       0.286  14.827  20.629  0.00  0.00    +0.000 A 
ATOM      7  C   UNL     1      -0.786  14.354  19.887  0.00  0.00    +0.000 A 
ATOM      8  N   UNL     1      -0.557  15.046  18.690  0.00  0.00    +0.000 N 
ATOM      9  C   UNL     1       0.232  16.190  18.952  0.00  0.00    +0.000 A 
ATOM     10  C   UNL     1       0.836  17.181  18.148  0.00  0.00    +0.000 A 
ATOM     11  C   UNL     1       1.496  18.251  18.794  0.00  0.00    +0.000 A 
ATOM     12  C   UNL     1       1.549  18.338  20.183  0.00  0.00    +0.000 A 
ATOM     13  C   UNL     1       1.089  17.275  20.958  0.00  0.00    +0.000 A 
ATOM     14  C   UNL     1       0.474  16.181  20.325  0.00  0.00    +0.000 A 
ATOM     15  C   UNL     1      -1.327  12.945  20.250  0.00  0.00    +0.000 C 
ATOM     16  H   UNL     1      -0.769  14.714  17.759  0.00  0.00    +0.000 HD
ENDROOT
BRANCH   1  20
ATOM     17  C   UNL     1       2.609   7.661  18.623  0.00  0.00    +0.000 A 
ATOM     18  C   UNL     1       2.139   8.608  17.711  0.00  0.00    +0.000 A 
ATOM     19  C   UNL     1       1.138   9.534  18.076  0.00  0.00    +0.000 A 
ATOM     20  C   UNL     1       0.576   9.548  19.369  0.00  0.00    +0.000 A 
ATOM     21  C   UNL     1       1.132   8.638  20.262  0.00  0.00    +0.000 A 
ATOM     22  C   UNL     1       2.095   7.686  19.910  0.00  0.00    +0.000 A 
BRANCH  17  24
ATOM     23  C   UNL     1       3.915   5.702  19.012  0.00  0.00    +0.000 C 
ATOM     24  O   UNL     1       3.547   6.782  18.155  0.00  0.00    +0.000 OA
ENDBRANCH  17  24
ENDBRANCH   1  20
BRANCH  15  25
ATOM     25  C   UNL     1      -2.819  12.654  20.519  0.00  0.00    +0.000 A 
ATOM     26  C   UNL     1      -3.803  12.580  19.521  0.00  0.00    +0.000 A 
ATOM     27  C   UNL     1      -5.164  12.485  19.862  0.00  0.00    +0.000 A 
ATOM     28  C   UNL     1      -5.577  12.477  21.203  0.00  0.00    +0.000 A 
ATOM     29  C   UNL     1      -4.631  12.561  22.216  0.00  0.00    +0.000 A 
ATOM     30  C   UNL     1      -3.271  12.620  21.879  0.00  0.00    +0.000 A 
BRANCH  29  31
ATOM     31  O   UNL     1      -5.145  12.588  23.487  0.00  0.00    +0.000 OA
ATOM     32  C   UNL     1      -4.196  12.561  24.548  0.00  0.00    +0.000 C 
ENDBRANCH  29  31
ENDBRANCH  15  25
TORSDOF 4
ENDMDL
MODEL 6
REMARK VINA RESULT:      -6.8      2.475      8.032
REMARK  Name = 
REMARK  6 active torsions:
REMARK  status: ('A' for Active; 'I' for Inactive)
REMARK    1  A    between atoms: C_1  and  O_2
REMARK    2  A    between atoms: O_2  and  C_3
REMARK    3  A    between atoms: C_6  and  C_7
REMARK    4  A    between atoms: C_21  and  C_22
REMARK    5  A    between atoms: C_26  and  O_27
REMARK    6  A    between atoms: O_27  and  C_28
REMARK                            x       y       z     vdW  Elec       q    Type
REMARK                         _______ _______ _______ _____ _____    ______ ____
ROOT
ATOM      1  C   UNL     1      -1.789  10.987  18.755  0.00  0.00    +0.000 C 
ATOM      2  O   UNL     1      -1.713   9.769  18.957  0.00  0.00    +0.000 OA
ATOM      3  N   UNL     1      -0.636  11.809  18.861  0.00  0.00    +0.000 N 
ATOM      4  C   UNL     1      -0.593  13.242  18.451  0.00  0.00    +0.000 C 
ATOM      5  C   UNL     1       0.802  13.886  18.099  0.00  0.00    +0.000 C 
ATOM      6  C   UNL     1       1.792  13.538  19.166  0.00  0.00    +0.000 A 
ATOM      7  C   UNL     1       1.479  12.456  19.976  0.00  0.00    +0.000 A 
ATOM      8  N   UNL     1       1.432  13.106  21.216  0.00  0.00    +0.000 N 
ATOM      9  C   UNL     1       2.188  14.300  21.150  0.00  0.00    +0.000 A 
ATOM     10  C   UNL     1       2.417  15.375  22.035  0.00  0.00    +0.000 A 
ATOM     11  C   UNL     1       3.330  16.380  21.639  0.00  0.00    +0.000 A 
ATOM     12  C   UNL     1       3.991  16.317  20.415  0.00  0.00    +0.000 A 
ATOM     13  C   UNL     1       3.637  15.337  19.490  0.00  0.00    +0.000 A 
ATOM     14  C   UNL     1       2.694  14.360  19.852  0.00  0.00    +0.000 A 
ATOM     15  C   UNL     1       0.690  11.290  19.320  0.00  0.00    +0.000 C 
ATOM     16  H   UNL     1       0.830  12.867  21.993  0.00  0.00    +0.000 HD
ENDROOT
BRANCH   1  20
ATOM     17  C   UNL     1      -5.771  12.406  17.521  0.00  0.00    +0.000 A 
ATOM     18  C   UNL     1      -4.905  11.770  16.630  0.00  0.00    +0.000 A 
ATOM     19  C   UNL     1      -3.631  11.325  17.047  0.00  0.00    +0.000 A 
ATOM     20  C   UNL     1      -3.183  11.497  18.372  0.00  0.00    +0.000 A 
ATOM     21  C   UNL     1      -4.111  12.064  19.239  0.00  0.00    +0.000 A 
ATOM     22  C   UNL     1      -5.361  12.548  18.838  0.00  0.00    +0.000 A 
BRANCH  17  24
ATOM     23  C   UNL     1      -7.057  14.216  16.647  0.00  0.00    +0.000 C 
ATOM     24  O   UNL     1      -6.962  12.838  17.006  0.00  0.00    +0.000 OA
ENDBRANCH  17  24
ENDBRANCH   1  20
BRANCH  15  25
ATOM     25  C   UNL     1       1.127   9.814  19.414  0.00  0.00    +0.000 A 
ATOM     26  C   UNL     1       1.011   9.026  20.569  0.00  0.00    +0.000 A 
ATOM     27  C   UNL     1       1.591   7.746  20.626  0.00  0.00    +0.000 A 
ATOM     28  C   UNL     1       2.313   7.228  19.540  0.00  0.00    +0.000 A 
ATOM     29  C   UNL     1       2.458   7.985  18.385  0.00  0.00    +0.000 A 
ATOM     30  C   UNL     1       1.851   9.247  18.313  0.00  0.00    +0.000 A 
BRANCH  29  31
ATOM     31  O   UNL     1       3.216   7.402  17.403  0.00  0.00    +0.000 OA
ATOM     32  C   UNL     1       3.810   6.149  17.728  0.00  0.00    +0.000 C 
ENDBRANCH  29  31
ENDBRANCH  15  25
TORSDOF 4
ENDMDL
MODEL 7
REMARK VINA RESULT:      -6.8      2.541      7.572
REMARK  Name = 
REMARK  6 active torsions:
REMARK  status: ('A' for Active; 'I' for Inactive)
REMARK    1  A    between atoms: C_1  and  O_2
REMARK    2  A    between atoms: O_2  and  C_3
REMARK    3  A    between atoms: C_6  and  C_7
REMARK    4  A    between atoms: C_21  and  C_22
REMARK    5  A    between atoms: C_26  and  O_27
REMARK    6  A    between atoms: O_27  and  C_28
REMARK                            x       y       z     vdW  Elec       q    Type
REMARK                         _______ _______ _______ _____ _____    ______ ____
ROOT
ATOM      1  C   UNL     1       0.208  13.877  19.143  0.00  0.00    +0.000 C 
ATOM      2  O   UNL     1      -0.984  14.207  19.121  0.00  0.00    +0.000 OA
ATOM      3  N   UNL     1       0.594  12.548  18.821  0.00  0.00    +0.000 N 
ATOM      4  C   UNL     1       2.008  12.113  18.634  0.00  0.00    +0.000 C 
ATOM      5  C   UNL     1       2.295  10.823  17.774  0.00  0.00    +0.000 C 
ATOM      6  C   UNL     1       1.381   9.722  18.212  0.00  0.00    +0.000 A 
ATOM      7  C   UNL     1       0.249  10.098  18.921  0.00  0.00    +0.000 A 
ATOM      8  N   UNL     1       0.496   9.417  20.120  0.00  0.00    +0.000 N 
ATOM      9  C   UNL     1       1.386   8.345  19.878  0.00  0.00    +0.000 A 
ATOM     10  C   UNL     1       2.043   7.401  20.696  0.00  0.00    +0.000 A 
ATOM     11  C   UNL     1       2.812   6.395  20.066  0.00  0.00    +0.000 A 
ATOM     12  C   UNL     1       2.919   6.325  18.680  0.00  0.00    +0.000 A 
ATOM     13  C   UNL     1       2.396   7.352  17.896  0.00  0.00    +0.000 A 
ATOM     14  C   UNL     1       1.671   8.386  18.514  0.00  0.00    +0.000 A 
ATOM     15  C   UNL     1      -0.396  11.460  18.547  0.00  0.00    +0.000 C 
ATOM     16  H   UNL     1       0.226   9.722  21.046  0.00  0.00    +0.000 HD
ENDROOT
BRANCH   1  20
ATOM     17  C   UNL     1       2.997  17.154  20.078  0.00  0.00    +0.000 A 
ATOM     18  C   UNL     1       2.314  17.089  18.861  0.00  0.00    +0.000 A 
ATOM     19  C   UNL     1       1.426  16.027  18.582  0.00  0.00    +0.000 A 
ATOM     20  C   UNL     1       1.187  14.996  19.513  0.00  0.00    +0.000 A 
ATOM     21  C   UNL     1       1.829  15.147  20.738  0.00  0.00    +0.000 A 
ATOM     22  C   UNL     1       2.743  16.169  21.019  0.00  0.00    +0.000 A 
BRANCH  17  24
ATOM     23  C   UNL     1       5.222  17.879  20.542  0.00  0.00    +0.000 C 
ATOM     24  O   UNL     1       3.867  18.198  20.230  0.00  0.00    +0.000 OA
ENDBRANCH  17  24
ENDBRANCH   1  20
BRANCH  15  25
ATOM     25  C   UNL     1      -1.896  11.628  18.230  0.00  0.00    +0.000 A 
ATOM     26  C   UNL     1      -2.877  11.939  19.185  0.00  0.00    +0.000 A 
ATOM     27  C   UNL     1      -4.242  11.902  18.849  0.00  0.00    +0.000 A 
ATOM     28  C   UNL     1      -4.662  11.540  17.560  0.00  0.00    +0.000 A 
ATOM     29  C   UNL     1      -3.720  11.214  16.594  0.00  0.00    +0.000 A 
ATOM     30  C   UNL     1      -2.356  11.285  16.916  0.00  0.00    +0.000 A 
BRANCH  29  31
ATOM     31  O   UNL     1      -4.239  10.835  15.383  0.00  0.00    +0.000 OA
ATOM     32  C   UNL     1      -3.343  10.175  14.495  0.00  0.00    +0.000 C 
ENDBRANCH  29  31
ENDBRANCH  15  25
TORSDOF 4
ENDMDL
MODEL 8
REMARK VINA RESULT:      -6.8      3.285      6.661
REMARK  Name = 
REMARK  6 active torsions:
REMARK  status: ('A' for Active; 'I' for Inactive)
REMARK    1  A    between atoms: C_1  and  O_2
REMARK    2  A    between atoms: O_2  and  C_3
REMARK    3  A    between atoms: C_6  and  C_7
REMARK    4  A    between atoms: C_21  and  C_22
REMARK    5  A    between atoms: C_26  and  O_27
REMARK    6  A    between atoms: O_27  and  C_28
REMARK                            x       y       z     vdW  Elec       q    Type
REMARK                         _______ _______ _______ _____ _____    ______ ____
ROOT
ATOM      1  C   UNL     1      -0.406  14.054  19.156  0.00  0.00    +0.000 C 
ATOM      2  O   UNL     1      -0.244  13.384  18.129  0.00  0.00    +0.000 OA
ATOM      3  N   UNL     1      -1.454  13.741  20.063  0.00  0.00    +0.000 N 
ATOM      4  C   UNL     1      -1.606  14.365  21.408  0.00  0.00    +0.000 C 
ATOM      5  C   UNL     1      -2.427  13.593  22.511  0.00  0.00    +0.000 C 
ATOM      6  C   UNL     1      -3.716  13.113  21.924  0.00  0.00    +0.000 A 
ATOM      7  C   UNL     1      -3.782  13.043  20.539  0.00  0.00    +0.000 A 
ATOM      8  N   UNL     1      -4.830  13.945  20.316  0.00  0.00    +0.000 N 
ATOM      9  C   UNL     1      -5.610  14.061  21.490  0.00  0.00    +0.000 A 
ATOM     10  C   UNL     1      -6.704  14.865  21.876  0.00  0.00    +0.000 A 
ATOM     11  C   UNL     1      -7.292  14.628  23.139  0.00  0.00    +0.000 A 
ATOM     12  C   UNL     1      -6.817  13.628  23.984  0.00  0.00    +0.000 A 
ATOM     13  C   UNL     1      -5.643  12.951  23.658  0.00  0.00    +0.000 A 
ATOM     14  C   UNL     1      -5.020  13.212  22.425  0.00  0.00    +0.000 A 
ATOM     15  C   UNL     1      -2.472  12.679  19.791  0.00  0.00    +0.000 C 
ATOM     16  H   UNL     1      -4.935  14.551  19.513  0.00  0.00    +0.000 HD
ENDROOT
BRANCH   1  20
ATOM     17  C   UNL     1       2.578  17.226  19.807  0.00  0.00    +0.000 A 
ATOM     18  C   UNL     1       2.776  15.921  20.260  0.00  0.00    +0.000 A 
ATOM     19  C   UNL     1       1.805  14.920  20.042  0.00  0.00    +0.000 A 
ATOM     20  C   UNL     1       0.602  15.190  19.358  0.00  0.00    +0.000 A 
ATOM     21  C   UNL     1       0.486  16.483  18.859  0.00  0.00    +0.000 A 
ATOM     22  C   UNL     1       1.418  17.499  19.099  0.00  0.00    +0.000 A 
BRANCH  17  24
ATOM     23  C   UNL     1       4.867  17.616  20.355  0.00  0.00    +0.000 C 
ATOM     24  O   UNL     1       3.559  18.129  20.109  0.00  0.00    +0.000 OA
ENDBRANCH  17  24
ENDBRANCH   1  20
BRANCH  15  25
ATOM     25  C   UNL     1      -2.385  11.559  18.733  0.00  0.00    +0.000 A 
ATOM     26  C   UNL     1      -1.382  10.577  18.700  0.00  0.00    +0.000 A 
ATOM     27  C   UNL     1      -1.273   9.700  17.607  0.00  0.00    +0.000 A 
ATOM     28  C   UNL     1      -2.148   9.790  16.514  0.00  0.00    +0.000 A 
ATOM     29  C   UNL     1      -3.144  10.757  16.507  0.00  0.00    +0.000 A 
ATOM     30  C   UNL     1      -3.278  11.610  17.612  0.00  0.00    +0.000 A 
BRANCH  29  31
ATOM     31  O   UNL     1      -3.916  10.785  15.374  0.00  0.00    +0.000 OA
ATOM     32  C   UNL     1      -3.395  10.095  14.243  0.00  0.00    +0.000 C 
ENDBRANCH  29  31
ENDBRANCH  15  25
TORSDOF 4
ENDMDL
MODEL 9
REMARK VINA RESULT:      -6.6      2.577      7.221
REMARK  Name = 
REMARK  6 active torsions:
REMARK  status: ('A' for Active; 'I' for Inactive)
REMARK    1  A    between atoms: C_1  and  O_2
REMARK    2  A    between atoms: O_2  and  C_3
REMARK    3  A    between atoms: C_6  and  C_7
REMARK    4  A    between atoms: C_21  and  C_22
REMARK    5  A    between atoms: C_26  and  O_27
REMARK    6  A    between atoms: O_27  and  C_28
REMARK                            x       y       z     vdW  Elec       q    Type
REMARK                         _______ _______ _______ _____ _____    ______ ____
ROOT
ATOM      1  C   UNL     1      -1.357  12.159  19.066  0.00  0.00    +0.000 C 
ATOM      2  O   UNL     1      -0.886  13.276  18.820  0.00  0.00    +0.000 OA
ATOM      3  N   UNL     1      -0.503  11.075  19.403  0.00  0.00    +0.000 N 
ATOM      4  C   UNL     1      -0.986   9.755  19.899  0.00  0.00    +0.000 C 
ATOM      5  C   UNL     1      -0.000   8.854  20.736  0.00  0.00    +0.000 C 
ATOM      6  C   UNL     1       1.321   8.785  20.038  0.00  0.00    +0.000 A 
ATOM      7  C   UNL     1       1.582   9.773  19.100  0.00  0.00    +0.000 A 
ATOM      8  N   UNL     1       1.733   8.971  17.961  0.00  0.00    +0.000 N 
ATOM      9  C   UNL     1       2.069   7.655  18.354  0.00  0.00    +0.000 A 
ATOM     10  C   UNL     1       2.246   6.433  17.669  0.00  0.00    +0.000 A 
ATOM     11  C   UNL     1       2.678   5.311  18.412  0.00  0.00    +0.000 A 
ATOM     12  C   UNL     1       2.929   5.398  19.779  0.00  0.00    +0.000 A 
ATOM     13  C   UNL     1       2.599   6.565  20.466  0.00  0.00    +0.000 A 
ATOM     14  C   UNL     1       2.122   7.674  19.747  0.00  0.00    +0.000 A 
ATOM     15  C   UNL     1       0.990  11.181  19.378  0.00  0.00    +0.000 C 
ATOM     16  H   UNL     1       1.485   9.227  17.015  0.00  0.00    +0.000 HD
ENDROOT
BRANCH   1  20
ATOM     17  C   UNL     1      -5.755  11.961  18.994  0.00  0.00    +0.000 A 
ATOM     18  C   UNL     1      -5.060  12.564  20.044  0.00  0.00    +0.000 A 
ATOM     19  C   UNL     1      -3.649  12.614  20.047  0.00  0.00    +0.000 A 
ATOM     20  C   UNL     1      -2.885  12.066  18.997  0.00  0.00    +0.000 A 
ATOM     21  C   UNL     1      -3.625  11.547  17.939  0.00  0.00    +0.000 A 
ATOM     22  C   UNL     1      -5.020  11.452  17.935  0.00  0.00    +0.000 A 
BRANCH  17  24
ATOM     23  C   UNL     1      -7.657  11.439  20.337  0.00  0.00    +0.000 C 
ATOM     24  O   UNL     1      -7.117  11.926  19.109  0.00  0.00    +0.000 OA
ENDBRANCH  17  24
ENDBRANCH   1  20
BRANCH  15  25
ATOM     25  C   UNL     1       1.828  12.476  19.336  0.00  0.00    +0.000 A 
ATOM     26  C   UNL     1       2.484  12.958  18.193  0.00  0.00    +0.000 A 
ATOM     27  C   UNL     1       3.369  14.047  18.280  0.00  0.00    +0.000 A 
ATOM     28  C   UNL     1       3.633  14.671  19.508  0.00  0.00    +0.000 A 
ATOM     29  C   UNL     1       3.011  14.213  20.662  0.00  0.00    +0.000 A 
ATOM     30  C   UNL     1       2.101  13.149  20.572  0.00  0.00    +0.000 A 
BRANCH  29  31
ATOM     31  O   UNL     1       3.372  14.866  21.812  0.00  0.00    +0.000 OA
ATOM     32  C   UNL     1       4.651  14.538  22.345  0.00  0.00    +0.000 C 
ENDBRANCH  29  31
ENDBRANCH  15  25
TORSDOF 4
ENDMDL
