MODEL 1
REMARK VINA RESULT:      -8.9      0.000      0.000
REMARK  Name = 
REMARK  4 active torsions:
REMARK  status: ('A' for Active; 'I' for Inactive)
REMARK    1  A    between atoms: C_2  and  C_22
REMARK    2  A    between atoms: N_3  and  C_4
REMARK    3  A    between atoms: C_8  and  C_9
REMARK    4  A    between atoms: C_9  and  C_10
REMARK                            x       y       z     vdW  Elec       q    Type
REMARK                         _______ _______ _______ _____ _____    ______ ____
ROOT
ATOM      1  C   UNL     1       1.556   4.894  20.463  0.00  0.00    +0.000 A 
ATOM      2  C   UNL     1       0.724   3.777  20.461  0.00  0.00    +0.000 A 
ATOM      3  C   UNL     1       1.206   2.536  20.041  0.00  0.00    +0.000 A 
ATOM      4  C   UNL     1       2.536   2.397  19.651  0.00  0.00    +0.000 A 
ATOM      5  C   UNL     1       3.398   3.499  19.671  0.00  0.00    +0.000 A 
ATOM      6  C   UNL     1       2.884   4.756  20.038  0.00  0.00    +0.000 A 
ENDROOT
BRANCH   1   9
ATOM      7  O   UNL     1       2.491   7.530  19.597  0.00  0.00    +0.000 OA
ATOM      8  C   UNL     1       1.591   7.380  20.418  0.00  0.00    +0.000 C 
ATOM      9  N   UNL     1       1.131   6.169  20.895  0.00  0.00    +0.000 N 
ATOM     10  H   UNL     1       0.309   6.186  21.483  0.00  0.00    +0.000 HD
BRANCH   8  11
ATOM     11  C   UNL     1       0.926   8.613  20.941  0.00  0.00    +0.000 A 
ATOM     12  C   UNL     1       0.616   8.575  22.318  0.00  0.00    +0.000 A 
ATOM     13  C   UNL     1       0.050   9.672  22.968  0.00  0.00    +0.000 A 
ATOM     14  C   UNL     1      -0.217  10.832  22.253  0.00  0.00    +0.000 A 
ATOM     15  C   UNL     1       0.079  10.892  20.891  0.00  0.00    +0.000 A 
ATOM     16  C   UNL     1       0.652   9.793  20.227  0.00  0.00    +0.000 A 
ATOM     17  I   UNL     1       1.094  10.144  18.199  0.00  0.00    +0.000 I 
ENDBRANCH   8  11
ENDBRANCH   1   9
BRANCH   5  18
ATOM     18  C   UNL     1       4.860   3.337  19.322  0.00  0.00    +0.000 C 
BRANCH  18  19
ATOM     19  C   UNL     1       5.245   4.040  18.024  0.00  0.00    +0.000 A 
ATOM     20  N   UNL     1       4.607   3.670  16.952  0.00  0.00    +0.000 NA
ATOM     21  N   UNL     1       4.952   4.264  15.781  0.00  0.00    +0.000 N 
ATOM     22  C   UNL     1       5.937   5.199  15.613  0.00  0.00    +0.000 A 
ATOM     23  O   UNL     1       6.251   5.629  14.509  0.00  0.00    +0.000 OA
ATOM     24  C   UNL     1       6.590   5.680  16.856  0.00  0.00    +0.000 A 
ATOM     25  C   UNL     1       6.283   5.122  18.041  0.00  0.00    +0.000 A 
ATOM     26  C   UNL     1       6.923   5.572  19.326  0.00  0.00    +0.000 C 
ATOM     27  C   UNL     1       8.122   6.505  19.124  0.00  0.00    +0.000 C 
ATOM     28  C   UNL     1       7.850   7.525  18.027  0.00  0.00    +0.000 C 
ATOM     29  C   UNL     1       7.560   6.819  16.702  0.00  0.00    +0.000 C 
ATOM     30  H   UNL     1       4.495   3.918  14.944  0.00  0.00    +0.000 HD
ENDBRANCH  18  19
ENDBRANCH   5  18
TORSDOF 4
ENDMDL
MODEL 2
REMARK VINA RESULT:      -8.7      4.189      9.270
REMARK  Name = 
REMARK  4 active torsions:
REMARK  status: ('A' for Active; 'I' for Inactive)
REMARK    1  A    between atoms: C_2  and  C_22
REMARK    2  A    between atoms: N_3  and  C_4
REMARK    3  A    between atoms: C_8  and  C_9
REMARK    4  A    between atoms: C_9  and  C_10
REMARK                            x       y       z     vdW  Elec       q    Type
REMARK                         _______ _______ _______ _____ _____    ______ ____
ROOT
ATOM      1  C   UNL     1       1.453   8.486  19.908  0.00  0.00    +0.000 A 
ATOM      2  C   UNL     1       1.013   8.156  21.188  0.00  0.00    +0.000 A 
ATOM      3  C   UNL     1       0.244   9.057  21.927  0.00  0.00    +0.000 A 
ATOM      4  C   UNL     1      -0.119  10.284  21.376  0.00  0.00    +0.000 A 
ATOM      5  C   UNL     1       0.289  10.627  20.082  0.00  0.00    +0.000 A 
ATOM      6  C   UNL     1       1.114   9.736  19.372  0.00  0.00    +0.000 A 
ENDROOT
BRANCH   1   9
ATOM      7  O   UNL     1       2.370   5.772  20.514  0.00  0.00    +0.000 OA
ATOM      8  C   UNL     1       2.586   6.323  19.439  0.00  0.00    +0.000 C 
ATOM      9  N   UNL     1       2.215   7.610  19.106  0.00  0.00    +0.000 N 
ATOM     10  H   UNL     1       2.355   7.899  18.146  0.00  0.00    +0.000 HD
BRANCH   8  11
ATOM     11  C   UNL     1       3.304   5.530  18.394  0.00  0.00    +0.000 A 
ATOM     12  C   UNL     1       4.420   6.182  17.826  0.00  0.00    +0.000 A 
ATOM     13  C   UNL     1       5.230   5.550  16.882  0.00  0.00    +0.000 A 
ATOM     14  C   UNL     1       4.939   4.250  16.486  0.00  0.00    +0.000 A 
ATOM     15  C   UNL     1       3.840   3.588  17.033  0.00  0.00    +0.000 A 
ATOM     16  C   UNL     1       3.020   4.215  17.987  0.00  0.00    +0.000 A 
ATOM     17  I   UNL     1       1.477   2.994  18.736  0.00  0.00    +0.000 I 
ENDBRANCH   8  11
ENDBRANCH   1   9
BRANCH   5  18
ATOM     18  C   UNL     1      -0.166  11.924  19.452  0.00  0.00    +0.000 C 
BRANCH  18  19
ATOM     19  C   UNL     1      -1.684  12.056  19.388  0.00  0.00    +0.000 A 
ATOM     20  N   UNL     1      -2.248  12.747  20.335  0.00  0.00    +0.000 NA
ATOM     21  N   UNL     1      -3.601  12.855  20.313  0.00  0.00    +0.000 N 
ATOM     22  C   UNL     1      -4.438  12.275  19.399  0.00  0.00    +0.000 A 
ATOM     23  O   UNL     1      -5.659  12.345  19.491  0.00  0.00    +0.000 OA
ATOM     24  C   UNL     1      -3.777  11.570  18.272  0.00  0.00    +0.000 A 
ATOM     25  C   UNL     1      -2.439  11.435  18.251  0.00  0.00    +0.000 A 
ATOM     26  C   UNL     1      -1.725  10.724  17.134  0.00  0.00    +0.000 C 
ATOM     27  C   UNL     1      -2.660   9.952  16.197  0.00  0.00    +0.000 C 
ATOM     28  C   UNL     1      -3.919  10.752  15.890  0.00  0.00    +0.000 C 
ATOM     29  C   UNL     1      -4.680  11.065  17.180  0.00  0.00    +0.000 C 
ATOM     30  H   UNL     1      -4.031  13.339  21.093  0.00  0.00    +0.000 HD
ENDBRANCH  18  19
ENDBRANCH   5  18
TORSDOF 4
ENDMDL
MODEL 3
REMARK VINA RESULT:      -8.7      1.976      2.893
REMARK  Name = 
REMARK  4 active torsions:
REMARK  status: ('A' for Active; 'I' for Inactive)
REMARK    1  A    between atoms: C_2  and  C_22
REMARK    2  A    between atoms: N_3  and  C_4
REMARK    3  A    between atoms: C_8  and  C_9
REMARK    4  A    between atoms: C_9  and  C_10
REMARK                            x       y       z     vdW  Elec       q    Type
REMARK                         _______ _______ _______ _____ _____    ______ ____
ROOT
ATOM      1  C   UNL     1       2.131   5.949  20.132  0.00  0.00    +0.000 A 
ATOM      2  C   UNL     1       1.127   5.076  20.543  0.00  0.00    +0.000 A 
ATOM      3  C   UNL     1       1.337   3.696  20.523  0.00  0.00    +0.000 A 
ATOM      4  C   UNL     1       2.568   3.181  20.122  0.00  0.00    +0.000 A 
ATOM      5  C   UNL     1       3.600   4.040  19.730  0.00  0.00    +0.000 A 
ATOM      6  C   UNL     1       3.356   5.424  19.697  0.00  0.00    +0.000 A 
ENDROOT
BRANCH   1   9
ATOM      7  O   UNL     1       1.817   7.789  17.876  0.00  0.00    +0.000 OA
ATOM      8  C   UNL     1       1.805   8.162  19.045  0.00  0.00    +0.000 C 
ATOM      9  N   UNL     1       1.985   7.353  20.149  0.00  0.00    +0.000 N 
ATOM     10  H   UNL     1       1.838   7.772  21.058  0.00  0.00    +0.000 HD
BRANCH   8  11
ATOM     11  C   UNL     1       1.565   9.616  19.299  0.00  0.00    +0.000 A 
ATOM     12  C   UNL     1       2.063  10.478  18.298  0.00  0.00    +0.000 A 
ATOM     13  C   UNL     1       1.865  11.857  18.360  0.00  0.00    +0.000 A 
ATOM     14  C   UNL     1       1.162  12.404  19.426  0.00  0.00    +0.000 A 
ATOM     15  C   UNL     1       0.663  11.572  20.427  0.00  0.00    +0.000 A 
ATOM     16  C   UNL     1       0.854  10.180  20.374  0.00  0.00    +0.000 A 
ATOM     17  I   UNL     1      -0.063   9.120  21.945  0.00  0.00    +0.000 I 
ENDBRANCH   8  11
ENDBRANCH   1   9
BRANCH   5  18
ATOM     18  C   UNL     1       4.961   3.489  19.367  0.00  0.00    +0.000 C 
BRANCH  18  19
ATOM     19  C   UNL     1       5.855   4.516  18.679  0.00  0.00    +0.000 A 
ATOM     20  N   UNL     1       6.571   5.276  19.455  0.00  0.00    +0.000 NA
ATOM     21  N   UNL     1       7.354   6.215  18.865  0.00  0.00    +0.000 N 
ATOM     22  C   UNL     1       7.439   6.462  17.522  0.00  0.00    +0.000 A 
ATOM     23  O   UNL     1       8.105   7.386  17.066  0.00  0.00    +0.000 OA
ATOM     24  C   UNL     1       6.691   5.528  16.644  0.00  0.00    +0.000 A 
ATOM     25  C   UNL     1       5.900   4.582  17.182  0.00  0.00    +0.000 A 
ATOM     26  C   UNL     1       5.118   3.616  16.332  0.00  0.00    +0.000 C 
ATOM     27  C   UNL     1       5.094   3.984  14.844  0.00  0.00    +0.000 C 
ATOM     28  C   UNL     1       6.461   4.459  14.370  0.00  0.00    +0.000 C 
ATOM     29  C   UNL     1       6.902   5.691  15.163  0.00  0.00    +0.000 C 
ATOM     30  H   UNL     1       7.855   6.842  19.484  0.00  0.00    +0.000 HD
ENDBRANCH  18  19
ENDBRANCH   5  18
TORSDOF 4
ENDMDL
MODEL 4
REMARK VINA RESULT:      -8.7      4.179      7.573
REMARK  Name = 
REMARK  4 active torsions:
REMARK  status: ('A' for Active; 'I' for Inactive)
REMARK    1  A    between atoms: C_2  and  C_22
REMARK    2  A    between atoms: N_3  and  C_4
REMARK    3  A    between atoms: C_8  and  C_9
REMARK    4  A    between atoms: C_9  and  C_10
REMARK                            x       y       z     vdW  Elec       q    Type
REMARK                         _______ _______ _______ _____ _____    ______ ____
ROOT
ATOM      1  C   UNL     1       8.090   8.473  18.147  0.00  0.00    +0.000 A 
ATOM      2  C   UNL     1       8.613   7.465  18.952  0.00  0.00    +0.000 A 
ATOM      3  C   UNL     1       8.006   6.209  18.999  0.00  0.00    +0.000 A 
ATOM      4  C   UNL     1       6.887   5.942  18.213  0.00  0.00    +0.000 A 
ATOM      5  C   UNL     1       6.359   6.932  17.376  0.00  0.00    +0.000 A 
ATOM      6  C   UNL     1       6.944   8.211  17.384  0.00  0.00    +0.000 A 
ENDROOT
BRANCH   1   9
ATOM      7  O   UNL     1       9.231  10.148  20.261  0.00  0.00    +0.000 OA
ATOM      8  C   UNL     1       9.225  10.480  19.079  0.00  0.00    +0.000 C 
ATOM      9  N   UNL     1       8.671   9.755  18.043  0.00  0.00    +0.000 N 
ATOM     10  H   UNL     1       8.837  10.091  17.103  0.00  0.00    +0.000 HD
BRANCH   8  11
ATOM     11  C   UNL     1       9.883  11.776  18.727  0.00  0.00    +0.000 A 
ATOM     12  C   UNL     1      10.584  11.765  17.502  0.00  0.00    +0.000 A 
ATOM     13  C   UNL     1      11.200  12.914  17.005  0.00  0.00    +0.000 A 
ATOM     14  C   UNL     1      11.127  14.099  17.725  0.00  0.00    +0.000 A 
ATOM     15  C   UNL     1      10.442  14.132  18.939  0.00  0.00    +0.000 A 
ATOM     16  C   UNL     1       9.816  12.981  19.447  0.00  0.00    +0.000 A 
ATOM     17  I   UNL     1       8.768  13.290  21.248  0.00  0.00    +0.000 I 
ENDBRANCH   8  11
ENDBRANCH   1   9
BRANCH   5  18
ATOM     18  C   UNL     1       5.192   6.625  16.465  0.00  0.00    +0.000 C 
BRANCH  18  19
ATOM     19  C   UNL     1       4.372   5.426  16.931  0.00  0.00    +0.000 A 
ATOM     20  N   UNL     1       4.603   4.295  16.331  0.00  0.00    +0.000 NA
ATOM     21  N   UNL     1       3.866   3.220  16.711  0.00  0.00    +0.000 N 
ATOM     22  C   UNL     1       2.872   3.220  17.650  0.00  0.00    +0.000 A 
ATOM     23  O   UNL     1       2.188   2.228  17.881  0.00  0.00    +0.000 OA
ATOM     24  C   UNL     1       2.682   4.492  18.392  0.00  0.00    +0.000 A 
ATOM     25  C   UNL     1       3.389   5.585  18.051  0.00  0.00    +0.000 A 
ATOM     26  C   UNL     1       3.227   6.896  18.770  0.00  0.00    +0.000 C 
ATOM     27  C   UNL     1       2.019   6.939  19.713  0.00  0.00    +0.000 C 
ATOM     28  C   UNL     1       1.880   5.638  20.491  0.00  0.00    +0.000 C 
ATOM     29  C   UNL     1       1.702   4.459  19.533  0.00  0.00    +0.000 C 
ATOM     30  H   UNL     1       4.011   2.363  16.189  0.00  0.00    +0.000 HD
ENDBRANCH  18  19
ENDBRANCH   5  18
TORSDOF 4
ENDMDL
MODEL 5
REMARK VINA RESULT:      -8.6      1.392      1.921
REMARK  Name = 
REMARK  4 active torsions:
REMARK  status: ('A' for Active; 'I' for Inactive)
REMARK    1  A    between atoms: C_2  and  C_22
REMARK    2  A    between atoms: N_3  and  C_4
REMARK    3  A    between atoms: C_8  and  C_9
REMARK    4  A    between atoms: C_9  and  C_10
REMARK                            x       y       z     vdW  Elec       q    Type
REMARK                         _______ _______ _______ _____ _____    ______ ____
ROOT
ATOM      1  C   UNL     1       2.088   5.903  20.191  0.00  0.00    +0.000 A 
ATOM      2  C   UNL     1       1.142   5.074  20.789  0.00  0.00    +0.000 A 
ATOM      3  C   UNL     1       1.320   3.689  20.800  0.00  0.00    +0.000 A 
ATOM      4  C   UNL     1       2.464   3.126  20.239  0.00  0.00    +0.000 A 
ATOM      5  C   UNL     1       3.440   3.941  19.656  0.00  0.00    +0.000 A 
ATOM      6  C   UNL     1       3.221   5.328  19.598  0.00  0.00    +0.000 A 
ENDROOT
BRANCH   1   9
ATOM      7  O   UNL     1       1.869   7.687  17.880  0.00  0.00    +0.000 OA
ATOM      8  C   UNL     1       1.838   8.092  19.039  0.00  0.00    +0.000 C 
ATOM      9  N   UNL     1       1.974   7.309  20.167  0.00  0.00    +0.000 N 
ATOM     10  H   UNL     1       1.815   7.755  21.061  0.00  0.00    +0.000 HD
BRANCH   8  11
ATOM     11  C   UNL     1       1.625   9.557  19.248  0.00  0.00    +0.000 A 
ATOM     12  C   UNL     1       2.147  10.379  18.226  0.00  0.00    +0.000 A 
ATOM     13  C   UNL     1       1.976  11.763  18.245  0.00  0.00    +0.000 A 
ATOM     14  C   UNL     1       1.277  12.355  19.289  0.00  0.00    +0.000 A 
ATOM     15  C   UNL     1       0.755  11.563  20.312  0.00  0.00    +0.000 A 
ATOM     16  C   UNL     1       0.919  10.167  20.300  0.00  0.00    +0.000 A 
ATOM     17  I   UNL     1      -0.029   9.172  21.895  0.00  0.00    +0.000 I 
ENDBRANCH   8  11
ENDBRANCH   1   9
BRANCH   5  18
ATOM     18  C   UNL     1       4.718   3.340  19.114  0.00  0.00    +0.000 C 
BRANCH  18  19
ATOM     19  C   UNL     1       5.211   4.030  17.846  0.00  0.00    +0.000 A 
ATOM     20  N   UNL     1       4.644   3.671  16.732  0.00  0.00    +0.000 NA
ATOM     21  N   UNL     1       5.085   4.252  15.587  0.00  0.00    +0.000 N 
ATOM     22  C   UNL     1       6.099   5.165  15.489  0.00  0.00    +0.000 A 
ATOM     23  O   UNL     1       6.502   5.585  14.410  0.00  0.00    +0.000 OA
ATOM     24  C   UNL     1       6.672   5.636  16.775  0.00  0.00    +0.000 A 
ATOM     25  C   UNL     1       6.268   5.089  17.936  0.00  0.00    +0.000 A 
ATOM     26  C   UNL     1       6.824   5.529  19.263  0.00  0.00    +0.000 C 
ATOM     27  C   UNL     1       8.054   6.435  19.146  0.00  0.00    +0.000 C 
ATOM     28  C   UNL     1       7.885   7.457  18.031  0.00  0.00    +0.000 C 
ATOM     29  C   UNL     1       7.676   6.753  16.689  0.00  0.00    +0.000 C 
ATOM     30  H   UNL     1       4.682   3.914  14.721  0.00  0.00    +0.000 HD
ENDBRANCH  18  19
ENDBRANCH   5  18
TORSDOF 4
ENDMDL
MODEL 6
REMARK VINA RESULT:      -8.6      3.146      5.178
REMARK  Name = 
REMARK  4 active torsions:
REMARK  status: ('A' for Active; 'I' for Inactive)
REMARK    1  A    between atoms: C_2  and  C_22
REMARK    2  A    between atoms: N_3  and  C_4
REMARK    3  A    between atoms: C_8  and  C_9
REMARK    4  A    between atoms: C_9  and  C_10
REMARK                            x       y       z     vdW  Elec       q    Type
REMARK                         _______ _______ _______ _____ _____    ______ ____
ROOT
ATOM      1  C   UNL     1       0.316   9.830  19.899  0.00  0.00    +0.000 A 
ATOM      2  C   UNL     1       0.554  10.005  18.538  0.00  0.00    +0.000 A 
ATOM      3  C   UNL     1       1.450   9.175  17.864  0.00  0.00    +0.000 A 
ATOM      4  C   UNL     1       2.091   8.139  18.541  0.00  0.00    +0.000 A 
ATOM      5  C   UNL     1       1.847   7.928  19.902  0.00  0.00    +0.000 A 
ATOM      6  C   UNL     1       0.989   8.809  20.584  0.00  0.00    +0.000 A 
ENDROOT
BRANCH   1   9
ATOM      7  O   UNL     1       0.862  12.147  21.605  0.00  0.00    +0.000 OA
ATOM      8  C   UNL     1      -0.273  11.731  21.391  0.00  0.00    +0.000 C 
ATOM      9  N   UNL     1      -0.593  10.625  20.630  0.00  0.00    +0.000 N 
ATOM     10  H   UNL     1      -1.574  10.460  20.443  0.00  0.00    +0.000 HD
BRANCH   8  11
ATOM     11  C   UNL     1      -1.408  12.492  21.998  0.00  0.00    +0.000 A 
ATOM     12  C   UNL     1      -2.118  11.791  22.997  0.00  0.00    +0.000 A 
ATOM     13  C   UNL     1      -3.165  12.386  23.701  0.00  0.00    +0.000 A 
ATOM     14  C   UNL     1      -3.523  13.698  23.419  0.00  0.00    +0.000 A 
ATOM     15  C   UNL     1      -2.837  14.409  22.435  0.00  0.00    +0.000 A 
ATOM     16  C   UNL     1      -1.779  13.819  21.722  0.00  0.00    +0.000 A 
ATOM     17  I   UNL     1      -0.836  15.109  20.351  0.00  0.00    +0.000 I 
ENDBRANCH   8  11
ENDBRANCH   1   9
BRANCH   5  18
ATOM     18  C   UNL     1       2.482   6.760  20.623  0.00  0.00    +0.000 C 
BRANCH  18  19
ATOM     19  C   UNL     1       2.079   5.409  20.040  0.00  0.00    +0.000 A 
ATOM     20  N   UNL     1       0.946   4.916  20.445  0.00  0.00    +0.000 NA
ATOM     21  N   UNL     1       0.580   3.702  19.959  0.00  0.00    +0.000 N 
ATOM     22  C   UNL     1       1.312   2.926  19.102  0.00  0.00    +0.000 A 
ATOM     23  O   UNL     1       0.957   1.800  18.772  0.00  0.00    +0.000 OA
ATOM     24  C   UNL     1       2.556   3.541  18.575  0.00  0.00    +0.000 A 
ATOM     25  C   UNL     1       2.961   4.742  19.027  0.00  0.00    +0.000 A 
ATOM     26  C   UNL     1       4.217   5.402  18.528  0.00  0.00    +0.000 C 
ATOM     27  C   UNL     1       5.107   4.478  17.688  0.00  0.00    +0.000 C 
ATOM     28  C   UNL     1       4.278   3.630  16.734  0.00  0.00    +0.000 C 
ATOM     29  C   UNL     1       3.286   2.765  17.513  0.00  0.00    +0.000 C 
ATOM     30  H   UNL     1      -0.272   3.300  20.334  0.00  0.00    +0.000 HD
ENDBRANCH  18  19
ENDBRANCH   5  18
TORSDOF 4
ENDMDL
MODEL 7
REMARK VINA RESULT:      -8.6      1.442      2.193
REMARK  Name = 
REMARK  4 active torsions:
REMARK  status: ('A' for Active; 'I' for Inactive)
REMARK    1  A    between atoms: C_2  and  C_22
REMARK    2  A    between atoms: N_3  and  C_4
REMARK    3  A    between atoms: C_8  and  C_9
REMARK    4  A    between atoms: C_9  and  C_10
REMARK                            x       y       z     vdW  Elec       q    Type
REMARK                         _______ _______ _______ _____ _____    ______ ____
ROOT
ATOM      1  C   UNL     1       1.849   5.030  20.288  0.00  0.00    +0.000 A 
ATOM      2  C   UNL     1       0.970   3.986  20.013  0.00  0.00    +0.000 A 
ATOM      3  C   UNL     1       1.450   2.762  19.542  0.00  0.00    +0.000 A 
ATOM      4  C   UNL     1       2.819   2.564  19.375  0.00  0.00    +0.000 A 
ATOM      5  C   UNL     1       3.723   3.590  19.671  0.00  0.00    +0.000 A 
ATOM      6  C   UNL     1       3.223   4.837  20.086  0.00  0.00    +0.000 A 
ENDROOT
BRANCH   1   9
ATOM      7  O   UNL     1       2.346   7.701  19.195  0.00  0.00    +0.000 OA
ATOM      8  C   UNL     1       1.666   7.508  20.199  0.00  0.00    +0.000 C 
ATOM      9  N   UNL     1       1.426   6.282  20.784  0.00  0.00    +0.000 N 
ATOM     10  H   UNL     1       0.755   6.254  21.541  0.00  0.00    +0.000 HD
BRANCH   8  11
ATOM     11  C   UNL     1       1.033   8.703  20.839  0.00  0.00    +0.000 A 
ATOM     12  C   UNL     1       0.690   8.530  22.197  0.00  0.00    +0.000 A 
ATOM     13  C   UNL     1       0.148   9.571  22.950  0.00  0.00    +0.000 A 
ATOM     14  C   UNL     1      -0.063  10.810  22.358  0.00  0.00    +0.000 A 
ATOM     15  C   UNL     1       0.267  11.003  21.017  0.00  0.00    +0.000 A 
ATOM     16  C   UNL     1       0.816   9.961  20.250  0.00  0.00    +0.000 A 
ATOM     17  I   UNL     1       1.315  10.508  18.279  0.00  0.00    +0.000 I 
ENDBRANCH   8  11
ENDBRANCH   1   9
BRANCH   5  18
ATOM     18  C   UNL     1       5.213   3.355  19.564  0.00  0.00    +0.000 C 
BRANCH  18  19
ATOM     19  C   UNL     1       5.944   4.481  18.839  0.00  0.00    +0.000 A 
ATOM     20  N   UNL     1       6.637   5.296  19.580  0.00  0.00    +0.000 NA
ATOM     21  N   UNL     1       7.274   6.321  18.959  0.00  0.00    +0.000 N 
ATOM     22  C   UNL     1       7.229   6.602  17.621  0.00  0.00    +0.000 A 
ATOM     23  O   UNL     1       7.761   7.598  17.142  0.00  0.00    +0.000 OA
ATOM     24  C   UNL     1       6.514   5.613  16.776  0.00  0.00    +0.000 A 
ATOM     25  C   UNL     1       5.866   4.580  17.345  0.00  0.00    +0.000 A 
ATOM     26  C   UNL     1       5.123   3.556  16.531  0.00  0.00    +0.000 C 
ATOM     27  C   UNL     1       4.947   3.948  15.060  0.00  0.00    +0.000 C 
ATOM     28  C   UNL     1       6.218   4.570  14.498  0.00  0.00    +0.000 C 
ATOM     29  C   UNL     1       6.592   5.825  15.289  0.00  0.00    +0.000 C 
ATOM     30  H   UNL     1       7.754   6.985  19.556  0.00  0.00    +0.000 HD
ENDBRANCH  18  19
ENDBRANCH   5  18
TORSDOF 4
ENDMDL
MODEL 8
REMARK VINA RESULT:      -8.6      4.002      9.209
REMARK  Name = 
REMARK  4 active torsions:
REMARK  status: ('A' for Active; 'I' for Inactive)
REMARK    1  A    between atoms: C_2  and  C_22
REMARK    2  A    between atoms: N_3  and  C_4
REMARK    3  A    between atoms: C_8  and  C_9
REMARK    4  A    between atoms: C_9  and  C_10
REMARK                            x       y       z     vdW  Elec       q    Type
REMARK                         _______ _______ _______ _____ _____    ______ ____
ROOT
ATOM      1  C   UNL     1       2.266   7.774  19.317  0.00  0.00    +0.000 A 
ATOM      2  C   UNL     1       1.648   7.398  20.507  0.00  0.00    +0.000 A 
ATOM      3  C   UNL     1       0.739   8.253  21.134  0.00  0.00    +0.000 A 
ATOM      4  C   UNL     1       0.417   9.478  20.555  0.00  0.00    +0.000 A 
ATOM      5  C   UNL     1       1.005   9.865  19.346  0.00  0.00    +0.000 A 
ATOM      6  C   UNL     1       1.964   9.022  18.756  0.00  0.00    +0.000 A 
ENDROOT
BRANCH   1   9
ATOM      7  O   UNL     1       1.739   5.307  17.829  0.00  0.00    +0.000 OA
ATOM      8  C   UNL     1       2.856   5.809  17.912  0.00  0.00    +0.000 C 
ATOM      9  N   UNL     1       3.176   6.945  18.628  0.00  0.00    +0.000 N 
ATOM     10  H   UNL     1       4.113   7.312  18.518  0.00  0.00    +0.000 HD
BRANCH   8  11
ATOM     11  C   UNL     1       3.966   5.138  17.168  0.00  0.00    +0.000 A 
ATOM     12  C   UNL     1       4.813   6.016  16.458  0.00  0.00    +0.000 A 
ATOM     13  C   UNL     1       5.929   5.550  15.764  0.00  0.00    +0.000 A 
ATOM     14  C   UNL     1       6.223   4.192  15.766  0.00  0.00    +0.000 A 
ATOM     15  C   UNL     1       5.399   3.306  16.459  0.00  0.00    +0.000 A 
ATOM     16  C   UNL     1       4.273   3.766  17.164  0.00  0.00    +0.000 A 
ATOM     17  I   UNL     1       3.232   2.261  18.206  0.00  0.00    +0.000 I 
ENDBRANCH   8  11
ENDBRANCH   1   9
BRANCH   5  18
ATOM     18  C   UNL     1       0.602  11.160  18.676  0.00  0.00    +0.000 C 
BRANCH  18  19
ATOM     19  C   UNL     1      -0.793  11.629  19.076  0.00  0.00    +0.000 A 
ATOM     20  N   UNL     1      -0.867  12.416  20.109  0.00  0.00    +0.000 NA
ATOM     21  N   UNL     1      -2.102  12.825  20.500  0.00  0.00    +0.000 N 
ATOM     22  C   UNL     1      -3.288  12.459  19.925  0.00  0.00    +0.000 A 
ATOM     23  O   UNL     1      -4.372  12.800  20.386  0.00  0.00    +0.000 OA
ATOM     24  C   UNL     1      -3.184  11.639  18.693  0.00  0.00    +0.000 A 
ATOM     25  C   UNL     1      -1.983  11.208  18.266  0.00  0.00    +0.000 A 
ATOM     26  C   UNL     1      -1.828  10.370  17.026  0.00  0.00    +0.000 C 
ATOM     27  C   UNL     1      -3.155   9.839  16.471  0.00  0.00    +0.000 C 
ATOM     28  C   UNL     1      -4.241  10.904  16.523  0.00  0.00    +0.000 C 
ATOM     29  C   UNL     1      -4.471  11.363  17.963  0.00  0.00    +0.000 C 
ATOM     30  H   UNL     1      -2.149  13.382  21.345  0.00  0.00    +0.000 HD
ENDBRANCH  18  19
ENDBRANCH   5  18
TORSDOF 4
ENDMDL
MODEL 9
REMARK VINA RESULT:      -8.5      3.715      9.147
REMARK  Name = 
REMARK  4 active torsions:
REMARK  status: ('A' for Active; 'I' for Inactive)
REMARK    1  A    between atoms: C_2  and  C_22
REMARK    2  A    between atoms: N_3  and  C_4
REMARK    3  A    between atoms: C_8  and  C_9
REMARK    4  A    between atoms: C_9  and  C_10
REMARK                            x       y       z     vdW  Elec       q    Type
REMARK                         _______ _______ _______ _____ _____    ______ ____
ROOT
ATOM      1  C   UNL     1       2.220   7.725  18.891  0.00  0.00    +0.000 A 
ATOM      2  C   UNL     1       1.883   7.266  20.162  0.00  0.00    +0.000 A 
ATOM      3  C   UNL     1       1.119   8.058  21.021  0.00  0.00    +0.000 A 
ATOM      4  C   UNL     1       0.657   9.303  20.601  0.00  0.00    +0.000 A 
ATOM      5  C   UNL     1       0.961   9.774  19.319  0.00  0.00    +0.000 A 
ATOM      6  C   UNL     1       1.782   8.993  18.486  0.00  0.00    +0.000 A 
ENDROOT
BRANCH   1   9
ATOM      7  O   UNL     1       4.425   5.871  19.414  0.00  0.00    +0.000 OA
ATOM      8  C   UNL     1       3.981   6.076  18.288  0.00  0.00    +0.000 C 
ATOM      9  N   UNL     1       2.972   6.963  17.972  0.00  0.00    +0.000 N 
ATOM     10  H   UNL     1       2.626   6.950  17.021  0.00  0.00    +0.000 HD
BRANCH   8  11
ATOM     11  C   UNL     1       4.576   5.292  17.163  0.00  0.00    +0.000 A 
ATOM     12  C   UNL     1       5.411   6.037  16.304  0.00  0.00    +0.000 A 
ATOM     13  C   UNL     1       6.089   5.436  15.243  0.00  0.00    +0.000 A 
ATOM     14  C   UNL     1       5.944   4.072  15.020  0.00  0.00    +0.000 A 
ATOM     15  C   UNL     1       5.121   3.316  15.855  0.00  0.00    +0.000 A 
ATOM     16  C   UNL     1       4.437   3.912  16.928  0.00  0.00    +0.000 A 
ATOM     17  I   UNL     1       3.327   2.562  18.102  0.00  0.00    +0.000 I 
ENDBRANCH   8  11
ENDBRANCH   1   9
BRANCH   5  18
ATOM     18  C   UNL     1       0.400  11.091  18.832  0.00  0.00    +0.000 C 
BRANCH  18  19
ATOM     19  C   UNL     1      -1.083  11.014  18.482  0.00  0.00    +0.000 A 
ATOM     20  N   UNL     1      -1.413  10.198  17.524  0.00  0.00    +0.000 NA
ATOM     21  N   UNL     1      -2.724  10.133  17.177  0.00  0.00    +0.000 N 
ATOM     22  C   UNL     1      -3.736  10.875  17.722  0.00  0.00    +0.000 A 
ATOM     23  O   UNL     1      -4.886  10.825  17.299  0.00  0.00    +0.000 OA
ATOM     24  C   UNL     1      -3.362  11.731  18.875  0.00  0.00    +0.000 A 
ATOM     25  C   UNL     1      -2.075  11.829  19.256  0.00  0.00    +0.000 A 
ATOM     26  C   UNL     1      -1.647  12.688  20.414  0.00  0.00    +0.000 C 
ATOM     27  C   UNL     1      -2.747  13.626  20.925  0.00  0.00    +0.000 C 
ATOM     28  C   UNL     1      -4.095  12.922  20.975  0.00  0.00    +0.000 C 
ATOM     29  C   UNL     1      -4.492  12.429  19.583  0.00  0.00    +0.000 C 
ATOM     30  H   UNL     1      -2.956   9.543  16.386  0.00  0.00    +0.000 HD
ENDBRANCH  18  19
ENDBRANCH   5  18
TORSDOF 4
ENDMDL
