MODEL 1
REMARK VINA RESULT:      -8.1      0.000      0.000
REMARK  Name = 
REMARK  5 active torsions:
REMARK  status: ('A' for Active; 'I' for Inactive)
REMARK    1  A    between atoms: C_1  and  C_2
REMARK    2  A    between atoms: C_2  and  N_3
REMARK    3  A    between atoms: C_8  and  C_9
REMARK    4  A    between atoms: C_12  and  S_13
REMARK    5  A    between atoms: S_13  and  C_14
REMARK                            x       y       z     vdW  Elec       q    Type
REMARK                         _______ _______ _______ _____ _____    ______ ____
ROOT
ATOM      1  C   UNL     1       1.702   4.761  20.421  0.00  0.00    +0.000 A 
ATOM      2  C   UNL     1       1.168   3.539  20.810  0.00  0.00    +0.000 A 
ATOM      3  C   UNL     1       1.826   2.526  20.071  0.00  0.00    +0.000 A 
ATOM      4  C   UNL     1       2.755   3.157  19.274  0.00  0.00    +0.000 A 
ATOM      5  O   UNL     1       2.669   4.500  19.479  0.00  0.00    +0.000 OA
ENDROOT
BRANCH   1  11
ATOM      6  N   UNL     1       1.324   9.486  19.774  0.00  0.00    +0.000 N 
ATOM      7  C   UNL     1       1.774   9.088  18.545  0.00  0.00    +0.000 C 
ATOM      8  O   UNL     1       2.014   9.801  17.582  0.00  0.00    +0.000 OA
ATOM      9  S   UNL     1       1.989   7.353  18.518  0.00  0.00    +0.000 S 
ATOM     10  C   UNL     1       1.517   7.180  20.164  0.00  0.00    +0.000 C 
ATOM     11  C   UNL     1       1.386   6.064  20.894  0.00  0.00    +0.000 C 
ATOM     12  C   UNL     1       1.202   8.514  20.740  0.00  0.00    +0.000 C 
ATOM     13  O   UNL     1       0.899   8.696  21.911  0.00  0.00    +0.000 OA
BRANCH   6  15
ATOM     14  C   UNL     1      -0.342  11.297  19.801  0.00  0.00    +0.000 C 
ATOM     15  C   UNL     1       1.098  10.888  20.074  0.00  0.00    +0.000 C 
ENDBRANCH   6  15
ENDBRANCH   1  11
BRANCH   4  16
ATOM     16  S   UNL     1       3.878   2.494  18.117  0.00  0.00    +0.000 S 
BRANCH  16  17
ATOM     17  C   UNL     1       4.945   3.845  17.997  0.00  0.00    +0.000 A 
ATOM     18  N   UNL     1       4.947   4.802  17.100  0.00  0.00    +0.000 NA
ATOM     19  C   UNL     1       5.985   5.624  17.464  0.00  0.00    +0.000 A 
ATOM     20  C   UNL     1       6.459   6.790  16.846  0.00  0.00    +0.000 A 
ATOM     21  C   UNL     1       7.549   7.457  17.417  0.00  0.00    +0.000 A 
ATOM     22  C   UNL     1       8.150   6.976  18.584  0.00  0.00    +0.000 A 
ATOM     23  C   UNL     1       7.691   5.815  19.218  0.00  0.00    +0.000 A 
ATOM     24  C   UNL     1       6.607   5.165  18.622  0.00  0.00    +0.000 A 
ATOM     25  N   UNL     1       5.913   4.027  18.944  0.00  0.00    +0.000 N 
ATOM     26  H   UNL     1       6.085   3.414  19.727  0.00  0.00    +0.000 HD
ENDBRANCH  16  17
ENDBRANCH   4  16
TORSDOF 4
ENDMDL
MODEL 2
REMARK VINA RESULT:      -7.8      0.613      1.280
REMARK  Name = 
REMARK  5 active torsions:
REMARK  status: ('A' for Active; 'I' for Inactive)
REMARK    1  A    between atoms: C_1  and  C_2
REMARK    2  A    between atoms: C_2  and  N_3
REMARK    3  A    between atoms: C_8  and  C_9
REMARK    4  A    between atoms: C_12  and  S_13
REMARK    5  A    between atoms: S_13  and  C_14
REMARK                            x       y       z     vdW  Elec       q    Type
REMARK                         _______ _______ _______ _____ _____    ______ ____
ROOT
ATOM      1  C   UNL     1       1.665   5.103  20.517  0.00  0.00    +0.000 A 
ATOM      2  C   UNL     1       0.851   3.979  20.450  0.00  0.00    +0.000 A 
ATOM      3  C   UNL     1       1.651   2.892  20.020  0.00  0.00    +0.000 A 
ATOM      4  C   UNL     1       2.930   3.380  19.863  0.00  0.00    +0.000 A 
ATOM      5  O   UNL     1       2.931   4.710  20.152  0.00  0.00    +0.000 OA
ENDROOT
BRANCH   1  11
ATOM      6  N   UNL     1       1.300   9.792  19.647  0.00  0.00    +0.000 N 
ATOM      7  C   UNL     1       1.795   9.342  18.454  0.00  0.00    +0.000 C 
ATOM      8  O   UNL     1       2.068  10.012  17.469  0.00  0.00    +0.000 OA
ATOM      9  S   UNL     1       2.015   7.609  18.513  0.00  0.00    +0.000 S 
ATOM     10  C   UNL     1       1.484   7.507  20.146  0.00  0.00    +0.000 C 
ATOM     11  C   UNL     1       1.329   6.425  20.921  0.00  0.00    +0.000 C 
ATOM     12  C   UNL     1       1.146   8.864  20.650  0.00  0.00    +0.000 C 
ATOM     13  O   UNL     1       0.800   9.098  21.800  0.00  0.00    +0.000 OA
BRANCH   6  15
ATOM     14  C   UNL     1      -0.377  11.591  19.560  0.00  0.00    +0.000 C 
ATOM     15  C   UNL     1       1.060  11.206  19.875  0.00  0.00    +0.000 C 
ENDBRANCH   6  15
ENDBRANCH   1  11
BRANCH   4  16
ATOM     16  S   UNL     1       4.384   2.572  19.341  0.00  0.00    +0.000 S 
BRANCH  16  17
ATOM     17  C   UNL     1       5.314   3.965  18.929  0.00  0.00    +0.000 A 
ATOM     18  N   UNL     1       6.484   4.330  19.399  0.00  0.00    +0.000 NA
ATOM     19  C   UNL     1       6.780   5.497  18.739  0.00  0.00    +0.000 A 
ATOM     20  C   UNL     1       7.898   6.333  18.866  0.00  0.00    +0.000 A 
ATOM     21  C   UNL     1       7.969   7.484  18.072  0.00  0.00    +0.000 A 
ATOM     22  C   UNL     1       6.949   7.792  17.167  0.00  0.00    +0.000 A 
ATOM     23  C   UNL     1       5.825   6.968  17.023  0.00  0.00    +0.000 A 
ATOM     24  C   UNL     1       5.778   5.831  17.833  0.00  0.00    +0.000 A 
ATOM     25  N   UNL     1       4.855   4.826  17.973  0.00  0.00    +0.000 N 
ATOM     26  H   UNL     1       3.980   4.734  17.477  0.00  0.00    +0.000 HD
ENDBRANCH  16  17
ENDBRANCH   4  16
TORSDOF 4
ENDMDL
MODEL 3
REMARK VINA RESULT:      -7.8      2.813      3.822
REMARK  Name = 
REMARK  5 active torsions:
REMARK  status: ('A' for Active; 'I' for Inactive)
REMARK    1  A    between atoms: C_1  and  C_2
REMARK    2  A    between atoms: C_2  and  N_3
REMARK    3  A    between atoms: C_8  and  C_9
REMARK    4  A    between atoms: C_12  and  S_13
REMARK    5  A    between atoms: S_13  and  C_14
REMARK                            x       y       z     vdW  Elec       q    Type
REMARK                         _______ _______ _______ _____ _____    ______ ____
ROOT
ATOM      1  C   UNL     1       2.898   6.793  18.109  0.00  0.00    +0.000 A 
ATOM      2  C   UNL     1       2.363   5.512  18.052  0.00  0.00    +0.000 A 
ATOM      3  C   UNL     1       3.442   4.595  18.041  0.00  0.00    +0.000 A 
ATOM      4  C   UNL     1       4.598   5.342  18.117  0.00  0.00    +0.000 A 
ATOM      5  O   UNL     1       4.266   6.662  18.146  0.00  0.00    +0.000 OA
ENDROOT
BRANCH   1  11
ATOM      6  N   UNL     1       0.454  10.138  20.500  0.00  0.00    +0.000 N 
ATOM      7  C   UNL     1       0.669   9.215  21.487  0.00  0.00    +0.000 C 
ATOM      8  O   UNL     1       0.295   9.277  22.649  0.00  0.00    +0.000 OA
ATOM      9  S   UNL     1       1.575   7.861  20.853  0.00  0.00    +0.000 S 
ATOM     10  C   UNL     1       1.622   8.521  19.265  0.00  0.00    +0.000 C 
ATOM     11  C   UNL     1       2.218   8.042  18.165  0.00  0.00    +0.000 C 
ATOM     12  C   UNL     1       0.896   9.819  19.238  0.00  0.00    +0.000 C 
ATOM     13  O   UNL     1       0.718  10.480  18.224  0.00  0.00    +0.000 OA
BRANCH   6  15
ATOM     14  C   UNL     1       0.593  12.520  21.103  0.00  0.00    +0.000 C 
ATOM     15  C   UNL     1      -0.310  11.347  20.756  0.00  0.00    +0.000 C 
ENDBRANCH   6  15
ENDBRANCH   1  11
BRANCH   4  16
ATOM     16  S   UNL     1       6.265   4.834  18.129  0.00  0.00    +0.000 S 
BRANCH  16  17
ATOM     17  C   UNL     1       6.512   4.737  16.424  0.00  0.00    +0.000 A 
ATOM     18  N   UNL     1       7.375   5.398  15.689  0.00  0.00    +0.000 NA
ATOM     19  C   UNL     1       7.167   4.945  14.409  0.00  0.00    +0.000 A 
ATOM     20  C   UNL     1       7.795   5.326  13.215  0.00  0.00    +0.000 A 
ATOM     21  C   UNL     1       7.399   4.710  12.022  0.00  0.00    +0.000 A 
ATOM     22  C   UNL     1       6.402   3.730  12.020  0.00  0.00    +0.000 A 
ATOM     23  C   UNL     1       5.764   3.333  13.202  0.00  0.00    +0.000 A 
ATOM     24  C   UNL     1       6.174   3.970  14.376  0.00  0.00    +0.000 A 
ATOM     25  N   UNL     1       5.778   3.853  15.685  0.00  0.00    +0.000 N 
ATOM     26  H   UNL     1       5.063   3.241  16.048  0.00  0.00    +0.000 HD
ENDBRANCH  16  17
ENDBRANCH   4  16
TORSDOF 4
ENDMDL
MODEL 4
REMARK VINA RESULT:      -7.8      2.875      3.866
REMARK  Name = 
REMARK  5 active torsions:
REMARK  status: ('A' for Active; 'I' for Inactive)
REMARK    1  A    between atoms: C_1  and  C_2
REMARK    2  A    between atoms: C_2  and  N_3
REMARK    3  A    between atoms: C_8  and  C_9
REMARK    4  A    between atoms: C_12  and  S_13
REMARK    5  A    between atoms: S_13  and  C_14
REMARK                            x       y       z     vdW  Elec       q    Type
REMARK                         _______ _______ _______ _____ _____    ______ ____
ROOT
ATOM      1  C   UNL     1       3.015   6.689  18.121  0.00  0.00    +0.000 A 
ATOM      2  C   UNL     1       2.541   5.390  18.248  0.00  0.00    +0.000 A 
ATOM      3  C   UNL     1       3.657   4.518  18.209  0.00  0.00    +0.000 A 
ATOM      4  C   UNL     1       4.776   5.313  18.084  0.00  0.00    +0.000 A 
ATOM      5  O   UNL     1       4.384   6.615  18.020  0.00  0.00    +0.000 OA
ENDROOT
BRANCH   1  11
ATOM      6  N   UNL     1       0.425  10.017  20.380  0.00  0.00    +0.000 N 
ATOM      7  C   UNL     1       0.673   9.140  21.401  0.00  0.00    +0.000 C 
ATOM      8  O   UNL     1       0.291   9.229  22.558  0.00  0.00    +0.000 OA
ATOM      9  S   UNL     1       1.637   7.802  20.820  0.00  0.00    +0.000 S 
ATOM     10  C   UNL     1       1.664   8.405  19.208  0.00  0.00    +0.000 C 
ATOM     11  C   UNL     1       2.284   7.910  18.129  0.00  0.00    +0.000 C 
ATOM     12  C   UNL     1       0.886   9.670  19.132  0.00  0.00    +0.000 C 
ATOM     13  O   UNL     1       0.685  10.284  18.093  0.00  0.00    +0.000 OA
BRANCH   6  15
ATOM     14  C   UNL     1       0.460  12.412  20.943  0.00  0.00    +0.000 C 
ATOM     15  C   UNL     1      -0.389  11.201  20.588  0.00  0.00    +0.000 C 
ENDBRANCH   6  15
ENDBRANCH   1  11
BRANCH   4  16
ATOM     16  S   UNL     1       6.458   4.873  17.962  0.00  0.00    +0.000 S 
BRANCH  16  17
ATOM     17  C   UNL     1       6.527   4.605  16.259  0.00  0.00    +0.000 A 
ATOM     18  N   UNL     1       5.804   3.784  15.536  0.00  0.00    +0.000 NA
ATOM     19  C   UNL     1       6.248   3.964  14.249  0.00  0.00    +0.000 A 
ATOM     20  C   UNL     1       5.842   3.326  13.068  0.00  0.00    +0.000 A 
ATOM     21  C   UNL     1       6.457   3.689  11.864  0.00  0.00    +0.000 A 
ATOM     22  C   UNL     1       7.451   4.672  11.837  0.00  0.00    +0.000 A 
ATOM     23  C   UNL     1       7.869   5.323  13.004  0.00  0.00    +0.000 A 
ATOM     24  C   UNL     1       7.244   4.936  14.191  0.00  0.00    +0.000 A 
ATOM     25  N   UNL     1       7.395   5.333  15.496  0.00  0.00    +0.000 N 
ATOM     26  H   UNL     1       8.041   6.026  15.846  0.00  0.00    +0.000 HD
ENDBRANCH  16  17
ENDBRANCH   4  16
TORSDOF 4
ENDMDL
MODEL 5
REMARK VINA RESULT:      -7.6      4.573      7.194
REMARK  Name = 
REMARK  5 active torsions:
REMARK  status: ('A' for Active; 'I' for Inactive)
REMARK    1  A    between atoms: C_1  and  C_2
REMARK    2  A    between atoms: C_2  and  N_3
REMARK    3  A    between atoms: C_8  and  C_9
REMARK    4  A    between atoms: C_12  and  S_13
REMARK    5  A    between atoms: S_13  and  C_14
REMARK                            x       y       z     vdW  Elec       q    Type
REMARK                         _______ _______ _______ _____ _____    ______ ____
ROOT
ATOM      1  C   UNL     1       7.796   8.279  17.774  0.00  0.00    +0.000 A 
ATOM      2  C   UNL     1       8.324   7.557  18.836  0.00  0.00    +0.000 A 
ATOM      3  C   UNL     1       7.954   6.201  18.661  0.00  0.00    +0.000 A 
ATOM      4  C   UNL     1       7.236   6.135  17.488  0.00  0.00    +0.000 A 
ATOM      5  O   UNL     1       7.133   7.387  16.964  0.00  0.00    +0.000 OA
ENDROOT
BRANCH   1  11
ATOM      6  N   UNL     1       9.527  12.628  18.761  0.00  0.00    +0.000 N 
ATOM      7  C   UNL     1      10.084  11.889  19.769  0.00  0.00    +0.000 C 
ATOM      8  O   UNL     1      10.809  12.294  20.666  0.00  0.00    +0.000 OA
ATOM      9  S   UNL     1       9.599  10.216  19.624  0.00  0.00    +0.000 S 
ATOM     10  C   UNL     1       8.622  10.527  18.242  0.00  0.00    +0.000 C 
ATOM     11  C   UNL     1       7.916   9.669  17.493  0.00  0.00    +0.000 C 
ATOM     12  C   UNL     1       8.671  11.975  17.907  0.00  0.00    +0.000 C 
ATOM     13  O   UNL     1       8.020  12.488  17.007  0.00  0.00    +0.000 OA
BRANCH   6  15
ATOM     14  C   UNL     1      10.907  14.399  17.753  0.00  0.00    +0.000 C 
ATOM     15  C   UNL     1       9.744  14.061  18.673  0.00  0.00    +0.000 C 
ENDBRANCH   6  15
ENDBRANCH   1  11
BRANCH   4  16
ATOM     16  S   UNL     1       6.480   4.770  16.708  0.00  0.00    +0.000 S 
BRANCH  16  17
ATOM     17  C   UNL     1       5.228   4.483  17.860  0.00  0.00    +0.000 A 
ATOM     18  N   UNL     1       4.126   5.169  18.051  0.00  0.00    +0.000 NA
ATOM     19  C   UNL     1       3.478   4.519  19.071  0.00  0.00    +0.000 A 
ATOM     20  C   UNL     1       2.263   4.830  19.698  0.00  0.00    +0.000 A 
ATOM     21  C   UNL     1       1.808   4.001  20.730  0.00  0.00    +0.000 A 
ATOM     22  C   UNL     1       2.546   2.880  21.124  0.00  0.00    +0.000 A 
ATOM     23  C   UNL     1       3.759   2.550  20.509  0.00  0.00    +0.000 A 
ATOM     24  C   UNL     1       4.193   3.399  19.488  0.00  0.00    +0.000 A 
ATOM     25  N   UNL     1       5.307   3.399  18.687  0.00  0.00    +0.000 N 
ATOM     26  H   UNL     1       6.065   2.734  18.706  0.00  0.00    +0.000 HD
ENDBRANCH  16  17
ENDBRANCH   4  16
TORSDOF 4
ENDMDL
MODEL 6
REMARK VINA RESULT:      -7.5      1.267      1.612
REMARK  Name = 
REMARK  5 active torsions:
REMARK  status: ('A' for Active; 'I' for Inactive)
REMARK    1  A    between atoms: C_1  and  C_2
REMARK    2  A    between atoms: C_2  and  N_3
REMARK    3  A    between atoms: C_8  and  C_9
REMARK    4  A    between atoms: C_12  and  S_13
REMARK    5  A    between atoms: S_13  and  C_14
REMARK                            x       y       z     vdW  Elec       q    Type
REMARK                         _______ _______ _______ _____ _____    ______ ____
ROOT
ATOM      1  C   UNL     1       1.610   5.166  20.663  0.00  0.00    +0.000 A 
ATOM      2  C   UNL     1       0.754   4.091  20.453  0.00  0.00    +0.000 A 
ATOM      3  C   UNL     1       1.552   2.947  20.208  0.00  0.00    +0.000 A 
ATOM      4  C   UNL     1       2.865   3.352  20.302  0.00  0.00    +0.000 A 
ATOM      5  O   UNL     1       2.895   4.688  20.564  0.00  0.00    +0.000 OA
ENDROOT
BRANCH   1  11
ATOM      6  N   UNL     1       1.350   9.793  19.480  0.00  0.00    +0.000 N 
ATOM      7  C   UNL     1       1.869   9.258  18.333  0.00  0.00    +0.000 C 
ATOM      8  O   UNL     1       2.179   9.858  17.314  0.00  0.00    +0.000 OA
ATOM      9  S   UNL     1       2.056   7.529  18.510  0.00  0.00    +0.000 S 
ATOM     10  C   UNL     1       1.481   7.543  20.131  0.00  0.00    +0.000 C 
ATOM     11  C   UNL     1       1.287   6.516  20.970  0.00  0.00    +0.000 C 
ATOM     12  C   UNL     1       1.153   8.936  20.537  0.00  0.00    +0.000 C 
ATOM     13  O   UNL     1       0.782   9.249  21.659  0.00  0.00    +0.000 OA
BRANCH   6  15
ATOM     14  C   UNL     1      -0.283  11.613  19.201  0.00  0.00    +0.000 C 
ATOM     15  C   UNL     1       1.129  11.222  19.609  0.00  0.00    +0.000 C 
ENDBRANCH   6  15
ENDBRANCH   1  11
BRANCH   4  16
ATOM     16  S   UNL     1       4.339   2.443  20.093  0.00  0.00    +0.000 S 
BRANCH  16  17
ATOM     17  C   UNL     1       4.897   3.196  18.644  0.00  0.00    +0.000 A 
ATOM     18  N   UNL     1       4.309   3.238  17.472  0.00  0.00    +0.000 NA
ATOM     19  C   UNL     1       5.163   3.961  16.676  0.00  0.00    +0.000 A 
ATOM     20  C   UNL     1       5.048   4.297  15.319  0.00  0.00    +0.000 A 
ATOM     21  C   UNL     1       6.067   5.052  14.727  0.00  0.00    +0.000 A 
ATOM     22  C   UNL     1       7.174   5.469  15.471  0.00  0.00    +0.000 A 
ATOM     23  C   UNL     1       7.306   5.147  16.828  0.00  0.00    +0.000 A 
ATOM     24  C   UNL     1       6.279   4.387  17.391  0.00  0.00    +0.000 A 
ATOM     25  N   UNL     1       6.076   3.886  18.653  0.00  0.00    +0.000 N 
ATOM     26  H   UNL     1       6.687   3.987  19.449  0.00  0.00    +0.000 HD
ENDBRANCH  16  17
ENDBRANCH   4  16
TORSDOF 4
ENDMDL
MODEL 7
REMARK VINA RESULT:      -7.4      3.105      8.391
REMARK  Name = 
REMARK  5 active torsions:
REMARK  status: ('A' for Active; 'I' for Inactive)
REMARK    1  A    between atoms: C_1  and  C_2
REMARK    2  A    between atoms: C_2  and  N_3
REMARK    3  A    between atoms: C_8  and  C_9
REMARK    4  A    between atoms: C_12  and  S_13
REMARK    5  A    between atoms: S_13  and  C_14
REMARK                            x       y       z     vdW  Elec       q    Type
REMARK                         _______ _______ _______ _____ _____    ______ ____
ROOT
ATOM      1  C   UNL     1       2.560   7.858  18.577  0.00  0.00    +0.000 A 
ATOM      2  C   UNL     1       2.189   7.101  19.682  0.00  0.00    +0.000 A 
ATOM      3  C   UNL     1       1.388   7.919  20.515  0.00  0.00    +0.000 A 
ATOM      4  C   UNL     1       1.274   9.138  19.883  0.00  0.00    +0.000 A 
ATOM      5  O   UNL     1       1.989   9.100  18.725  0.00  0.00    +0.000 OA
ENDROOT
BRANCH   1  11
ATOM      6  N   UNL     1       6.113   5.339  16.599  0.00  0.00    +0.000 N 
ATOM      7  C   UNL     1       6.208   4.944  17.906  0.00  0.00    +0.000 C 
ATOM      8  O   UNL     1       7.018   4.164  18.383  0.00  0.00    +0.000 OA
ATOM      9  S   UNL     1       4.978   5.738  18.862  0.00  0.00    +0.000 S 
ATOM     10  C   UNL     1       4.376   6.624  17.515  0.00  0.00    +0.000 C 
ATOM     11  C   UNL     1       3.341   7.472  17.453  0.00  0.00    +0.000 C 
ATOM     12  C   UNL     1       5.171   6.296  16.302  0.00  0.00    +0.000 C 
ATOM     13  O   UNL     1       5.003   6.827  15.213  0.00  0.00    +0.000 OA
BRANCH   6  15
ATOM     14  C   UNL     1       6.364   3.936  14.593  0.00  0.00    +0.000 C 
ATOM     15  C   UNL     1       7.045   4.852  15.598  0.00  0.00    +0.000 C 
ENDBRANCH   6  15
ENDBRANCH   1  11
BRANCH   4  16
ATOM     16  S   UNL     1       0.441  10.587  20.378  0.00  0.00    +0.000 S 
BRANCH  16  17
ATOM     17  C   UNL     1      -0.766  10.619  19.146  0.00  0.00    +0.000 A 
ATOM     18  N   UNL     1      -0.751  10.021  17.978  0.00  0.00    +0.000 NA
ATOM     19  C   UNL     1      -1.946  10.361  17.393  0.00  0.00    +0.000 A 
ATOM     20  C   UNL     1      -2.450  10.019  16.130  0.00  0.00    +0.000 A 
ATOM     21  C   UNL     1      -3.712  10.499  15.759  0.00  0.00    +0.000 A 
ATOM     22  C   UNL     1      -4.458  11.297  16.631  0.00  0.00    +0.000 A 
ATOM     23  C   UNL     1      -3.974  11.648  17.897  0.00  0.00    +0.000 A 
ATOM     24  C   UNL     1      -2.710  11.162  18.238  0.00  0.00    +0.000 A 
ATOM     25  N   UNL     1      -1.929  11.304  19.357  0.00  0.00    +0.000 N 
ATOM     26  H   UNL     1      -2.153  11.830  20.189  0.00  0.00    +0.000 HD
ENDBRANCH  16  17
ENDBRANCH   4  16
TORSDOF 4
ENDMDL
MODEL 8
REMARK VINA RESULT:      -7.3      3.008      8.169
REMARK  Name = 
REMARK  5 active torsions:
REMARK  status: ('A' for Active; 'I' for Inactive)
REMARK    1  A    between atoms: C_1  and  C_2
REMARK    2  A    between atoms: C_2  and  N_3
REMARK    3  A    between atoms: C_8  and  C_9
REMARK    4  A    between atoms: C_12  and  S_13
REMARK    5  A    between atoms: S_13  and  C_14
REMARK                            x       y       z     vdW  Elec       q    Type
REMARK                         _______ _______ _______ _____ _____    ______ ____
ROOT
ATOM      1  C   UNL     1       2.299   6.976  19.023  0.00  0.00    +0.000 A 
ATOM      2  C   UNL     1       1.788   7.002  20.314  0.00  0.00    +0.000 A 
ATOM      3  C   UNL     1       1.448   8.343  20.617  0.00  0.00    +0.000 A 
ATOM      4  C   UNL     1       1.738   9.087  19.494  0.00  0.00    +0.000 A 
ATOM      5  O   UNL     1       2.260   8.264  18.544  0.00  0.00    +0.000 OA
ENDROOT
BRANCH   1  11
ATOM      6  N   UNL     1       5.613   4.776  16.366  0.00  0.00    +0.000 N 
ATOM      7  C   UNL     1       6.239   5.962  16.636  0.00  0.00    +0.000 C 
ATOM      8  O   UNL     1       7.345   6.315  16.256  0.00  0.00    +0.000 OA
ATOM      9  S   UNL     1       5.211   6.969  17.628  0.00  0.00    +0.000 S 
ATOM     10  C   UNL     1       3.936   5.814  17.637  0.00  0.00    +0.000 C 
ATOM     11  C   UNL     1       2.754   5.861  18.265  0.00  0.00    +0.000 C 
ATOM     12  C   UNL     1       4.328   4.627  16.831  0.00  0.00    +0.000 C 
ATOM     13  O   UNL     1       3.588   3.677  16.613  0.00  0.00    +0.000 OA
BRANCH   6  15
ATOM     14  C   UNL     1       5.982   4.030  14.050  0.00  0.00    +0.000 C 
ATOM     15  C   UNL     1       6.239   3.770  15.526  0.00  0.00    +0.000 C 
ENDBRANCH   6  15
ENDBRANCH   1  11
BRANCH   4  16
ATOM     16  S   UNL     1       1.571  10.799  19.208  0.00  0.00    +0.000 S 
BRANCH  16  17
ATOM     17  C   UNL     1      -0.059  10.804  18.644  0.00  0.00    +0.000 A 
ATOM     18  N   UNL     1      -1.082  11.472  19.122  0.00  0.00    +0.000 NA
ATOM     19  C   UNL     1      -2.136  11.131  18.311  0.00  0.00    +0.000 A 
ATOM     20  C   UNL     1      -3.478  11.533  18.375  0.00  0.00    +0.000 A 
ATOM     21  C   UNL     1      -4.373  11.038  17.419  0.00  0.00    +0.000 A 
ATOM     22  C   UNL     1      -3.939  10.166  16.417  0.00  0.00    +0.000 A 
ATOM     23  C   UNL     1      -2.603   9.754  16.334  0.00  0.00    +0.000 A 
ATOM     24  C   UNL     1      -1.733  10.257  17.304  0.00  0.00    +0.000 A 
ATOM     25  N   UNL     1      -0.395  10.072  17.541  0.00  0.00    +0.000 N 
ATOM     26  H   UNL     1       0.238   9.490  17.013  0.00  0.00    +0.000 HD
ENDBRANCH  16  17
ENDBRANCH   4  16
TORSDOF 4
ENDMDL
MODEL 9
REMARK VINA RESULT:      -7.3      1.763      2.635
REMARK  Name = 
REMARK  5 active torsions:
REMARK  status: ('A' for Active; 'I' for Inactive)
REMARK    1  A    between atoms: C_1  and  C_2
REMARK    2  A    between atoms: C_2  and  N_3
REMARK    3  A    between atoms: C_8  and  C_9
REMARK    4  A    between atoms: C_12  and  S_13
REMARK    5  A    between atoms: S_13  and  C_14
REMARK                            x       y       z     vdW  Elec       q    Type
REMARK                         _______ _______ _______ _____ _____    ______ ____
ROOT
ATOM      1  C   UNL     1       2.192   6.334  19.783  0.00  0.00    +0.000 A 
ATOM      2  C   UNL     1       1.492   5.775  20.845  0.00  0.00    +0.000 A 
ATOM      3  C   UNL     1       2.001   4.470  21.057  0.00  0.00    +0.000 A 
ATOM      4  C   UNL     1       3.010   4.284  20.137  0.00  0.00    +0.000 A 
ATOM      5  O   UNL     1       3.113   5.401  19.366  0.00  0.00    +0.000 OA
ENDROOT
BRANCH   1  11
ATOM      6  N   UNL     1       0.935  10.940  20.073  0.00  0.00    +0.000 N 
ATOM      7  C   UNL     1       0.611  10.500  21.328  0.00  0.00    +0.000 C 
ATOM      8  O   UNL     1       0.117  11.155  22.234  0.00  0.00    +0.000 OA
ATOM      9  S   UNL     1       0.993   8.801  21.484  0.00  0.00    +0.000 S 
ATOM     10  C   UNL     1       1.543   8.684  19.858  0.00  0.00    +0.000 C 
ATOM     11  C   UNL     1       2.063   7.631  19.213  0.00  0.00    +0.000 C 
ATOM     12  C   UNL     1       1.405  10.002  19.184  0.00  0.00    +0.000 C 
ATOM     13  O   UNL     1       1.662  10.194  18.004  0.00  0.00    +0.000 OA
BRANCH   6  15
ATOM     14  C   UNL     1      -0.670  12.459  18.991  0.00  0.00    +0.000 C 
ATOM     15  C   UNL     1       0.683  12.312  19.670  0.00  0.00    +0.000 C 
ENDBRANCH   6  15
ENDBRANCH   1  11
BRANCH   4  16
ATOM     16  S   UNL     1       4.027   2.897  19.851  0.00  0.00    +0.000 S 
BRANCH  16  17
ATOM     17  C   UNL     1       4.748   3.413  18.371  0.00  0.00    +0.000 A 
ATOM     18  N   UNL     1       4.273   3.300  17.153  0.00  0.00    +0.000 NA
ATOM     19  C   UNL     1       5.225   3.874  16.348  0.00  0.00    +0.000 A 
ATOM     20  C   UNL     1       5.251   4.010  14.953  0.00  0.00    +0.000 A 
ATOM     21  C   UNL     1       6.351   4.641  14.360  0.00  0.00    +0.000 A 
ATOM     22  C   UNL     1       7.401   5.132  15.142  0.00  0.00    +0.000 A 
ATOM     23  C   UNL     1       7.394   5.008  16.536  0.00  0.00    +0.000 A 
ATOM     24  C   UNL     1       6.288   4.368  17.101  0.00  0.00    +0.000 A 
ATOM     25  N   UNL     1       5.949   4.063  18.395  0.00  0.00    +0.000 N 
ATOM     26  H   UNL     1       6.488   4.263  19.224  0.00  0.00    +0.000 HD
ENDBRANCH  16  17
ENDBRANCH   4  16
TORSDOF 4
ENDMDL
