MODEL 1
REMARK VINA RESULT:      -8.1      0.000      0.000
REMARK  Name = 
REMARK  9 active torsions:
REMARK  status: ('A' for Active; 'I' for Inactive)
REMARK    1  A    between atoms: C_1  and  O_2
REMARK    2  A    between atoms: O_2  and  C_3
REMARK    3  A    between atoms: C_6  and  C_7
REMARK    4  A    between atoms: C_7  and  C_8
REMARK    5  A    between atoms: C_9  and  C_10
REMARK    6  A    between atoms: C_10  and  C_11
REMARK    7  A    between atoms: C_14  and  O_15
REMARK    8  A    between atoms: O_15  and  C_16
REMARK    9  A    between atoms: C_19  and  O_20
REMARK                            x       y       z     vdW  Elec       q    Type
REMARK                         _______ _______ _______ _____ _____    ______ ____
ROOT
ATOM      1  C   UNL     1       5.528   6.257  16.729  0.00  0.00    +0.000 C 
ATOM      2  C   UNL     1       5.766   4.942  16.778  0.00  0.00    +0.000 C 
ATOM      3  C   UNL     1       7.181   4.702  17.136  0.00  0.00    +0.000 C 
ATOM      4  O   UNL     1       7.778   5.985  17.171  0.00  0.00    +0.000 OA
ATOM      5  C   UNL     1       6.807   6.920  17.012  0.00  0.00    +0.000 C 
ATOM      6  O   UNL     1       6.972   8.125  17.086  0.00  0.00    +0.000 OA
ENDROOT
BRANCH   3   7
ATOM      7  O   UNL     1       7.296   4.114  18.413  0.00  0.00    +0.000 OA
ATOM      8  H   UNL     1       7.197   4.841  19.053  0.00  0.00    +0.000 HD
ENDBRANCH   3   7
BRANCH   1   9
ATOM      9  C   UNL     1       4.272   7.025  16.508  0.00  0.00    +0.000 C 
BRANCH   9  13
ATOM     10  C   UNL     1       1.847   7.697  20.027  0.00  0.00    +0.000 A 
ATOM     11  C   UNL     1       1.802   8.590  18.956  0.00  0.00    +0.000 A 
ATOM     12  C   UNL     1       2.594   8.383  17.823  0.00  0.00    +0.000 A 
ATOM     13  C   UNL     1       3.462   7.284  17.755  0.00  0.00    +0.000 A 
ATOM     14  C   UNL     1       3.521   6.407  18.845  0.00  0.00    +0.000 A 
ATOM     15  C   UNL     1       2.723   6.614  19.975  0.00  0.00    +0.000 A 
BRANCH  10  17
ATOM     16  C   UNL     1       0.926   9.380  21.404  0.00  0.00    +0.000 C 
ATOM     17  O   UNL     1       1.025   7.996  21.077  0.00  0.00    +0.000 OA
ENDBRANCH  10  17
ENDBRANCH   9  13
ENDBRANCH   1   9
BRANCH   2  18
ATOM     18  C   UNL     1       4.841   3.833  16.390  0.00  0.00    +0.000 C 
BRANCH  18  19
ATOM     19  C   UNL     1       3.791   3.473  17.412  0.00  0.00    +0.000 A 
ATOM     20  C   UNL     1       4.163   2.977  18.669  0.00  0.00    +0.000 A 
ATOM     21  C   UNL     1       3.193   2.681  19.631  0.00  0.00    +0.000 A 
ATOM     22  C   UNL     1       1.841   2.889  19.361  0.00  0.00    +0.000 A 
ATOM     23  C   UNL     1       1.462   3.369  18.109  0.00  0.00    +0.000 A 
ATOM     24  C   UNL     1       2.432   3.675  17.151  0.00  0.00    +0.000 A 
BRANCH  22  25
ATOM     25  O   UNL     1       0.978   2.568  20.372  0.00  0.00    +0.000 OA
ATOM     26  C   UNL     1       1.533   2.625  21.683  0.00  0.00    +0.000 C 
ENDBRANCH  22  25
ENDBRANCH  18  19
ENDBRANCH   2  18
TORSDOF 7
ENDMDL
MODEL 2
REMARK VINA RESULT:      -7.9      1.784      6.062
REMARK  Name = 
REMARK  9 active torsions:
REMARK  status: ('A' for Active; 'I' for Inactive)
REMARK    1  A    between atoms: C_1  and  O_2
REMARK    2  A    between atoms: O_2  and  C_3
REMARK    3  A    between atoms: C_6  and  C_7
REMARK    4  A    between atoms: C_7  and  C_8
REMARK    5  A    between atoms: C_9  and  C_10
REMARK    6  A    between atoms: C_10  and  C_11
REMARK    7  A    between atoms: C_14  and  O_15
REMARK    8  A    between atoms: O_15  and  C_16
REMARK    9  A    between atoms: C_19  and  O_20
REMARK                            x       y       z     vdW  Elec       q    Type
REMARK                         _______ _______ _______ _____ _____    ______ ____
ROOT
ATOM      1  C   UNL     1       3.414   3.629  19.030  0.00  0.00    +0.000 C 
ATOM      2  C   UNL     1       2.473   4.378  19.614  0.00  0.00    +0.000 C 
ATOM      3  C   UNL     1       1.133   3.939  19.169  0.00  0.00    +0.000 C 
ATOM      4  O   UNL     1       1.375   2.951  18.183  0.00  0.00    +0.000 OA
ATOM      5  C   UNL     1       2.707   2.698  18.141  0.00  0.00    +0.000 C 
ATOM      6  O   UNL     1       3.237   1.834  17.464  0.00  0.00    +0.000 OA
ENDROOT
BRANCH   3   7
ATOM      7  O   UNL     1       0.406   3.353  20.227  0.00  0.00    +0.000 OA
ATOM      8  H   UNL     1       0.842   2.502  20.414  0.00  0.00    +0.000 HD
ENDBRANCH   3   7
BRANCH   1   9
ATOM      9  C   UNL     1       4.892   3.594  19.195  0.00  0.00    +0.000 C 
BRANCH   9  13
ATOM     10  C   UNL     1       7.063   6.888  17.420  0.00  0.00    +0.000 A 
ATOM     11  C   UNL     1       7.505   6.310  18.611  0.00  0.00    +0.000 A 
ATOM     12  C   UNL     1       6.798   5.254  19.194  0.00  0.00    +0.000 A 
ATOM     13  C   UNL     1       5.622   4.773  18.600  0.00  0.00    +0.000 A 
ATOM     14  C   UNL     1       5.171   5.377  17.420  0.00  0.00    +0.000 A 
ATOM     15  C   UNL     1       5.883   6.429  16.836  0.00  0.00    +0.000 A 
BRANCH  10  17
ATOM     16  C   UNL     1       8.043   8.996  17.836  0.00  0.00    +0.000 C 
ATOM     17  O   UNL     1       7.836   7.908  16.939  0.00  0.00    +0.000 OA
ENDBRANCH  10  17
ENDBRANCH   9  13
ENDBRANCH   1   9
BRANCH   2  18
ATOM     18  C   UNL     1       2.673   5.589  20.469  0.00  0.00    +0.000 C 
BRANCH  18  19
ATOM     19  C   UNL     1       2.202   6.892  19.871  0.00  0.00    +0.000 A 
ATOM     20  C   UNL     1       1.489   7.816  20.648  0.00  0.00    +0.000 A 
ATOM     21  C   UNL     1       1.087   9.040  20.107  0.00  0.00    +0.000 A 
ATOM     22  C   UNL     1       1.400   9.367  18.789  0.00  0.00    +0.000 A 
ATOM     23  C   UNL     1       2.095   8.450  18.004  0.00  0.00    +0.000 A 
ATOM     24  C   UNL     1       2.508   7.231  18.549  0.00  0.00    +0.000 A 
BRANCH  22  25
ATOM     25  O   UNL     1       0.960  10.590  18.361  0.00  0.00    +0.000 OA
ATOM     26  C   UNL     1       1.237  11.675  19.241  0.00  0.00    +0.000 C 
ENDBRANCH  22  25
ENDBRANCH  18  19
ENDBRANCH   2  18
TORSDOF 7
ENDMDL
MODEL 3
REMARK VINA RESULT:      -7.8      0.198      1.375
REMARK  Name = 
REMARK  9 active torsions:
REMARK  status: ('A' for Active; 'I' for Inactive)
REMARK    1  A    between atoms: C_1  and  O_2
REMARK    2  A    between atoms: O_2  and  C_3
REMARK    3  A    between atoms: C_6  and  C_7
REMARK    4  A    between atoms: C_7  and  C_8
REMARK    5  A    between atoms: C_9  and  C_10
REMARK    6  A    between atoms: C_10  and  C_11
REMARK    7  A    between atoms: C_14  and  O_15
REMARK    8  A    between atoms: O_15  and  C_16
REMARK    9  A    between atoms: C_19  and  O_20
REMARK                            x       y       z     vdW  Elec       q    Type
REMARK                         _______ _______ _______ _____ _____    ______ ____
ROOT
ATOM      1  C   UNL     1       5.581   6.325  16.718  0.00  0.00    +0.000 C 
ATOM      2  C   UNL     1       5.757   5.001  16.781  0.00  0.00    +0.000 C 
ATOM      3  C   UNL     1       7.159   4.698  17.145  0.00  0.00    +0.000 C 
ATOM      4  O   UNL     1       7.815   5.953  17.167  0.00  0.00    +0.000 OA
ATOM      5  C   UNL     1       6.889   6.930  16.995  0.00  0.00    +0.000 C 
ATOM      6  O   UNL     1       7.111   8.127  17.057  0.00  0.00    +0.000 OA
ENDROOT
BRANCH   3   7
ATOM      7  O   UNL     1       7.244   4.120  18.429  0.00  0.00    +0.000 OA
ATOM      8  H   UNL     1       6.347   3.810  18.644  0.00  0.00    +0.000 HD
ENDBRANCH   3   7
BRANCH   1   9
ATOM      9  C   UNL     1       4.363   7.148  16.485  0.00  0.00    +0.000 C 
BRANCH   9  13
ATOM     10  C   UNL     1       1.897   7.680  20.000  0.00  0.00    +0.000 A 
ATOM     11  C   UNL     1       2.792   6.612  19.919  0.00  0.00    +0.000 A 
ATOM     12  C   UNL     1       3.580   6.430  18.779  0.00  0.00    +0.000 A 
ATOM     13  C   UNL     1       3.469   7.308  17.691  0.00  0.00    +0.000 A 
ATOM     14  C   UNL     1       2.550   8.361  17.770  0.00  0.00    +0.000 A 
ATOM     15  C   UNL     1       1.766   8.544  18.914  0.00  0.00    +0.000 A 
BRANCH  10  17
ATOM     16  C   UNL     1       1.288   9.001  21.860  0.00  0.00    +0.000 C 
ATOM     17  O   UNL     1       1.184   7.762  21.163  0.00  0.00    +0.000 OA
ENDBRANCH  10  17
ENDBRANCH   9  13
ENDBRANCH   1   9
BRANCH   2  18
ATOM     18  C   UNL     1       4.782   3.932  16.403  0.00  0.00    +0.000 C 
BRANCH  18  19
ATOM     19  C   UNL     1       3.806   3.532  17.482  0.00  0.00    +0.000 A 
ATOM     20  C   UNL     1       2.425   3.620  17.260  0.00  0.00    +0.000 A 
ATOM     21  C   UNL     1       1.519   3.213  18.244  0.00  0.00    +0.000 A 
ATOM     22  C   UNL     1       1.976   2.698  19.456  0.00  0.00    +0.000 A 
ATOM     23  C   UNL     1       3.347   2.619  19.691  0.00  0.00    +0.000 A 
ATOM     24  C   UNL     1       4.252   3.016  18.703  0.00  0.00    +0.000 A 
BRANCH  22  25
ATOM     25  O   UNL     1       1.006   2.328  20.346  0.00  0.00    +0.000 OA
ATOM     26  C   UNL     1       1.300   2.604  21.712  0.00  0.00    +0.000 C 
ENDBRANCH  22  25
ENDBRANCH  18  19
ENDBRANCH   2  18
TORSDOF 7
ENDMDL
MODEL 4
REMARK VINA RESULT:      -7.8      0.586      4.466
REMARK  Name = 
REMARK  9 active torsions:
REMARK  status: ('A' for Active; 'I' for Inactive)
REMARK    1  A    between atoms: C_1  and  O_2
REMARK    2  A    between atoms: O_2  and  C_3
REMARK    3  A    between atoms: C_6  and  C_7
REMARK    4  A    between atoms: C_7  and  C_8
REMARK    5  A    between atoms: C_9  and  C_10
REMARK    6  A    between atoms: C_10  and  C_11
REMARK    7  A    between atoms: C_14  and  O_15
REMARK    8  A    between atoms: O_15  and  C_16
REMARK    9  A    between atoms: C_19  and  O_20
REMARK                            x       y       z     vdW  Elec       q    Type
REMARK                         _______ _______ _______ _____ _____    ______ ____
ROOT
ATOM      1  C   UNL     1       6.106   5.183  17.244  0.00  0.00    +0.000 C 
ATOM      2  C   UNL     1       5.764   6.475  17.204  0.00  0.00    +0.000 C 
ATOM      3  C   UNL     1       6.841   7.298  17.796  0.00  0.00    +0.000 C 
ATOM      4  O   UNL     1       7.785   6.369  18.297  0.00  0.00    +0.000 OA
ATOM      5  C   UNL     1       7.411   5.122  17.914  0.00  0.00    +0.000 C 
ATOM      6  O   UNL     1       8.056   4.106  18.104  0.00  0.00    +0.000 OA
ENDROOT
BRANCH   3   7
ATOM      7  O   UNL     1       7.470   8.101  16.822  0.00  0.00    +0.000 OA
ATOM      8  H   UNL     1       6.876   8.104  16.050  0.00  0.00    +0.000 HD
ENDBRANCH   3   7
BRANCH   1   9
ATOM      9  C   UNL     1       5.435   3.967  16.710  0.00  0.00    +0.000 C 
BRANCH   9  13
ATOM     10  C   UNL     1       2.246   2.532  19.257  0.00  0.00    +0.000 A 
ATOM     11  C   UNL     1       3.564   2.544  19.714  0.00  0.00    +0.000 A 
ATOM     12  C   UNL     1       4.599   2.995  18.888  0.00  0.00    +0.000 A 
ATOM     13  C   UNL     1       4.329   3.423  17.581  0.00  0.00    +0.000 A 
ATOM     14  C   UNL     1       3.006   3.383  17.121  0.00  0.00    +0.000 A 
ATOM     15  C   UNL     1       1.973   2.937  17.951  0.00  0.00    +0.000 A 
BRANCH  10  17
ATOM     16  C   UNL     1       1.243   2.799  21.378  0.00  0.00    +0.000 C 
ATOM     17  O   UNL     1       1.318   2.077  20.152  0.00  0.00    +0.000 OA
ENDBRANCH  10  17
ENDBRANCH   9  13
ENDBRANCH   1   9
BRANCH   2  18
ATOM     18  C   UNL     1       4.452   7.059  16.786  0.00  0.00    +0.000 C 
BRANCH  18  19
ATOM     19  C   UNL     1       3.464   7.301  17.900  0.00  0.00    +0.000 A 
ATOM     20  C   UNL     1       3.374   6.409  18.978  0.00  0.00    +0.000 A 
ATOM     21  C   UNL     1       2.488   6.653  20.031  0.00  0.00    +0.000 A 
ATOM     22  C   UNL     1       1.688   7.795  20.032  0.00  0.00    +0.000 A 
ATOM     23  C   UNL     1       1.760   8.680  18.958  0.00  0.00    +0.000 A 
ATOM     24  C   UNL     1       2.655   8.442  17.911  0.00  0.00    +0.000 A 
BRANCH  22  25
ATOM     25  O   UNL     1       0.859   7.937  21.110  0.00  0.00    +0.000 OA
ATOM     26  C   UNL     1       0.235   9.211  21.231  0.00  0.00    +0.000 C 
ENDBRANCH  22  25
ENDBRANCH  18  19
ENDBRANCH   2  18
TORSDOF 7
ENDMDL
MODEL 5
REMARK VINA RESULT:      -7.8      1.800      6.013
REMARK  Name = 
REMARK  9 active torsions:
REMARK  status: ('A' for Active; 'I' for Inactive)
REMARK    1  A    between atoms: C_1  and  O_2
REMARK    2  A    between atoms: O_2  and  C_3
REMARK    3  A    between atoms: C_6  and  C_7
REMARK    4  A    between atoms: C_7  and  C_8
REMARK    5  A    between atoms: C_9  and  C_10
REMARK    6  A    between atoms: C_10  and  C_11
REMARK    7  A    between atoms: C_14  and  O_15
REMARK    8  A    between atoms: O_15  and  C_16
REMARK    9  A    between atoms: C_19  and  O_20
REMARK                            x       y       z     vdW  Elec       q    Type
REMARK                         _______ _______ _______ _____ _____    ______ ____
ROOT
ATOM      1  C   UNL     1       3.410   3.586  19.076  0.00  0.00    +0.000 C 
ATOM      2  C   UNL     1       2.432   4.304  19.638  0.00  0.00    +0.000 C 
ATOM      3  C   UNL     1       1.124   3.891  19.083  0.00  0.00    +0.000 C 
ATOM      4  O   UNL     1       1.432   2.959  18.062  0.00  0.00    +0.000 OA
ATOM      5  C   UNL     1       2.765   2.707  18.093  0.00  0.00    +0.000 C 
ATOM      6  O   UNL     1       3.339   1.880  17.406  0.00  0.00    +0.000 OA
ENDROOT
BRANCH   3   7
ATOM      7  O   UNL     1       0.331   3.249  20.058  0.00  0.00    +0.000 OA
ATOM      8  H   UNL     1      -0.235   3.942  20.443  0.00  0.00    +0.000 HD
ENDBRANCH   3   7
BRANCH   1   9
ATOM      9  C   UNL     1       4.874   3.540  19.335  0.00  0.00    +0.000 C 
BRANCH   9  13
ATOM     10  C   UNL     1       7.062   6.829  17.572  0.00  0.00    +0.000 A 
ATOM     11  C   UNL     1       5.909   6.337  16.958  0.00  0.00    +0.000 A 
ATOM     12  C   UNL     1       5.208   5.266  17.519  0.00  0.00    +0.000 A 
ATOM     13  C   UNL     1       5.664   4.656  18.696  0.00  0.00    +0.000 A 
ATOM     14  C   UNL     1       6.837   5.139  19.290  0.00  0.00    +0.000 A 
ATOM     15  C   UNL     1       7.534   6.214  18.730  0.00  0.00    +0.000 A 
BRANCH  10  17
ATOM     16  C   UNL     1       8.059   8.959  17.782  0.00  0.00    +0.000 C 
ATOM     17  O   UNL     1       7.661   7.882  16.938  0.00  0.00    +0.000 OA
ENDBRANCH  10  17
ENDBRANCH   9  13
ENDBRANCH   1   9
BRANCH   2  18
ATOM     18  C   UNL     1       2.573   5.466  20.569  0.00  0.00    +0.000 C 
BRANCH  18  19
ATOM     19  C   UNL     1       2.192   6.809  19.996  0.00  0.00    +0.000 A 
ATOM     20  C   UNL     1       2.520   7.136  18.673  0.00  0.00    +0.000 A 
ATOM     21  C   UNL     1       2.134   8.364  18.127  0.00  0.00    +0.000 A 
ATOM     22  C   UNL     1       1.404   9.277  18.887  0.00  0.00    +0.000 A 
ATOM     23  C   UNL     1       1.086   8.966  20.208  0.00  0.00    +0.000 A 
ATOM     24  C   UNL     1       1.462   7.734  20.749  0.00  0.00    +0.000 A 
BRANCH  22  25
ATOM     25  O   UNL     1       1.077  10.445  18.256  0.00  0.00    +0.000 OA
ATOM     26  C   UNL     1       1.310  11.628  19.014  0.00  0.00    +0.000 C 
ENDBRANCH  22  25
ENDBRANCH  18  19
ENDBRANCH   2  18
TORSDOF 7
ENDMDL
MODEL 6
REMARK VINA RESULT:      -7.6      0.428      1.044
REMARK  Name = 
REMARK  9 active torsions:
REMARK  status: ('A' for Active; 'I' for Inactive)
REMARK    1  A    between atoms: C_1  and  O_2
REMARK    2  A    between atoms: O_2  and  C_3
REMARK    3  A    between atoms: C_6  and  C_7
REMARK    4  A    between atoms: C_7  and  C_8
REMARK    5  A    between atoms: C_9  and  C_10
REMARK    6  A    between atoms: C_10  and  C_11
REMARK    7  A    between atoms: C_14  and  O_15
REMARK    8  A    between atoms: O_15  and  C_16
REMARK    9  A    between atoms: C_19  and  O_20
REMARK                            x       y       z     vdW  Elec       q    Type
REMARK                         _______ _______ _______ _____ _____    ______ ____
ROOT
ATOM      1  C   UNL     1       5.605   6.391  16.853  0.00  0.00    +0.000 C 
ATOM      2  C   UNL     1       5.921   5.107  17.047  0.00  0.00    +0.000 C 
ATOM      3  C   UNL     1       7.317   4.999  17.522  0.00  0.00    +0.000 C 
ATOM      4  O   UNL     1       7.829   6.319  17.472  0.00  0.00    +0.000 OA
ATOM      5  C   UNL     1       6.816   7.165  17.156  0.00  0.00    +0.000 C 
ATOM      6  O   UNL     1       6.900   8.380  17.123  0.00  0.00    +0.000 OA
ENDROOT
BRANCH   3   7
ATOM      7  O   UNL     1       7.373   4.542  18.856  0.00  0.00    +0.000 OA
ATOM      8  H   UNL     1       8.244   4.118  18.958  0.00  0.00    +0.000 HD
ENDBRANCH   3   7
BRANCH   1   9
ATOM      9  C   UNL     1       4.325   7.047  16.473  0.00  0.00    +0.000 C 
BRANCH   9  13
ATOM     10  C   UNL     1       1.697   8.095  19.745  0.00  0.00    +0.000 A 
ATOM     11  C   UNL     1       1.807   8.929  18.632  0.00  0.00    +0.000 A 
ATOM     12  C   UNL     1       2.665   8.600  17.579  0.00  0.00    +0.000 A 
ATOM     13  C   UNL     1       3.444   7.435  17.635  0.00  0.00    +0.000 A 
ATOM     14  C   UNL     1       3.347   6.617  18.768  0.00  0.00    +0.000 A 
ATOM     15  C   UNL     1       2.483   6.947  19.817  0.00  0.00    +0.000 A 
BRANCH  10  17
ATOM     16  C   UNL     1       1.406   8.830  21.970  0.00  0.00    +0.000 C 
ATOM     17  O   UNL     1       0.823   8.514  20.710  0.00  0.00    +0.000 OA
ENDBRANCH  10  17
ENDBRANCH   9  13
ENDBRANCH   1   9
BRANCH   2  18
ATOM     18  C   UNL     1       5.098   3.905  16.707  0.00  0.00    +0.000 C 
BRANCH  18  19
ATOM     19  C   UNL     1       4.032   3.542  17.710  0.00  0.00    +0.000 A 
ATOM     20  C   UNL     1       2.686   3.472  17.325  0.00  0.00    +0.000 A 
ATOM     21  C   UNL     1       1.702   3.098  18.244  0.00  0.00    +0.000 A 
ATOM     22  C   UNL     1       2.045   2.774  19.556  0.00  0.00    +0.000 A 
ATOM     23  C   UNL     1       3.379   2.854  19.952  0.00  0.00    +0.000 A 
ATOM     24  C   UNL     1       4.364   3.217  19.030  0.00  0.00    +0.000 A 
BRANCH  22  25
ATOM     25  O   UNL     1       1.005   2.420  20.370  0.00  0.00    +0.000 OA
ATOM     26  C   UNL     1       1.266   2.526  21.767  0.00  0.00    +0.000 C 
ENDBRANCH  22  25
ENDBRANCH  18  19
ENDBRANCH   2  18
TORSDOF 7
ENDMDL
MODEL 7
REMARK VINA RESULT:      -7.5      1.771      4.926
REMARK  Name = 
REMARK  9 active torsions:
REMARK  status: ('A' for Active; 'I' for Inactive)
REMARK    1  A    between atoms: C_1  and  O_2
REMARK    2  A    between atoms: O_2  and  C_3
REMARK    3  A    between atoms: C_6  and  C_7
REMARK    4  A    between atoms: C_7  and  C_8
REMARK    5  A    between atoms: C_9  and  C_10
REMARK    6  A    between atoms: C_10  and  C_11
REMARK    7  A    between atoms: C_14  and  O_15
REMARK    8  A    between atoms: O_15  and  C_16
REMARK    9  A    between atoms: C_19  and  O_20
REMARK                            x       y       z     vdW  Elec       q    Type
REMARK                         _______ _______ _______ _____ _____    ______ ____
ROOT
ATOM      1  C   UNL     1       2.869   3.033  19.812  0.00  0.00    +0.000 C 
ATOM      2  C   UNL     1       3.828   2.578  19.000  0.00  0.00    +0.000 C 
ATOM      3  C   UNL     1       4.799   1.772  19.771  0.00  0.00    +0.000 C 
ATOM      4  O   UNL     1       4.394   1.897  21.122  0.00  0.00    +0.000 OA
ATOM      5  C   UNL     1       3.217   2.570  21.161  0.00  0.00    +0.000 C 
ATOM      6  O   UNL     1       2.552   2.765  22.164  0.00  0.00    +0.000 OA
ENDROOT
BRANCH   3   7
ATOM      7  O   UNL     1       4.743   0.410  19.406  0.00  0.00    +0.000 OA
ATOM      8  H   UNL     1       4.558   0.395  18.451  0.00  0.00    +0.000 HD
ENDBRANCH   3   7
BRANCH   1   9
ATOM      9  C   UNL     1       1.626   3.803  19.538  0.00  0.00    +0.000 C 
BRANCH   9  13
ATOM     10  C   UNL     1       2.059   8.088  19.135  0.00  0.00    +0.000 A 
ATOM     11  C   UNL     1       2.257   7.252  18.036  0.00  0.00    +0.000 A 
ATOM     12  C   UNL     1       2.131   5.866  18.167  0.00  0.00    +0.000 A 
ATOM     13  C   UNL     1       1.823   5.294  19.409  0.00  0.00    +0.000 A 
ATOM     14  C   UNL     1       1.652   6.139  20.513  0.00  0.00    +0.000 A 
ATOM     15  C   UNL     1       1.773   7.526  20.378  0.00  0.00    +0.000 A 
BRANCH  10  17
ATOM     16  C   UNL     1       1.256   9.987  17.984  0.00  0.00    +0.000 C 
ATOM     17  O   UNL     1       2.202   9.426  18.889  0.00  0.00    +0.000 OA
ENDBRANCH  10  17
ENDBRANCH   9  13
ENDBRANCH   1   9
BRANCH   2  18
ATOM     18  C   UNL     1       4.040   2.918  17.559  0.00  0.00    +0.000 C 
BRANCH  18  19
ATOM     19  C   UNL     1       4.987   4.062  17.294  0.00  0.00    +0.000 A 
ATOM     20  C   UNL     1       5.882   4.490  18.285  0.00  0.00    +0.000 A 
ATOM     21  C   UNL     1       6.787   5.524  18.027  0.00  0.00    +0.000 A 
ATOM     22  C   UNL     1       6.823   6.137  16.776  0.00  0.00    +0.000 A 
ATOM     23  C   UNL     1       5.928   5.728  15.789  0.00  0.00    +0.000 A 
ATOM     24  C   UNL     1       5.032   4.687  16.043  0.00  0.00    +0.000 A 
BRANCH  22  25
ATOM     25  O   UNL     1       7.747   7.135  16.631  0.00  0.00    +0.000 OA
ATOM     26  C   UNL     1       7.755   8.108  17.672  0.00  0.00    +0.000 C 
ENDBRANCH  22  25
ENDBRANCH  18  19
ENDBRANCH   2  18
TORSDOF 7
ENDMDL
MODEL 8
REMARK VINA RESULT:      -7.5      1.603      6.205
REMARK  Name = 
REMARK  9 active torsions:
REMARK  status: ('A' for Active; 'I' for Inactive)
REMARK    1  A    between atoms: C_1  and  O_2
REMARK    2  A    between atoms: O_2  and  C_3
REMARK    3  A    between atoms: C_6  and  C_7
REMARK    4  A    between atoms: C_7  and  C_8
REMARK    5  A    between atoms: C_9  and  C_10
REMARK    6  A    between atoms: C_10  and  C_11
REMARK    7  A    between atoms: C_14  and  O_15
REMARK    8  A    between atoms: O_15  and  C_16
REMARK    9  A    between atoms: C_19  and  O_20
REMARK                            x       y       z     vdW  Elec       q    Type
REMARK                         _______ _______ _______ _____ _____    ______ ____
ROOT
ATOM      1  C   UNL     1       2.122   4.092  18.690  0.00  0.00    +0.000 C 
ATOM      2  C   UNL     1       2.288   4.822  19.797  0.00  0.00    +0.000 C 
ATOM      3  C   UNL     1       1.445   4.281  20.886  0.00  0.00    +0.000 C 
ATOM      4  O   UNL     1       0.682   3.250  20.286  0.00  0.00    +0.000 OA
ATOM      5  C   UNL     1       1.120   3.070  19.014  0.00  0.00    +0.000 C 
ATOM      6  O   UNL     1       0.736   2.197  18.256  0.00  0.00    +0.000 OA
ENDROOT
BRANCH   3   7
ATOM      7  O   UNL     1       2.231   3.722  21.915  0.00  0.00    +0.000 OA
ATOM      8  H   UNL     1       2.570   4.473  22.434  0.00  0.00    +0.000 HD
ENDBRANCH   3   7
BRANCH   1   9
ATOM      9  C   UNL     1       2.788   4.151  17.360  0.00  0.00    +0.000 C 
BRANCH   9  13
ATOM     10  C   UNL     1       6.717   5.955  17.506  0.00  0.00    +0.000 A 
ATOM     11  C   UNL     1       5.676   6.582  16.819  0.00  0.00    +0.000 A 
ATOM     12  C   UNL     1       4.409   5.994  16.759  0.00  0.00    +0.000 A 
ATOM     13  C   UNL     1       4.170   4.756  17.372  0.00  0.00    +0.000 A 
ATOM     14  C   UNL     1       5.227   4.121  18.036  0.00  0.00    +0.000 A 
ATOM     15  C   UNL     1       6.493   4.714  18.099  0.00  0.00    +0.000 A 
BRANCH  10  17
ATOM     16  C   UNL     1       7.818   8.041  17.615  0.00  0.00    +0.000 C 
ATOM     17  O   UNL     1       7.909   6.623  17.504  0.00  0.00    +0.000 OA
ENDBRANCH  10  17
ENDBRANCH   9  13
ENDBRANCH   1   9
BRANCH   2  18
ATOM     18  C   UNL     1       3.063   6.093  19.945  0.00  0.00    +0.000 C 
BRANCH  18  19
ATOM     19  C   UNL     1       2.300   7.359  19.641  0.00  0.00    +0.000 A 
ATOM     20  C   UNL     1       2.294   7.893  18.345  0.00  0.00    +0.000 A 
ATOM     21  C   UNL     1       1.555   9.043  18.053  0.00  0.00    +0.000 A 
ATOM     22  C   UNL     1       0.801   9.669  19.044  0.00  0.00    +0.000 A 
ATOM     23  C   UNL     1       0.812   9.154  20.338  0.00  0.00    +0.000 A 
ATOM     24  C   UNL     1       1.541   7.998  20.627  0.00  0.00    +0.000 A 
BRANCH  22  25
ATOM     25  O   UNL     1       0.115  10.785  18.650  0.00  0.00    +0.000 OA
ATOM     26  C   UNL     1       0.637  12.019  19.135  0.00  0.00    +0.000 C 
ENDBRANCH  22  25
ENDBRANCH  18  19
ENDBRANCH   2  18
TORSDOF 7
ENDMDL
MODEL 9
REMARK VINA RESULT:      -7.4      1.546      6.223
REMARK  Name = 
REMARK  9 active torsions:
REMARK  status: ('A' for Active; 'I' for Inactive)
REMARK    1  A    between atoms: C_1  and  O_2
REMARK    2  A    between atoms: O_2  and  C_3
REMARK    3  A    between atoms: C_6  and  C_7
REMARK    4  A    between atoms: C_7  and  C_8
REMARK    5  A    between atoms: C_9  and  C_10
REMARK    6  A    between atoms: C_10  and  C_11
REMARK    7  A    between atoms: C_14  and  O_15
REMARK    8  A    between atoms: O_15  and  C_16
REMARK    9  A    between atoms: C_19  and  O_20
REMARK                            x       y       z     vdW  Elec       q    Type
REMARK                         _______ _______ _______ _____ _____    ______ ____
ROOT
ATOM      1  C   UNL     1       1.917   4.127  18.847  0.00  0.00    +0.000 C 
ATOM      2  C   UNL     1       2.167   4.761  19.997  0.00  0.00    +0.000 C 
ATOM      3  C   UNL     1       1.465   4.082  21.107  0.00  0.00    +0.000 C 
ATOM      4  O   UNL     1       0.684   3.073  20.491  0.00  0.00    +0.000 OA
ATOM      5  C   UNL     1       0.995   3.032  19.170  0.00  0.00    +0.000 C 
ATOM      6  O   UNL     1       0.569   2.213  18.374  0.00  0.00    +0.000 OA
ENDROOT
BRANCH   3   7
ATOM      7  O   UNL     1       2.374   3.470  21.995  0.00  0.00    +0.000 OA
ATOM      8  H   UNL     1       2.373   2.523  21.771  0.00  0.00    +0.000 HD
ENDBRANCH   3   7
BRANCH   1   9
ATOM      9  C   UNL     1       2.438   4.340  17.469  0.00  0.00    +0.000 C 
BRANCH   9  13
ATOM     10  C   UNL     1       6.499   5.828  17.397  0.00  0.00    +0.000 A 
ATOM     11  C   UNL     1       5.457   6.593  16.873  0.00  0.00    +0.000 A 
ATOM     12  C   UNL     1       4.145   6.109  16.883  0.00  0.00    +0.000 A 
ATOM     13  C   UNL     1       3.861   4.838  17.402  0.00  0.00    +0.000 A 
ATOM     14  C   UNL     1       4.918   4.066  17.902  0.00  0.00    +0.000 A 
ATOM     15  C   UNL     1       6.228   4.555  17.896  0.00  0.00    +0.000 A 
BRANCH  10  17
ATOM     16  C   UNL     1       7.793   7.779  17.715  0.00  0.00    +0.000 C 
ATOM     17  O   UNL     1       7.738   6.405  17.340  0.00  0.00    +0.000 OA
ENDBRANCH  10  17
ENDBRANCH   9  13
ENDBRANCH   1   9
BRANCH   2  18
ATOM     18  C   UNL     1       2.903   6.050  20.188  0.00  0.00    +0.000 C 
BRANCH  18  19
ATOM     19  C   UNL     1       2.077   7.300  20.016  0.00  0.00    +0.000 A 
ATOM     20  C   UNL     1       1.286   7.781  21.068  0.00  0.00    +0.000 A 
ATOM     21  C   UNL     1       0.551   8.961  20.924  0.00  0.00    +0.000 A 
ATOM     22  C   UNL     1       0.605   9.687  19.734  0.00  0.00    +0.000 A 
ATOM     23  C   UNL     1       1.377   9.209  18.678  0.00  0.00    +0.000 A 
ATOM     24  C   UNL     1       2.120   8.035  18.826  0.00  0.00    +0.000 A 
BRANCH  22  25
ATOM     25  O   UNL     1      -0.151  10.826  19.701  0.00  0.00    +0.000 OA
ATOM     26  C   UNL     1       0.318  11.838  18.814  0.00  0.00    +0.000 C 
ENDBRANCH  22  25
ENDBRANCH  18  19
ENDBRANCH   2  18
TORSDOF 7
ENDMDL
