MODEL 1
REMARK VINA RESULT:      -9.2      0.000      0.000
REMARK  Name = 
REMARK  7 active torsions:
REMARK  status: ('A' for Active; 'I' for Inactive)
REMARK    1  A    between atoms: C_1  and  C_2
REMARK    2  A    between atoms: C_2  and  C_3
REMARK    3  A    between atoms: C_2  and  C_16
REMARK    4  A    between atoms: C_3  and  N_4
REMARK    5  A    between atoms: C_5  and  C_7
REMARK    6  A    between atoms: C_20  and  C_21
REMARK    7  A    between atoms: C_21  and  C_23
REMARK                            x       y       z     vdW  Elec       q    Type
REMARK                         _______ _______ _______ _____ _____    ______ ____
ROOT
ATOM      1  C   UNL     1       8.204   5.725  19.581  0.00  0.00    +0.000 C 
ATOM      2  C   UNL     1       7.217   6.401  18.604  0.00  0.00    +0.000 C 
ENDROOT
BRANCH   2   3
ATOM      3  C   UNL     1       6.470   5.407  17.700  0.00  0.00    +0.000 A 
ATOM      4  C   UNL     1       6.966   5.040  16.436  0.00  0.00    +0.000 A 
ATOM      5  C   UNL     1       6.258   4.184  15.586  0.00  0.00    +0.000 A 
ATOM      6  C   UNL     1       5.010   3.704  15.963  0.00  0.00    +0.000 A 
ATOM      7  C   UNL     1       4.466   4.081  17.191  0.00  0.00    +0.000 A 
ATOM      8  C   UNL     1       5.206   4.902  18.059  0.00  0.00    +0.000 A 
BRANCH   7   9
ATOM      9  C   UNL     1       3.117   3.570  17.550  0.00  0.00    +0.000 C 
ATOM     10  O   UNL     1       2.348   3.234  16.652  0.00  0.00    +0.000 OA
BRANCH   9  11
ATOM     11  C   UNL     1       2.672   3.440  18.963  0.00  0.00    +0.000 A 
ATOM     12  C   UNL     1       1.544   4.162  19.368  0.00  0.00    +0.000 A 
ATOM     13  C   UNL     1       1.081   4.061  20.681  0.00  0.00    +0.000 A 
ATOM     14  C   UNL     1       1.747   3.244  21.594  0.00  0.00    +0.000 A 
ATOM     15  C   UNL     1       2.887   2.543  21.204  0.00  0.00    +0.000 A 
ATOM     16  C   UNL     1       3.361   2.652  19.895  0.00  0.00    +0.000 A 
ENDBRANCH   9  11
ENDBRANCH   7   9
ENDBRANCH   2   3
BRANCH   2  17
ATOM     17  C   UNL     1       7.980   7.491  17.811  0.00  0.00    +0.000 C 
BRANCH  17  18
ATOM     18  N   UNL     1       8.639   8.475  18.647  0.00  0.00    +0.000 N 
ATOM     19  C   UNL     1       8.573   9.825  18.358  0.00  0.00    +0.000 C 
ATOM     20  O   UNL     1       7.933  10.274  17.416  0.00  0.00    +0.000 OA
ATOM     21  H   UNL     1       9.037   8.168  19.524  0.00  0.00    +0.000 HD
BRANCH  19  22
ATOM     22  C   UNL     1       9.326  10.717  19.282  0.00  0.00    +0.000 A 
ATOM     23  C   UNL     1       9.022  10.752  20.658  0.00  0.00    +0.000 A 
ATOM     24  C   UNL     1       9.713  11.597  21.522  0.00  0.00    +0.000 A 
ATOM     25  C   UNL     1      10.735  12.423  21.050  0.00  0.00    +0.000 A 
ATOM     26  C   UNL     1      11.052  12.359  19.687  0.00  0.00    +0.000 A 
ATOM     27  N   UNL     1      12.015  13.039  18.975  0.00  0.00    +0.000 N 
ATOM     28  C   UNL     1      11.983  12.665  17.659  0.00  0.00    +0.000 A 
ATOM     29  C   UNL     1      10.983  11.732  17.513  0.00  0.00    +0.000 A 
ATOM     30  C   UNL     1      10.379  11.523  18.790  0.00  0.00    +0.000 A 
ATOM     31  H   UNL     1      12.656  13.710  19.373  0.00  0.00    +0.000 HD
ENDBRANCH  19  22
ENDBRANCH  17  18
ENDBRANCH   2  17
TORSDOF 6
ENDMDL
MODEL 2
REMARK VINA RESULT:      -8.8      4.597      7.930
REMARK  Name = 
REMARK  7 active torsions:
REMARK  status: ('A' for Active; 'I' for Inactive)
REMARK    1  A    between atoms: C_1  and  C_2
REMARK    2  A    between atoms: C_2  and  C_3
REMARK    3  A    between atoms: C_2  and  C_16
REMARK    4  A    between atoms: C_3  and  N_4
REMARK    5  A    between atoms: C_5  and  C_7
REMARK    6  A    between atoms: C_20  and  C_21
REMARK    7  A    between atoms: C_21  and  C_23
REMARK                            x       y       z     vdW  Elec       q    Type
REMARK                         _______ _______ _______ _____ _____    ______ ____
ROOT
ATOM      1  C   UNL     1       0.731   3.829  20.437  0.00  0.00    +0.000 C 
ATOM      2  C   UNL     1       1.525   4.851  19.595  0.00  0.00    +0.000 C 
ENDROOT
BRANCH   2   3
ATOM      3  C   UNL     1       2.434   4.203  18.538  0.00  0.00    +0.000 A 
ATOM      4  C   UNL     1       2.351   2.832  18.233  0.00  0.00    +0.000 A 
ATOM      5  C   UNL     1       3.219   2.227  17.318  0.00  0.00    +0.000 A 
ATOM      6  C   UNL     1       4.222   2.972  16.711  0.00  0.00    +0.000 A 
ATOM      7  C   UNL     1       4.362   4.325  17.022  0.00  0.00    +0.000 A 
ATOM      8  C   UNL     1       3.456   4.935  17.906  0.00  0.00    +0.000 A 
BRANCH   7   9
ATOM      9  C   UNL     1       5.464   5.085  16.375  0.00  0.00    +0.000 C 
ATOM     10  O   UNL     1       5.570   5.054  15.151  0.00  0.00    +0.000 OA
BRANCH   9  11
ATOM     11  C   UNL     1       6.435   5.891  17.162  0.00  0.00    +0.000 A 
ATOM     12  C   UNL     1       7.086   5.274  18.237  0.00  0.00    +0.000 A 
ATOM     13  C   UNL     1       8.015   5.986  18.996  0.00  0.00    +0.000 A 
ATOM     14  C   UNL     1       8.294   7.317  18.686  0.00  0.00    +0.000 A 
ATOM     15  C   UNL     1       7.630   7.945  17.634  0.00  0.00    +0.000 A 
ATOM     16  C   UNL     1       6.688   7.240  16.881  0.00  0.00    +0.000 A 
ENDBRANCH   9  11
ENDBRANCH   7   9
ENDBRANCH   2   3
BRANCH   2  17
ATOM     17  C   UNL     1       2.287   5.796  20.558  0.00  0.00    +0.000 C 
BRANCH  17  18
ATOM     18  N   UNL     1       1.478   6.878  21.084  0.00  0.00    +0.000 N 
ATOM     19  C   UNL     1       1.425   8.108  20.455  0.00  0.00    +0.000 C 
ATOM     20  O   UNL     1       2.016   8.347  19.410  0.00  0.00    +0.000 OA
ATOM     21  H   UNL     1       0.847   6.676  21.846  0.00  0.00    +0.000 HD
BRANCH  19  22
ATOM     22  C   UNL     1       0.583   9.136  21.125  0.00  0.00    +0.000 A 
ATOM     23  C   UNL     1       0.423   9.135  22.526  0.00  0.00    +0.000 A 
ATOM     24  C   UNL     1      -0.378  10.084  23.155  0.00  0.00    +0.000 A 
ATOM     25  C   UNL     1      -1.032  11.071  22.416  0.00  0.00    +0.000 A 
ATOM     26  C   UNL     1      -0.843  11.084  21.028  0.00  0.00    +0.000 A 
ATOM     27  N   UNL     1      -1.345  11.946  20.079  0.00  0.00    +0.000 N 
ATOM     28  C   UNL     1      -0.897  11.595  18.835  0.00  0.00    +0.000 A 
ATOM     29  C   UNL     1      -0.095  10.487  18.977  0.00  0.00    +0.000 A 
ATOM     30  C   UNL     1      -0.047  10.147  20.362  0.00  0.00    +0.000 A 
ATOM     31  H   UNL     1      -1.951  12.729  20.279  0.00  0.00    +0.000 HD
ENDBRANCH  19  22
ENDBRANCH  17  18
ENDBRANCH   2  17
TORSDOF 6
ENDMDL
MODEL 3
REMARK VINA RESULT:      -8.7      6.939      9.905
REMARK  Name = 
REMARK  7 active torsions:
REMARK  status: ('A' for Active; 'I' for Inactive)
REMARK    1  A    between atoms: C_1  and  C_2
REMARK    2  A    between atoms: C_2  and  C_3
REMARK    3  A    between atoms: C_2  and  C_16
REMARK    4  A    between atoms: C_3  and  N_4
REMARK    5  A    between atoms: C_5  and  C_7
REMARK    6  A    between atoms: C_20  and  C_21
REMARK    7  A    between atoms: C_21  and  C_23
REMARK                            x       y       z     vdW  Elec       q    Type
REMARK                         _______ _______ _______ _____ _____    ______ ____
ROOT
ATOM      1  C   UNL     1       1.329   9.211  22.548  0.00  0.00    +0.000 C 
ATOM      2  C   UNL     1       0.577   9.010  21.214  0.00  0.00    +0.000 C 
ENDROOT
BRANCH   2   3
ATOM      3  C   UNL     1       1.470   8.486  20.078  0.00  0.00    +0.000 A 
ATOM      4  C   UNL     1       1.552   9.145  18.837  0.00  0.00    +0.000 A 
ATOM      5  C   UNL     1       2.314   8.635  17.781  0.00  0.00    +0.000 A 
ATOM      6  C   UNL     1       2.985   7.427  17.925  0.00  0.00    +0.000 A 
ATOM      7  C   UNL     1       2.892   6.724  19.127  0.00  0.00    +0.000 A 
ATOM      8  C   UNL     1       2.163   7.267  20.198  0.00  0.00    +0.000 A 
BRANCH   7   9
ATOM      9  C   UNL     1       3.601   5.422  19.236  0.00  0.00    +0.000 C 
ATOM     10  O   UNL     1       4.797   5.415  19.519  0.00  0.00    +0.000 OA
BRANCH   9  11
ATOM     11  C   UNL     1       2.905   4.125  19.025  0.00  0.00    +0.000 A 
ATOM     12  C   UNL     1       3.683   2.998  18.734  0.00  0.00    +0.000 A 
ATOM     13  C   UNL     1       3.075   1.757  18.541  0.00  0.00    +0.000 A 
ATOM     14  C   UNL     1       1.688   1.638  18.634  0.00  0.00    +0.000 A 
ATOM     15  C   UNL     1       0.906   2.761  18.897  0.00  0.00    +0.000 A 
ATOM     16  C   UNL     1       1.509   4.007  19.077  0.00  0.00    +0.000 A 
ENDBRANCH   9  11
ENDBRANCH   7   9
ENDBRANCH   2   3
BRANCH   2  17
ATOM     17  C   UNL     1      -0.151  10.331  20.857  0.00  0.00    +0.000 C 
BRANCH  17  18
ATOM     18  N   UNL     1      -0.966  10.250  19.661  0.00  0.00    +0.000 N 
ATOM     19  C   UNL     1      -1.666  11.346  19.192  0.00  0.00    +0.000 C 
ATOM     20  O   UNL     1      -1.615  12.446  19.725  0.00  0.00    +0.000 OA
ATOM     21  H   UNL     1      -0.907   9.413  19.097  0.00  0.00    +0.000 HD
BRANCH  19  22
ATOM     22  C   UNL     1      -2.489  11.109  17.975  0.00  0.00    +0.000 A 
ATOM     23  C   UNL     1      -1.938  10.471  16.845  0.00  0.00    +0.000 A 
ATOM     24  C   UNL     1      -2.700  10.263  15.698  0.00  0.00    +0.000 A 
ATOM     25  C   UNL     1      -4.035  10.668  15.642  0.00  0.00    +0.000 A 
ATOM     26  C   UNL     1      -4.584  11.273  16.780  0.00  0.00    +0.000 A 
ATOM     27  N   UNL     1      -5.860  11.741  17.000  0.00  0.00    +0.000 N 
ATOM     28  C   UNL     1      -5.967  12.253  18.264  0.00  0.00    +0.000 A 
ATOM     29  C   UNL     1      -4.742  12.119  18.874  0.00  0.00    +0.000 A 
ATOM     30  C   UNL     1      -3.849  11.498  17.949  0.00  0.00    +0.000 A 
ATOM     31  H   UNL     1      -6.609  11.701  16.323  0.00  0.00    +0.000 HD
ENDBRANCH  19  22
ENDBRANCH  17  18
ENDBRANCH   2  17
TORSDOF 6
ENDMDL
MODEL 4
REMARK VINA RESULT:      -8.6      5.634      8.726
REMARK  Name = 
REMARK  7 active torsions:
REMARK  status: ('A' for Active; 'I' for Inactive)
REMARK    1  A    between atoms: C_1  and  C_2
REMARK    2  A    between atoms: C_2  and  C_3
REMARK    3  A    between atoms: C_2  and  C_16
REMARK    4  A    between atoms: C_3  and  N_4
REMARK    5  A    between atoms: C_5  and  C_7
REMARK    6  A    between atoms: C_20  and  C_21
REMARK    7  A    between atoms: C_21  and  C_23
REMARK                            x       y       z     vdW  Elec       q    Type
REMARK                         _______ _______ _______ _____ _____    ______ ____
ROOT
ATOM      1  C   UNL     1       1.816   8.760  17.414  0.00  0.00    +0.000 C 
ATOM      2  C   UNL     1       2.723   8.025  18.424  0.00  0.00    +0.000 C 
ENDROOT
BRANCH   2   3
ATOM      3  C   UNL     1       3.271   6.688  17.898  0.00  0.00    +0.000 A 
ATOM      4  C   UNL     1       2.634   5.466  18.179  0.00  0.00    +0.000 A 
ATOM      5  C   UNL     1       3.165   4.244  17.754  0.00  0.00    +0.000 A 
ATOM      6  C   UNL     1       4.374   4.209  17.070  0.00  0.00    +0.000 A 
ATOM      7  C   UNL     1       5.056   5.398  16.812  0.00  0.00    +0.000 A 
ATOM      8  C   UNL     1       4.491   6.625  17.199  0.00  0.00    +0.000 A 
BRANCH   7   9
ATOM      9  C   UNL     1       6.360   5.320  16.101  0.00  0.00    +0.000 C 
ATOM     10  O   UNL     1       7.383   5.654  16.695  0.00  0.00    +0.000 OA
BRANCH   9  11
ATOM     11  C   UNL     1       6.466   4.840  14.698  0.00  0.00    +0.000 A 
ATOM     12  C   UNL     1       7.520   5.323  13.913  0.00  0.00    +0.000 A 
ATOM     13  C   UNL     1       7.668   4.890  12.595  0.00  0.00    +0.000 A 
ATOM     14  C   UNL     1       6.762   3.978  12.055  0.00  0.00    +0.000 A 
ATOM     15  C   UNL     1       5.695   3.514  12.823  0.00  0.00    +0.000 A 
ATOM     16  C   UNL     1       5.535   3.955  14.138  0.00  0.00    +0.000 A 
ENDBRANCH   9  11
ENDBRANCH   7   9
ENDBRANCH   2   3
BRANCH   2  17
ATOM     17  C   UNL     1       1.955   7.884  19.762  0.00  0.00    +0.000 C 
BRANCH  17  18
ATOM     18  N   UNL     1       1.234   9.079  20.156  0.00  0.00    +0.000 N 
ATOM     19  C   UNL     1       0.152   9.016  21.014  0.00  0.00    +0.000 C 
ATOM     20  O   UNL     1      -0.238   7.972  21.518  0.00  0.00    +0.000 OA
ATOM     21  H   UNL     1       1.621   9.977  19.900  0.00  0.00    +0.000 HD
BRANCH  19  22
ATOM     22  C   UNL     1      -0.513  10.316  21.304  0.00  0.00    +0.000 A 
ATOM     23  C   UNL     1      -0.579  10.814  22.621  0.00  0.00    +0.000 A 
ATOM     24  C   UNL     1      -1.216  12.021  22.898  0.00  0.00    +0.000 A 
ATOM     25  C   UNL     1      -1.794  12.776  21.877  0.00  0.00    +0.000 A 
ATOM     26  C   UNL     1      -1.697  12.289  20.568  0.00  0.00    +0.000 A 
ATOM     27  N   UNL     1      -2.154  12.836  19.389  0.00  0.00    +0.000 N 
ATOM     28  C   UNL     1      -1.835  12.025  18.335  0.00  0.00    +0.000 A 
ATOM     29  C   UNL     1      -1.165  10.933  18.835  0.00  0.00    +0.000 A 
ATOM     30  C   UNL     1      -1.066  11.082  20.251  0.00  0.00    +0.000 A 
ATOM     31  H   UNL     1      -2.646  13.716  19.318  0.00  0.00    +0.000 HD
ENDBRANCH  19  22
ENDBRANCH  17  18
ENDBRANCH   2  17
TORSDOF 6
ENDMDL
MODEL 5
REMARK VINA RESULT:      -8.6      6.305      9.655
REMARK  Name = 
REMARK  7 active torsions:
REMARK  status: ('A' for Active; 'I' for Inactive)
REMARK    1  A    between atoms: C_1  and  C_2
REMARK    2  A    between atoms: C_2  and  C_3
REMARK    3  A    between atoms: C_2  and  C_16
REMARK    4  A    between atoms: C_3  and  N_4
REMARK    5  A    between atoms: C_5  and  C_7
REMARK    6  A    between atoms: C_20  and  C_21
REMARK    7  A    between atoms: C_21  and  C_23
REMARK                            x       y       z     vdW  Elec       q    Type
REMARK                         _______ _______ _______ _____ _____    ______ ____
ROOT
ATOM      1  C   UNL     1       2.259   8.861  17.624  0.00  0.00    +0.000 C 
ATOM      2  C   UNL     1       2.215   8.469  19.117  0.00  0.00    +0.000 C 
ENDROOT
BRANCH   2   3
ATOM      3  C   UNL     1       2.225   6.950  19.354  0.00  0.00    +0.000 A 
ATOM      4  C   UNL     1       1.720   6.383  20.538  0.00  0.00    +0.000 A 
ATOM      5  C   UNL     1       1.785   5.007  20.782  0.00  0.00    +0.000 A 
ATOM      6  C   UNL     1       2.396   4.164  19.863  0.00  0.00    +0.000 A 
ATOM      7  C   UNL     1       2.947   4.697  18.697  0.00  0.00    +0.000 A 
ATOM      8  C   UNL     1       2.834   6.073  18.437  0.00  0.00    +0.000 A 
BRANCH   7   9
ATOM      9  C   UNL     1       3.617   3.768  17.748  0.00  0.00    +0.000 C 
ATOM     10  O   UNL     1       3.121   2.663  17.544  0.00  0.00    +0.000 OA
BRANCH   9  11
ATOM     11  C   UNL     1       4.865   4.140  17.029  0.00  0.00    +0.000 A 
ATOM     12  C   UNL     1       6.029   4.328  17.783  0.00  0.00    +0.000 A 
ATOM     13  C   UNL     1       7.227   4.665  17.150  0.00  0.00    +0.000 A 
ATOM     14  C   UNL     1       7.264   4.819  15.764  0.00  0.00    +0.000 A 
ATOM     15  C   UNL     1       6.101   4.659  15.011  0.00  0.00    +0.000 A 
ATOM     16  C   UNL     1       4.898   4.336  15.642  0.00  0.00    +0.000 A 
ENDBRANCH   9  11
ENDBRANCH   7   9
ENDBRANCH   2   3
BRANCH   2  17
ATOM     17  C   UNL     1       1.007   9.180  19.777  0.00  0.00    +0.000 C 
BRANCH  17  18
ATOM     18  N   UNL     1      -0.073   9.481  18.858  0.00  0.00    +0.000 N 
ATOM     19  C   UNL     1      -0.995  10.474  19.132  0.00  0.00    +0.000 C 
ATOM     20  O   UNL     1      -0.939  11.177  20.132  0.00  0.00    +0.000 OA
ATOM     21  H   UNL     1      -0.063   9.043  17.948  0.00  0.00    +0.000 HD
BRANCH  19  22
ATOM     22  C   UNL     1      -2.070  10.650  18.118  0.00  0.00    +0.000 A 
ATOM     23  C   UNL     1      -1.979  10.029  16.856  0.00  0.00    +0.000 A 
ATOM     24  C   UNL     1      -2.974  10.205  15.899  0.00  0.00    +0.000 A 
ATOM     25  C   UNL     1      -4.096  10.989  16.169  0.00  0.00    +0.000 A 
ATOM     26  C   UNL     1      -4.195  11.577  17.436  0.00  0.00    +0.000 A 
ATOM     27  N   UNL     1      -5.190  12.369  17.965  0.00  0.00    +0.000 N 
ATOM     28  C   UNL     1      -4.883  12.722  19.250  0.00  0.00    +0.000 A 
ATOM     29  C   UNL     1      -3.669  12.155  19.561  0.00  0.00    +0.000 A 
ATOM     30  C   UNL     1      -3.215  11.423  18.422  0.00  0.00    +0.000 A 
ATOM     31  H   UNL     1      -6.029  12.640  17.472  0.00  0.00    +0.000 HD
ENDBRANCH  19  22
ENDBRANCH  17  18
ENDBRANCH   2  17
TORSDOF 6
ENDMDL
MODEL 6
REMARK VINA RESULT:      -8.5      6.083      8.655
REMARK  Name = 
REMARK  7 active torsions:
REMARK  status: ('A' for Active; 'I' for Inactive)
REMARK    1  A    between atoms: C_1  and  C_2
REMARK    2  A    between atoms: C_2  and  C_3
REMARK    3  A    between atoms: C_2  and  C_16
REMARK    4  A    between atoms: C_3  and  N_4
REMARK    5  A    between atoms: C_5  and  C_7
REMARK    6  A    between atoms: C_20  and  C_21
REMARK    7  A    between atoms: C_21  and  C_23
REMARK                            x       y       z     vdW  Elec       q    Type
REMARK                         _______ _______ _______ _____ _____    ______ ____
ROOT
ATOM      1  C   UNL     1       1.227   8.853  18.992  0.00  0.00    +0.000 C 
ATOM      2  C   UNL     1       1.915   8.059  20.124  0.00  0.00    +0.000 C 
ENDROOT
BRANCH   2   3
ATOM      3  C   UNL     1       1.907   6.538  19.902  0.00  0.00    +0.000 A 
ATOM      4  C   UNL     1       1.409   5.652  20.874  0.00  0.00    +0.000 A 
ATOM      5  C   UNL     1       1.459   4.265  20.700  0.00  0.00    +0.000 A 
ATOM      6  C   UNL     1       2.046   3.725  19.562  0.00  0.00    +0.000 A 
ATOM      7  C   UNL     1       2.589   4.573  18.597  0.00  0.00    +0.000 A 
ATOM      8  C   UNL     1       2.492   5.966  18.757  0.00  0.00    +0.000 A 
BRANCH   7   9
ATOM      9  C   UNL     1       3.234   3.960  17.405  0.00  0.00    +0.000 C 
ATOM     10  O   UNL     1       2.564   3.237  16.671  0.00  0.00    +0.000 OA
BRANCH   9  11
ATOM     11  C   UNL     1       4.661   4.205  17.068  0.00  0.00    +0.000 A 
ATOM     12  C   UNL     1       5.020   4.255  15.716  0.00  0.00    +0.000 A 
ATOM     13  C   UNL     1       6.345   4.495  15.351  0.00  0.00    +0.000 A 
ATOM     14  C   UNL     1       7.316   4.682  16.334  0.00  0.00    +0.000 A 
ATOM     15  C   UNL     1       6.970   4.607  17.683  0.00  0.00    +0.000 A 
ATOM     16  C   UNL     1       5.648   4.352  18.052  0.00  0.00    +0.000 A 
ENDBRANCH   9  11
ENDBRANCH   7   9
ENDBRANCH   2   3
BRANCH   2  17
ATOM     17  C   UNL     1       1.282   8.481  21.474  0.00  0.00    +0.000 C 
BRANCH  17  18
ATOM     18  N   UNL     1       0.347   9.585  21.368  0.00  0.00    +0.000 N 
ATOM     19  C   UNL     1      -0.141  10.224  22.492  0.00  0.00    +0.000 C 
ATOM     20  O   UNL     1       0.206   9.932  23.628  0.00  0.00    +0.000 OA
ATOM     21  H   UNL     1       0.162   9.967  20.451  0.00  0.00    +0.000 HD
BRANCH  19  22
ATOM     22  C   UNL     1      -1.120  11.315  22.234  0.00  0.00    +0.000 A 
ATOM     23  C   UNL     1      -2.126  11.618  23.174  0.00  0.00    +0.000 A 
ATOM     24  C   UNL     1      -3.054  12.627  22.929  0.00  0.00    +0.000 A 
ATOM     25  C   UNL     1      -3.004  13.374  21.752  0.00  0.00    +0.000 A 
ATOM     26  C   UNL     1      -1.983  13.088  20.837  0.00  0.00    +0.000 A 
ATOM     27  N   UNL     1      -1.695  13.677  19.625  0.00  0.00    +0.000 N 
ATOM     28  C   UNL     1      -0.598  13.087  19.060  0.00  0.00    +0.000 A 
ATOM     29  C   UNL     1      -0.169  12.098  19.914  0.00  0.00    +0.000 A 
ATOM     30  C   UNL     1      -1.034  12.082  21.049  0.00  0.00    +0.000 A 
ATOM     31  H   UNL     1      -2.218  14.441  19.221  0.00  0.00    +0.000 HD
ENDBRANCH  19  22
ENDBRANCH  17  18
ENDBRANCH   2  17
TORSDOF 6
ENDMDL
MODEL 7
REMARK VINA RESULT:      -8.5      5.023      7.694
REMARK  Name = 
REMARK  7 active torsions:
REMARK  status: ('A' for Active; 'I' for Inactive)
REMARK    1  A    between atoms: C_1  and  C_2
REMARK    2  A    between atoms: C_2  and  C_3
REMARK    3  A    between atoms: C_2  and  C_16
REMARK    4  A    between atoms: C_3  and  N_4
REMARK    5  A    between atoms: C_5  and  C_7
REMARK    6  A    between atoms: C_20  and  C_21
REMARK    7  A    between atoms: C_21  and  C_23
REMARK                            x       y       z     vdW  Elec       q    Type
REMARK                         _______ _______ _______ _____ _____    ______ ____
ROOT
ATOM      1  C   UNL     1       1.941   5.076  21.144  0.00  0.00    +0.000 C 
ATOM      2  C   UNL     1       1.817   5.639  19.711  0.00  0.00    +0.000 C 
ENDROOT
BRANCH   2   3
ATOM      3  C   UNL     1       2.479   4.752  18.643  0.00  0.00    +0.000 A 
ATOM      4  C   UNL     1       1.861   3.581  18.168  0.00  0.00    +0.000 A 
ATOM      5  C   UNL     1       2.488   2.740  17.244  0.00  0.00    +0.000 A 
ATOM      6  C   UNL     1       3.772   3.028  16.798  0.00  0.00    +0.000 A 
ATOM      7  C   UNL     1       4.433   4.158  17.281  0.00  0.00    +0.000 A 
ATOM      8  C   UNL     1       3.777   5.023  18.172  0.00  0.00    +0.000 A 
BRANCH   7   9
ATOM      9  C   UNL     1       5.817   4.421  16.803  0.00  0.00    +0.000 C 
ATOM     10  O   UNL     1       6.258   3.764  15.863  0.00  0.00    +0.000 OA
BRANCH   9  11
ATOM     11  C   UNL     1       6.679   5.463  17.420  0.00  0.00    +0.000 A 
ATOM     12  C   UNL     1       6.804   6.692  16.760  0.00  0.00    +0.000 A 
ATOM     13  C   UNL     1       7.592   7.705  17.308  0.00  0.00    +0.000 A 
ATOM     14  C   UNL     1       8.261   7.493  18.514  0.00  0.00    +0.000 A 
ATOM     15  C   UNL     1       8.162   6.263  19.162  0.00  0.00    +0.000 A 
ATOM     16  C   UNL     1       7.386   5.242  18.609  0.00  0.00    +0.000 A 
ENDBRANCH   9  11
ENDBRANCH   7   9
ENDBRANCH   2   3
BRANCH   2  17
ATOM     17  C   UNL     1       2.345   7.095  19.707  0.00  0.00    +0.000 C 
BRANCH  17  18
ATOM     18  N   UNL     1       1.611   7.990  20.580  0.00  0.00    +0.000 N 
ATOM     19  C   UNL     1       1.030   9.149  20.098  0.00  0.00    +0.000 C 
ATOM     20  O   UNL     1       1.064   9.469  18.917  0.00  0.00    +0.000 OA
ATOM     21  H   UNL     1       1.415   7.685  21.523  0.00  0.00    +0.000 HD
BRANCH  19  22
ATOM     22  C   UNL     1       0.338   9.989  21.112  0.00  0.00    +0.000 A 
ATOM     23  C   UNL     1      -0.346   9.398  22.194  0.00  0.00    +0.000 A 
ATOM     24  C   UNL     1      -1.009  10.181  23.135  0.00  0.00    +0.000 A 
ATOM     25  C   UNL     1      -1.002  11.574  23.040  0.00  0.00    +0.000 A 
ATOM     26  C   UNL     1      -0.294  12.154  21.980  0.00  0.00    +0.000 A 
ATOM     27  N   UNL     1      -0.109  13.483  21.668  0.00  0.00    +0.000 N 
ATOM     28  C   UNL     1       0.661  13.603  20.544  0.00  0.00    +0.000 A 
ATOM     29  C   UNL     1       0.979  12.335  20.117  0.00  0.00    +0.000 A 
ATOM     30  C   UNL     1       0.383  11.400  21.016  0.00  0.00    +0.000 A 
ATOM     31  H   UNL     1      -0.485  14.255  22.201  0.00  0.00    +0.000 HD
ENDBRANCH  19  22
ENDBRANCH  17  18
ENDBRANCH   2  17
TORSDOF 6
ENDMDL
MODEL 8
REMARK VINA RESULT:      -8.5      5.655      8.463
REMARK  Name = 
REMARK  7 active torsions:
REMARK  status: ('A' for Active; 'I' for Inactive)
REMARK    1  A    between atoms: C_1  and  C_2
REMARK    2  A    between atoms: C_2  and  C_3
REMARK    3  A    between atoms: C_2  and  C_16
REMARK    4  A    between atoms: C_3  and  N_4
REMARK    5  A    between atoms: C_5  and  C_7
REMARK    6  A    between atoms: C_20  and  C_21
REMARK    7  A    between atoms: C_21  and  C_23
REMARK                            x       y       z     vdW  Elec       q    Type
REMARK                         _______ _______ _______ _____ _____    ______ ____
ROOT
ATOM      1  C   UNL     1       2.418   6.404  20.046  0.00  0.00    +0.000 C 
ATOM      2  C   UNL     1       2.428   6.510  18.505  0.00  0.00    +0.000 C 
ENDROOT
BRANCH   2   3
ATOM      3  C   UNL     1       3.305   5.449  17.822  0.00  0.00    +0.000 A 
ATOM      4  C   UNL     1       3.093   4.073  18.024  0.00  0.00    +0.000 A 
ATOM      5  C   UNL     1       3.928   3.107  17.454  0.00  0.00    +0.000 A 
ATOM      6  C   UNL     1       5.027   3.494  16.697  0.00  0.00    +0.000 A 
ATOM      7  C   UNL     1       5.294   4.851  16.511  0.00  0.00    +0.000 A 
ATOM      8  C   UNL     1       4.422   5.814  17.048  0.00  0.00    +0.000 A 
BRANCH   7   9
ATOM      9  C   UNL     1       6.493   5.230  15.718  0.00  0.00    +0.000 C 
ATOM     10  O   UNL     1       7.369   5.909  16.250  0.00  0.00    +0.000 OA
BRANCH   9  11
ATOM     11  C   UNL     1       6.672   4.802  14.306  0.00  0.00    +0.000 A 
ATOM     12  C   UNL     1       7.633   5.464  13.533  0.00  0.00    +0.000 A 
ATOM     13  C   UNL     1       7.846   5.088  12.205  0.00  0.00    +0.000 A 
ATOM     14  C   UNL     1       7.096   4.053  11.645  0.00  0.00    +0.000 A 
ATOM     15  C   UNL     1       6.119   3.408  12.402  0.00  0.00    +0.000 A 
ATOM     16  C   UNL     1       5.894   3.791  13.726  0.00  0.00    +0.000 A 
ENDBRANCH   9  11
ENDBRANCH   7   9
ENDBRANCH   2   3
BRANCH   2  17
ATOM     17  C   UNL     1       2.809   7.960  18.115  0.00  0.00    +0.000 C 
BRANCH  17  18
ATOM     18  N   UNL     1       1.672   8.808  17.816  0.00  0.00    +0.000 N 
ATOM     19  C   UNL     1       0.967   9.446  18.820  0.00  0.00    +0.000 C 
ATOM     20  O   UNL     1       1.274   9.368  20.002  0.00  0.00    +0.000 OA
ATOM     21  H   UNL     1       1.485   9.035  16.849  0.00  0.00    +0.000 HD
BRANCH  19  22
ATOM     22  C   UNL     1      -0.198  10.256  18.371  0.00  0.00    +0.000 A 
ATOM     23  C   UNL     1      -1.347   9.635  17.841  0.00  0.00    +0.000 A 
ATOM     24  C   UNL     1      -2.431  10.390  17.405  0.00  0.00    +0.000 A 
ATOM     25  C   UNL     1      -2.416  11.783  17.493  0.00  0.00    +0.000 A 
ATOM     26  C   UNL     1      -1.283  12.391  18.049  0.00  0.00    +0.000 A 
ATOM     27  N   UNL     1      -1.019  13.724  18.271  0.00  0.00    +0.000 N 
ATOM     28  C   UNL     1       0.213  13.875  18.846  0.00  0.00    +0.000 A 
ATOM     29  C   UNL     1       0.759  12.622  18.997  0.00  0.00    +0.000 A 
ATOM     30  C   UNL     1      -0.175  11.665  18.498  0.00  0.00    +0.000 A 
ATOM     31  H   UNL     1      -1.652  14.479  18.046  0.00  0.00    +0.000 HD
ENDBRANCH  19  22
ENDBRANCH  17  18
ENDBRANCH   2  17
TORSDOF 6
ENDMDL
MODEL 9
REMARK VINA RESULT:      -8.4      5.921      9.084
REMARK  Name = 
REMARK  7 active torsions:
REMARK  status: ('A' for Active; 'I' for Inactive)
REMARK    1  A    between atoms: C_1  and  C_2
REMARK    2  A    between atoms: C_2  and  C_3
REMARK    3  A    between atoms: C_2  and  C_16
REMARK    4  A    between atoms: C_3  and  N_4
REMARK    5  A    between atoms: C_5  and  C_7
REMARK    6  A    between atoms: C_20  and  C_21
REMARK    7  A    between atoms: C_21  and  C_23
REMARK                            x       y       z     vdW  Elec       q    Type
REMARK                         _______ _______ _______ _____ _____    ______ ____
ROOT
ATOM      1  C   UNL     1       1.358   8.642  17.742  0.00  0.00    +0.000 C 
ATOM      2  C   UNL     1       2.117   8.272  19.035  0.00  0.00    +0.000 C 
ENDROOT
BRANCH   2   3
ATOM      3  C   UNL     1       2.174   6.759  19.303  0.00  0.00    +0.000 A 
ATOM      4  C   UNL     1       1.568   6.186  20.436  0.00  0.00    +0.000 A 
ATOM      5  C   UNL     1       1.672   4.819  20.714  0.00  0.00    +0.000 A 
ATOM      6  C   UNL     1       2.421   3.993  19.886  0.00  0.00    +0.000 A 
ATOM      7  C   UNL     1       3.072   4.535  18.776  0.00  0.00    +0.000 A 
ATOM      8  C   UNL     1       2.923   5.900  18.477  0.00  0.00    +0.000 A 
BRANCH   7   9
ATOM      9  C   UNL     1       3.887   3.627  17.927  0.00  0.00    +0.000 C 
ATOM     10  O   UNL     1       3.621   2.427  17.910  0.00  0.00    +0.000 OA
BRANCH   9  11
ATOM     11  C   UNL     1       5.008   4.127  17.087  0.00  0.00    +0.000 A 
ATOM     12  C   UNL     1       4.783   4.289  15.715  0.00  0.00    +0.000 A 
ATOM     13  C   UNL     1       5.801   4.768  14.890  0.00  0.00    +0.000 A 
ATOM     14  C   UNL     1       7.047   5.083  15.431  0.00  0.00    +0.000 A 
ATOM     15  C   UNL     1       7.286   4.899  16.792  0.00  0.00    +0.000 A 
ATOM     16  C   UNL     1       6.274   4.406  17.619  0.00  0.00    +0.000 A 
ENDBRANCH   9  11
ENDBRANCH   7   9
ENDBRANCH   2   3
BRANCH   2  17
ATOM     17  C   UNL     1       1.508   9.077  20.210  0.00  0.00    +0.000 C 
BRANCH  17  18
ATOM     18  N   UNL     1       0.185   9.605  19.939  0.00  0.00    +0.000 N 
ATOM     19  C   UNL     1      -0.021  10.956  19.728  0.00  0.00    +0.000 C 
ATOM     20  O   UNL     1       0.889  11.774  19.719  0.00  0.00    +0.000 OA
ATOM     21  H   UNL     1      -0.566   8.950  19.773  0.00  0.00    +0.000 HD
BRANCH  19  22
ATOM     22  C   UNL     1      -1.434  11.361  19.497  0.00  0.00    +0.000 A 
ATOM     23  C   UNL     1      -2.098  12.210  20.405  0.00  0.00    +0.000 A 
ATOM     24  C   UNL     1      -3.425  12.577  20.201  0.00  0.00    +0.000 A 
ATOM     25  C   UNL     1      -4.129  12.125  19.083  0.00  0.00    +0.000 A 
ATOM     26  C   UNL     1      -3.453  11.307  18.170  0.00  0.00    +0.000 A 
ATOM     27  N   UNL     1      -3.896  10.748  16.992  0.00  0.00    +0.000 N 
ATOM     28  C   UNL     1      -2.897  10.020  16.406  0.00  0.00    +0.000 A 
ATOM     29  C   UNL     1      -1.789  10.104  17.217  0.00  0.00    +0.000 A 
ATOM     30  C   UNL     1      -2.120  10.918  18.342  0.00  0.00    +0.000 A 
ATOM     31  H   UNL     1      -4.825  10.869  16.614  0.00  0.00    +0.000 HD
ENDBRANCH  19  22
ENDBRANCH  17  18
ENDBRANCH   2  17
TORSDOF 6
ENDMDL
