MODEL 1
REMARK VINA RESULT:      -7.8      0.000      0.000
REMARK  Name = 
REMARK  6 active torsions:
REMARK  status: ('A' for Active; 'I' for Inactive)
REMARK    1  A    between atoms: C_1  and  N_2
REMARK    2  A    between atoms: N_2  and  C_3
REMARK    3  A    between atoms: C_8  and  O_9
REMARK    4  A    between atoms: O_9  and  C_10
REMARK    5  A    between atoms: C_14  and  C_16
REMARK    6  A    between atoms: C_16  and  C_17
REMARK                            x       y       z     vdW  Elec       q    Type
REMARK                         _______ _______ _______ _____ _____    ______ ____
ROOT
ATOM      1  C   UNL     1       1.652   9.103  19.090  0.00  0.00    +0.000 C 
ATOM      2  C   UNL     1       2.552   8.711  17.910  0.00  0.00    +0.000 C 
ATOM      3  C   UNL     1       2.483   7.194  17.838  0.00  0.00    +0.000 C 
ATOM      4  N   UNL     1       2.234   6.778  19.200  0.00  0.00    +0.000 N 
ATOM      5  C   UNL     1       2.452   5.532  19.754  0.00  0.00    +0.000 C 
ATOM      6  O   UNL     1       2.193   5.309  20.940  0.00  0.00    +0.000 OA
ATOM      7  C   UNL     1       1.645   7.858  19.987  0.00  0.00    +0.000 C 
ENDROOT
BRANCH   1   8
ATOM      8  O   UNL     1       0.344   9.401  18.586  0.00  0.00    +0.000 OA
BRANCH   8  16
ATOM      9  C   UNL     1      -1.956  12.685  23.143  0.00  0.00    +0.000 C 
ATOM     10  N   UNL     1      -1.261  11.595  22.482  0.00  0.00    +0.000 N 
ATOM     11  C   UNL     1      -0.896  10.417  23.248  0.00  0.00    +0.000 C 
ATOM     12  C   UNL     1      -1.077  11.554  21.106  0.00  0.00    +0.000 A 
ATOM     13  C   UNL     1      -1.496  12.588  20.256  0.00  0.00    +0.000 A 
ATOM     14  N   UNL     1      -1.339  12.596  18.905  0.00  0.00    +0.000 NA
ATOM     15  C   UNL     1      -0.722  11.502  18.410  0.00  0.00    +0.000 A 
ATOM     16  C   UNL     1      -0.285  10.464  19.216  0.00  0.00    +0.000 A 
ATOM     17  N   UNL     1      -0.460  10.470  20.560  0.00  0.00    +0.000 NA
ENDBRANCH   8  16
ENDBRANCH   1   8
BRANCH   5  18
ATOM     18  C   UNL     1       2.988   4.423  18.856  0.00  0.00    +0.000 C 
BRANCH  18  19
ATOM     19  C   UNL     1       4.457   4.519  18.565  0.00  0.00    +0.000 A 
ATOM     20  C   UNL     1       5.454   4.745  19.497  0.00  0.00    +0.000 A 
ATOM     21  N   UNL     1       6.653   4.834  18.842  0.00  0.00    +0.000 N 
ATOM     22  C   UNL     1       6.466   4.696  17.489  0.00  0.00    +0.000 A 
ATOM     23  C   UNL     1       7.398   4.752  16.445  0.00  0.00    +0.000 A 
ATOM     24  C   UNL     1       6.922   4.588  15.140  0.00  0.00    +0.000 A 
ATOM     25  C   UNL     1       5.570   4.372  14.897  0.00  0.00    +0.000 A 
ATOM     26  C   UNL     1       4.651   4.322  15.953  0.00  0.00    +0.000 A 
ATOM     27  C   UNL     1       5.101   4.488  17.281  0.00  0.00    +0.000 A 
ATOM     28  H   UNL     1       7.547   5.006  19.280  0.00  0.00    +0.000 HD
ENDBRANCH  18  19
ENDBRANCH   5  18
TORSDOF 4
ENDMDL
MODEL 2
REMARK VINA RESULT:      -7.6      1.143      1.664
REMARK  Name = 
REMARK  6 active torsions:
REMARK  status: ('A' for Active; 'I' for Inactive)
REMARK    1  A    between atoms: C_1  and  N_2
REMARK    2  A    between atoms: N_2  and  C_3
REMARK    3  A    between atoms: C_8  and  O_9
REMARK    4  A    between atoms: O_9  and  C_10
REMARK    5  A    between atoms: C_14  and  C_16
REMARK    6  A    between atoms: C_16  and  C_17
REMARK                            x       y       z     vdW  Elec       q    Type
REMARK                         _______ _______ _______ _____ _____    ______ ____
ROOT
ATOM      1  C   UNL     1       1.637   9.367  19.126  0.00  0.00    +0.000 C 
ATOM      2  C   UNL     1       2.413   9.008  17.850  0.00  0.00    +0.000 C 
ATOM      3  C   UNL     1       2.268   7.502  17.703  0.00  0.00    +0.000 C 
ATOM      4  N   UNL     1       2.120   7.018  19.058  0.00  0.00    +0.000 N 
ATOM      5  C   UNL     1       2.329   5.735  19.522  0.00  0.00    +0.000 C 
ATOM      6  O   UNL     1       2.164   5.454  20.713  0.00  0.00    +0.000 OA
ATOM      7  C   UNL     1       1.652   8.074  19.951  0.00  0.00    +0.000 C 
ENDROOT
BRANCH   1   8
ATOM      8  O   UNL     1       0.305   9.747  18.757  0.00  0.00    +0.000 OA
BRANCH   8  16
ATOM      9  C   UNL     1      -3.836  13.702  20.770  0.00  0.00    +0.000 C 
ATOM     10  N   UNL     1      -3.289  12.585  20.021  0.00  0.00    +0.000 N 
ATOM     11  C   UNL     1      -4.092  11.965  18.981  0.00  0.00    +0.000 C 
ATOM     12  C   UNL     1      -1.964  12.186  20.138  0.00  0.00    +0.000 A 
ATOM     13  C   UNL     1      -1.068  12.793  21.031  0.00  0.00    +0.000 A 
ATOM     14  N   UNL     1       0.236  12.440  21.183  0.00  0.00    +0.000 NA
ATOM     15  C   UNL     1       0.634  11.420  20.392  0.00  0.00    +0.000 A 
ATOM     16  C   UNL     1      -0.222  10.788  19.506  0.00  0.00    +0.000 A 
ATOM     17  N   UNL     1      -1.517  11.162  19.361  0.00  0.00    +0.000 NA
ENDBRANCH   8  16
ENDBRANCH   1   8
BRANCH   5  18
ATOM     18  C   UNL     1       2.734   4.659  18.521  0.00  0.00    +0.000 C 
BRANCH  18  19
ATOM     19  C   UNL     1       4.216   4.488  18.362  0.00  0.00    +0.000 A 
ATOM     20  C   UNL     1       5.117   4.247  19.384  0.00  0.00    +0.000 A 
ATOM     21  N   UNL     1       6.380   4.220  18.856  0.00  0.00    +0.000 N 
ATOM     22  C   UNL     1       6.335   4.463  17.505  0.00  0.00    +0.000 A 
ATOM     23  C   UNL     1       7.379   4.560  16.577  0.00  0.00    +0.000 A 
ATOM     24  C   UNL     1       7.043   4.832  15.248  0.00  0.00    +0.000 A 
ATOM     25  C   UNL     1       5.714   4.994  14.867  0.00  0.00    +0.000 A 
ATOM     26  C   UNL     1       4.682   4.897  15.810  0.00  0.00    +0.000 A 
ATOM     27  C   UNL     1       4.991   4.626  17.161  0.00  0.00    +0.000 A 
ATOM     28  H   UNL     1       7.230   4.072  19.382  0.00  0.00    +0.000 HD
ENDBRANCH  18  19
ENDBRANCH   5  18
TORSDOF 4
ENDMDL
MODEL 3
REMARK VINA RESULT:      -7.6      1.651      2.156
REMARK  Name = 
REMARK  6 active torsions:
REMARK  status: ('A' for Active; 'I' for Inactive)
REMARK    1  A    between atoms: C_1  and  N_2
REMARK    2  A    between atoms: N_2  and  C_3
REMARK    3  A    between atoms: C_8  and  O_9
REMARK    4  A    between atoms: O_9  and  C_10
REMARK    5  A    between atoms: C_14  and  C_16
REMARK    6  A    between atoms: C_16  and  C_17
REMARK                            x       y       z     vdW  Elec       q    Type
REMARK                         _______ _______ _______ _____ _____    ______ ____
ROOT
ATOM      1  C   UNL     1       1.715   9.066  19.058  0.00  0.00    +0.000 C 
ATOM      2  C   UNL     1       2.594   8.646  17.872  0.00  0.00    +0.000 C 
ATOM      3  C   UNL     1       2.519   7.128  17.834  0.00  0.00    +0.000 C 
ATOM      4  N   UNL     1       2.292   6.742  19.209  0.00  0.00    +0.000 N 
ATOM      5  C   UNL     1       2.516   5.508  19.786  0.00  0.00    +0.000 C 
ATOM      6  O   UNL     1       2.276   5.311  20.981  0.00  0.00    +0.000 OA
ATOM      7  C   UNL     1       1.719   7.840  19.981  0.00  0.00    +0.000 C 
ENDROOT
BRANCH   1   8
ATOM      8  O   UNL     1       0.399   9.356  18.570  0.00  0.00    +0.000 OA
BRANCH   8  16
ATOM      9  C   UNL     1       1.115  15.371  18.957  0.00  0.00    +0.000 C 
ATOM     10  N   UNL     1       1.486  13.974  18.822  0.00  0.00    +0.000 N 
ATOM     11  C   UNL     1       2.887  13.599  18.909  0.00  0.00    +0.000 C 
ATOM     12  C   UNL     1       0.545  12.953  18.782  0.00  0.00    +0.000 A 
ATOM     13  C   UNL     1      -0.836  13.197  18.810  0.00  0.00    +0.000 A 
ATOM     14  N   UNL     1      -1.796  12.234  18.772  0.00  0.00    +0.000 NA
ATOM     15  C   UNL     1      -1.318  10.974  18.697  0.00  0.00    +0.000 A 
ATOM     16  C   UNL     1       0.037  10.691  18.658  0.00  0.00    +0.000 A 
ATOM     17  N   UNL     1       0.979  11.665  18.707  0.00  0.00    +0.000 NA
ENDBRANCH   8  16
ENDBRANCH   1   8
BRANCH   5  18
ATOM     18  C   UNL     1       3.034   4.378  18.903  0.00  0.00    +0.000 C 
BRANCH  18  19
ATOM     19  C   UNL     1       4.497   4.467  18.580  0.00  0.00    +0.000 A 
ATOM     20  C   UNL     1       5.516   4.671  19.493  0.00  0.00    +0.000 A 
ATOM     21  N   UNL     1       6.701   4.760  18.813  0.00  0.00    +0.000 N 
ATOM     22  C   UNL     1       6.483   4.643  17.462  0.00  0.00    +0.000 A 
ATOM     23  C   UNL     1       7.392   4.706  16.398  0.00  0.00    +0.000 A 
ATOM     24  C   UNL     1       6.886   4.565  15.103  0.00  0.00    +0.000 A 
ATOM     25  C   UNL     1       5.526   4.364  14.887  0.00  0.00    +0.000 A 
ATOM     26  C   UNL     1       4.630   4.306  15.963  0.00  0.00    +0.000 A 
ATOM     27  C   UNL     1       5.111   4.449  17.282  0.00  0.00    +0.000 A 
ATOM     28  H   UNL     1       7.606   4.918  19.233  0.00  0.00    +0.000 HD
ENDBRANCH  18  19
ENDBRANCH   5  18
TORSDOF 4
ENDMDL
MODEL 4
REMARK VINA RESULT:      -7.6      2.257      3.464
REMARK  Name = 
REMARK  6 active torsions:
REMARK  status: ('A' for Active; 'I' for Inactive)
REMARK    1  A    between atoms: C_1  and  N_2
REMARK    2  A    between atoms: N_2  and  C_3
REMARK    3  A    between atoms: C_8  and  O_9
REMARK    4  A    between atoms: O_9  and  C_10
REMARK    5  A    between atoms: C_14  and  C_16
REMARK    6  A    between atoms: C_16  and  C_17
REMARK                            x       y       z     vdW  Elec       q    Type
REMARK                         _______ _______ _______ _____ _____    ______ ____
ROOT
ATOM      1  C   UNL     1       0.579  10.936  19.279  0.00  0.00    +0.000 C 
ATOM      2  C   UNL     1       1.701  11.126  18.248  0.00  0.00    +0.000 C 
ATOM      3  C   UNL     1       2.068   9.723  17.792  0.00  0.00    +0.000 C 
ATOM      4  N   UNL     1       1.767   8.882  18.930  0.00  0.00    +0.000 N 
ATOM      5  C   UNL     1       2.250   7.615  19.192  0.00  0.00    +0.000 C 
ATOM      6  O   UNL     1       1.908   7.002  20.208  0.00  0.00    +0.000 OA
ATOM      7  C   UNL     1       0.801   9.518  19.820  0.00  0.00    +0.000 C 
ENDROOT
BRANCH   1   8
ATOM      8  O   UNL     1      -0.682  11.056  18.607  0.00  0.00    +0.000 OA
BRANCH   8  16
ATOM      9  C   UNL     1      -6.161  13.193  20.108  0.00  0.00    +0.000 C 
ATOM     10  N   UNL     1      -5.170  12.381  19.425  0.00  0.00    +0.000 N 
ATOM     11  C   UNL     1      -5.573  11.578  18.284  0.00  0.00    +0.000 C 
ATOM     12  C   UNL     1      -3.813  12.466  19.707  0.00  0.00    +0.000 A 
ATOM     13  C   UNL     1      -3.302  13.299  20.714  0.00  0.00    +0.000 A 
ATOM     14  N   UNL     1      -1.984  13.418  21.029  0.00  0.00    +0.000 NA
ATOM     15  C   UNL     1      -1.162  12.647  20.287  0.00  0.00    +0.000 A 
ATOM     16  C   UNL     1      -1.627  11.804  19.291  0.00  0.00    +0.000 A 
ATOM     17  N   UNL     1      -2.944  11.708  18.984  0.00  0.00    +0.000 NA
ENDBRANCH   8  16
ENDBRANCH   1   8
BRANCH   5  18
ATOM     18  C   UNL     1       3.188   6.972  18.178  0.00  0.00    +0.000 C 
BRANCH  18  19
ATOM     19  C   UNL     1       3.742   5.644  18.604  0.00  0.00    +0.000 A 
ATOM     20  C   UNL     1       5.053   5.393  18.971  0.00  0.00    +0.000 A 
ATOM     21  N   UNL     1       5.187   4.055  19.227  0.00  0.00    +0.000 N 
ATOM     22  C   UNL     1       3.994   3.409  19.013  0.00  0.00    +0.000 A 
ATOM     23  C   UNL     1       3.680   2.048  19.119  0.00  0.00    +0.000 A 
ATOM     24  C   UNL     1       2.370   1.659  18.826  0.00  0.00    +0.000 A 
ATOM     25  C   UNL     1       1.415   2.598  18.448  0.00  0.00    +0.000 A 
ATOM     26  C   UNL     1       1.747   3.956  18.344  0.00  0.00    +0.000 A 
ATOM     27  C   UNL     1       3.064   4.378  18.630  0.00  0.00    +0.000 A 
ATOM     28  H   UNL     1       6.043   3.597  19.505  0.00  0.00    +0.000 HD
ENDBRANCH  18  19
ENDBRANCH   5  18
TORSDOF 4
ENDMDL
MODEL 5
REMARK VINA RESULT:      -7.6      3.054      4.672
REMARK  Name = 
REMARK  6 active torsions:
REMARK  status: ('A' for Active; 'I' for Inactive)
REMARK    1  A    between atoms: C_1  and  N_2
REMARK    2  A    between atoms: N_2  and  C_3
REMARK    3  A    between atoms: C_8  and  O_9
REMARK    4  A    between atoms: O_9  and  C_10
REMARK    5  A    between atoms: C_14  and  C_16
REMARK    6  A    between atoms: C_16  and  C_17
REMARK                            x       y       z     vdW  Elec       q    Type
REMARK                         _______ _______ _______ _____ _____    ______ ____
ROOT
ATOM      1  C   UNL     1      -0.113  10.038  20.794  0.00  0.00    +0.000 C 
ATOM      2  C   UNL     1       0.156   8.719  21.532  0.00  0.00    +0.000 C 
ATOM      3  C   UNL     1       1.443   8.177  20.930  0.00  0.00    +0.000 C 
ATOM      4  N   UNL     1       1.452   8.687  19.577  0.00  0.00    +0.000 N 
ATOM      5  C   UNL     1       2.173   8.208  18.501  0.00  0.00    +0.000 C 
ATOM      6  O   UNL     1       2.090   8.742  17.391  0.00  0.00    +0.000 OA
ATOM      7  C   UNL     1       0.604   9.868  19.448  0.00  0.00    +0.000 C 
ENDROOT
BRANCH   1   8
ATOM      8  O   UNL     1       0.446  11.111  21.561  0.00  0.00    +0.000 OA
BRANCH   8  16
ATOM      9  C   UNL     1       2.102  16.374  19.029  0.00  0.00    +0.000 C 
ATOM     10  N   UNL     1       2.245  15.044  19.594  0.00  0.00    +0.000 N 
ATOM     11  C   UNL     1       3.574  14.537  19.890  0.00  0.00    +0.000 C 
ATOM     12  C   UNL     1       1.157  14.294  20.022  0.00  0.00    +0.000 A 
ATOM     13  C   UNL     1      -0.166  14.740  19.890  0.00  0.00    +0.000 A 
ATOM     14  N   UNL     1      -1.264  14.045  20.292  0.00  0.00    +0.000 NA
ATOM     15  C   UNL     1      -0.992  12.844  20.846  0.00  0.00    +0.000 A 
ATOM     16  C   UNL     1       0.300  12.364  20.986  0.00  0.00    +0.000 A 
ATOM     17  N   UNL     1       1.382  13.077  20.588  0.00  0.00    +0.000 NA
ENDBRANCH   8  16
ENDBRANCH   1   8
BRANCH   5  18
ATOM     18  C   UNL     1       3.107   7.025  18.722  0.00  0.00    +0.000 C 
BRANCH  18  19
ATOM     19  C   UNL     1       2.445   5.683  18.601  0.00  0.00    +0.000 A 
ATOM     20  C   UNL     1       1.854   5.173  17.459  0.00  0.00    +0.000 A 
ATOM     21  N   UNL     1       1.302   3.957  17.759  0.00  0.00    +0.000 N 
ATOM     22  C   UNL     1       1.493   3.662  19.086  0.00  0.00    +0.000 A 
ATOM     23  C   UNL     1       1.072   2.551  19.828  0.00  0.00    +0.000 A 
ATOM     24  C   UNL     1       1.400   2.516  21.186  0.00  0.00    +0.000 A 
ATOM     25  C   UNL     1       2.124   3.549  21.772  0.00  0.00    +0.000 A 
ATOM     26  C   UNL     1       2.535   4.655  21.016  0.00  0.00    +0.000 A 
ATOM     27  C   UNL     1       2.215   4.721  19.642  0.00  0.00    +0.000 A 
ATOM     28  H   UNL     1       0.798   3.368  17.110  0.00  0.00    +0.000 HD
ENDBRANCH  18  19
ENDBRANCH   5  18
TORSDOF 4
ENDMDL
MODEL 6
REMARK VINA RESULT:      -7.6      2.314      4.062
REMARK  Name = 
REMARK  6 active torsions:
REMARK  status: ('A' for Active; 'I' for Inactive)
REMARK    1  A    between atoms: C_1  and  N_2
REMARK    2  A    between atoms: N_2  and  C_3
REMARK    3  A    between atoms: C_8  and  O_9
REMARK    4  A    between atoms: O_9  and  C_10
REMARK    5  A    between atoms: C_14  and  C_16
REMARK    6  A    between atoms: C_16  and  C_17
REMARK                            x       y       z     vdW  Elec       q    Type
REMARK                         _______ _______ _______ _____ _____    ______ ____
ROOT
ATOM      1  C   UNL     1      -0.412  10.203  20.115  0.00  0.00    +0.000 C 
ATOM      2  C   UNL     1      -0.138   9.113  21.161  0.00  0.00    +0.000 C 
ATOM      3  C   UNL     1       1.253   8.590  20.840  0.00  0.00    +0.000 C 
ATOM      4  N   UNL     1       1.395   8.788  19.415  0.00  0.00    +0.000 N 
ATOM      5  C   UNL     1       2.282   8.163  18.561  0.00  0.00    +0.000 C 
ATOM      6  O   UNL     1       2.299   8.429  17.355  0.00  0.00    +0.000 OA
ATOM      7  C   UNL     1       0.482   9.818  18.928  0.00  0.00    +0.000 C 
ENDROOT
BRANCH   1   8
ATOM      8  O   UNL     1      -0.039  11.471  20.669  0.00  0.00    +0.000 OA
BRANCH   8  16
ATOM      9  C   UNL     1      -5.607  13.636  21.744  0.00  0.00    +0.000 C 
ATOM     10  N   UNL     1      -4.546  12.922  21.057  0.00  0.00    +0.000 N 
ATOM     11  C   UNL     1      -4.781  12.421  19.714  0.00  0.00    +0.000 C 
ATOM     12  C   UNL     1      -3.255  12.839  21.560  0.00  0.00    +0.000 A 
ATOM     13  C   UNL     1      -2.889  13.390  22.797  0.00  0.00    +0.000 A 
ATOM     14  N   UNL     1      -1.641  13.336  23.333  0.00  0.00    +0.000 NA
ATOM     15  C   UNL     1      -0.735  12.687  22.572  0.00  0.00    +0.000 A 
ATOM     16  C   UNL     1      -1.057  12.120  21.350  0.00  0.00    +0.000 A 
ATOM     17  N   UNL     1      -2.306  12.194  20.827  0.00  0.00    +0.000 NA
ENDBRANCH   8  16
ENDBRANCH   1   8
BRANCH   5  18
ATOM     18  C   UNL     1       3.269   7.161  19.147  0.00  0.00    +0.000 C 
BRANCH  18  19
ATOM     19  C   UNL     1       3.218   5.801  18.514  0.00  0.00    +0.000 A 
ATOM     20  C   UNL     1       3.913   5.409  17.383  0.00  0.00    +0.000 A 
ATOM     21  N   UNL     1       3.557   4.123  17.076  0.00  0.00    +0.000 N 
ATOM     22  C   UNL     1       2.620   3.663  17.968  0.00  0.00    +0.000 A 
ATOM     23  C   UNL     1       1.958   2.430  18.017  0.00  0.00    +0.000 A 
ATOM     24  C   UNL     1       1.029   2.233  19.043  0.00  0.00    +0.000 A 
ATOM     25  C   UNL     1       0.781   3.229  19.982  0.00  0.00    +0.000 A 
ATOM     26  C   UNL     1       1.451   4.458  19.916  0.00  0.00    +0.000 A 
ATOM     27  C   UNL     1       2.392   4.688  18.889  0.00  0.00    +0.000 A 
ATOM     28  H   UNL     1       3.907   3.592  16.291  0.00  0.00    +0.000 HD
ENDBRANCH  18  19
ENDBRANCH   5  18
TORSDOF 4
ENDMDL
MODEL 7
REMARK VINA RESULT:      -7.6      2.177      3.626
REMARK  Name = 
REMARK  6 active torsions:
REMARK  status: ('A' for Active; 'I' for Inactive)
REMARK    1  A    between atoms: C_1  and  N_2
REMARK    2  A    between atoms: N_2  and  C_3
REMARK    3  A    between atoms: C_8  and  O_9
REMARK    4  A    between atoms: O_9  and  C_10
REMARK    5  A    between atoms: C_14  and  C_16
REMARK    6  A    between atoms: C_16  and  C_17
REMARK                            x       y       z     vdW  Elec       q    Type
REMARK                         _______ _______ _______ _____ _____    ______ ____
ROOT
ATOM      1  C   UNL     1       0.266  11.192  20.769  0.00  0.00    +0.000 C 
ATOM      2  C   UNL     1       0.734  11.658  19.384  0.00  0.00    +0.000 C 
ATOM      3  C   UNL     1       0.920  10.385  18.574  0.00  0.00    +0.000 C 
ATOM      4  N   UNL     1       1.261   9.378  19.554  0.00  0.00    +0.000 N 
ATOM      5  C   UNL     1       1.887   8.167  19.336  0.00  0.00    +0.000 C 
ATOM      6  O   UNL     1       2.119   7.393  20.270  0.00  0.00    +0.000 OA
ATOM      7  C   UNL     1       0.810   9.762  20.889  0.00  0.00    +0.000 C 
ENDROOT
BRANCH   1   8
ATOM      8  O   UNL     1      -1.167  11.218  20.799  0.00  0.00    +0.000 OA
BRANCH   8  16
ATOM      9  C   UNL     1      -5.417  14.512  23.615  0.00  0.00    +0.000 C 
ATOM     10  N   UNL     1      -4.853  13.534  22.702  0.00  0.00    +0.000 N 
ATOM     11  C   UNL     1      -5.702  12.935  21.687  0.00  0.00    +0.000 C 
ATOM     12  C   UNL     1      -3.491  13.266  22.645  0.00  0.00    +0.000 A 
ATOM     13  C   UNL     1      -2.565  13.877  23.504  0.00  0.00    +0.000 A 
ATOM     14  N   UNL     1      -1.224  13.648  23.488  0.00  0.00    +0.000 NA
ATOM     15  C   UNL     1      -0.821  12.755  22.560  0.00  0.00    +0.000 A 
ATOM     16  C   UNL     1      -1.705  12.123  21.701  0.00  0.00    +0.000 A 
ATOM     17  N   UNL     1      -3.037  12.372  21.725  0.00  0.00    +0.000 NA
ENDBRANCH   8  16
ENDBRANCH   1   8
BRANCH   5  18
ATOM     18  C   UNL     1       2.254   7.788  17.907  0.00  0.00    +0.000 C 
BRANCH  18  19
ATOM     19  C   UNL     1       3.171   6.604  17.797  0.00  0.00    +0.000 A 
ATOM     20  C   UNL     1       4.525   6.653  17.520  0.00  0.00    +0.000 A 
ATOM     21  N   UNL     1       5.000   5.372  17.436  0.00  0.00    +0.000 N 
ATOM     22  C   UNL     1       3.980   4.473  17.628  0.00  0.00    +0.000 A 
ATOM     23  C   UNL     1       4.000   3.073  17.596  0.00  0.00    +0.000 A 
ATOM     24  C   UNL     1       2.794   2.401  17.816  0.00  0.00    +0.000 A 
ATOM     25  C   UNL     1       1.620   3.106  18.063  0.00  0.00    +0.000 A 
ATOM     26  C   UNL     1       1.618   4.507  18.089  0.00  0.00    +0.000 A 
ATOM     27  C   UNL     1       2.819   5.213  17.866  0.00  0.00    +0.000 A 
ATOM     28  H   UNL     1       5.956   5.115  17.233  0.00  0.00    +0.000 HD
ENDBRANCH  18  19
ENDBRANCH   5  18
TORSDOF 4
ENDMDL
MODEL 8
REMARK VINA RESULT:      -7.5      2.115      9.046
REMARK  Name = 
REMARK  6 active torsions:
REMARK  status: ('A' for Active; 'I' for Inactive)
REMARK    1  A    between atoms: C_1  and  N_2
REMARK    2  A    between atoms: N_2  and  C_3
REMARK    3  A    between atoms: C_8  and  O_9
REMARK    4  A    between atoms: O_9  and  C_10
REMARK    5  A    between atoms: C_14  and  C_16
REMARK    6  A    between atoms: C_16  and  C_17
REMARK                            x       y       z     vdW  Elec       q    Type
REMARK                         _______ _______ _______ _____ _____    ______ ____
ROOT
ATOM      1  C   UNL     1       2.374   7.497  19.403  0.00  0.00    +0.000 C 
ATOM      2  C   UNL     1       1.691   7.491  20.778  0.00  0.00    +0.000 C 
ATOM      3  C   UNL     1       0.573   8.515  20.676  0.00  0.00    +0.000 C 
ATOM      4  N   UNL     1       1.047   9.473  19.702  0.00  0.00    +0.000 N 
ATOM      5  C   UNL     1       0.611  10.770  19.513  0.00  0.00    +0.000 C 
ATOM      6  O   UNL     1       1.105  11.486  18.637  0.00  0.00    +0.000 OA
ATOM      7  C   UNL     1       2.072   8.892  18.840  0.00  0.00    +0.000 C 
ENDROOT
BRANCH   1   8
ATOM      8  O   UNL     1       1.791   6.463  18.600  0.00  0.00    +0.000 OA
BRANCH   8  16
ATOM      9  C   UNL     1       7.091   4.505  16.383  0.00  0.00    +0.000 C 
ATOM     10  N   UNL     1       6.139   5.410  17.001  0.00  0.00    +0.000 N 
ATOM     11  C   UNL     1       6.506   6.801  17.200  0.00  0.00    +0.000 C 
ATOM     12  C   UNL     1       4.824   5.045  17.260  0.00  0.00    +0.000 A 
ATOM     13  C   UNL     1       4.331   3.758  16.998  0.00  0.00    +0.000 A 
ATOM     14  N   UNL     1       3.055   3.352  17.234  0.00  0.00    +0.000 NA
ATOM     15  C   UNL     1       2.256   4.302  17.764  0.00  0.00    +0.000 A 
ATOM     16  C   UNL     1       2.707   5.582  18.047  0.00  0.00    +0.000 A 
ATOM     17  N   UNL     1       3.981   5.971  17.795  0.00  0.00    +0.000 NA
ENDBRANCH   8  16
ENDBRANCH   1   8
BRANCH   5  18
ATOM     18  C   UNL     1      -0.522  11.288  20.390  0.00  0.00    +0.000 C 
BRANCH  18  19
ATOM     19  C   UNL     1      -1.767  11.657  19.637  0.00  0.00    +0.000 A 
ATOM     20  C   UNL     1      -2.731  12.556  20.058  0.00  0.00    +0.000 A 
ATOM     21  N   UNL     1      -3.744  12.574  19.137  0.00  0.00    +0.000 N 
ATOM     22  C   UNL     1      -3.480  11.685  18.124  0.00  0.00    +0.000 A 
ATOM     23  C   UNL     1      -4.247  11.353  17.000  0.00  0.00    +0.000 A 
ATOM     24  C   UNL     1      -3.735  10.390  16.125  0.00  0.00    +0.000 A 
ATOM     25  C   UNL     1      -2.503   9.791  16.367  0.00  0.00    +0.000 A 
ATOM     26  C   UNL     1      -1.750  10.133  17.499  0.00  0.00    +0.000 A 
ATOM     27  C   UNL     1      -2.243  11.099  18.402  0.00  0.00    +0.000 A 
ATOM     28  H   UNL     1      -4.581  13.135  19.200  0.00  0.00    +0.000 HD
ENDBRANCH  18  19
ENDBRANCH   5  18
TORSDOF 4
ENDMDL
MODEL 9
REMARK VINA RESULT:      -7.5      2.103      9.590
REMARK  Name = 
REMARK  6 active torsions:
REMARK  status: ('A' for Active; 'I' for Inactive)
REMARK    1  A    between atoms: C_1  and  N_2
REMARK    2  A    between atoms: N_2  and  C_3
REMARK    3  A    between atoms: C_8  and  O_9
REMARK    4  A    between atoms: O_9  and  C_10
REMARK    5  A    between atoms: C_14  and  C_16
REMARK    6  A    between atoms: C_16  and  C_17
REMARK                            x       y       z     vdW  Elec       q    Type
REMARK                         _______ _______ _______ _____ _____    ______ ____
ROOT
ATOM      1  C   UNL     1       1.702   8.175  18.577  0.00  0.00    +0.000 C 
ATOM      2  C   UNL     1       1.082   9.314  17.755  0.00  0.00    +0.000 C 
ATOM      3  C   UNL     1       1.166  10.543  18.645  0.00  0.00    +0.000 C 
ATOM      4  N   UNL     1       1.110  10.020  19.992  0.00  0.00    +0.000 N 
ATOM      5  C   UNL     1       0.776  10.699  21.147  0.00  0.00    +0.000 C 
ATOM      6  O   UNL     1       0.770  10.128  22.242  0.00  0.00    +0.000 OA
ATOM      7  C   UNL     1       1.513   8.617  20.034  0.00  0.00    +0.000 C 
ENDROOT
BRANCH   1   8
ATOM      8  O   UNL     1       3.089   8.067  18.232  0.00  0.00    +0.000 OA
BRANCH   8  16
ATOM      9  C   UNL     1       2.978   2.011  17.836  0.00  0.00    +0.000 C 
ATOM     10  N   UNL     1       2.543   3.348  18.199  0.00  0.00    +0.000 N 
ATOM     11  C   UNL     1       1.445   3.508  19.137  0.00  0.00    +0.000 C 
ATOM     12  C   UNL     1       3.239   4.488  17.819  0.00  0.00    +0.000 A 
ATOM     13  C   UNL     1       4.383   4.439  17.008  0.00  0.00    +0.000 A 
ATOM     14  N   UNL     1       5.099   5.524  16.609  0.00  0.00    +0.000 NA
ATOM     15  C   UNL     1       4.618   6.704  17.054  0.00  0.00    +0.000 A 
ATOM     16  C   UNL     1       3.487   6.796  17.848  0.00  0.00    +0.000 A 
ATOM     17  N   UNL     1       2.792   5.701  18.245  0.00  0.00    +0.000 NA
ENDBRANCH   8  16
ENDBRANCH   1   8
BRANCH   5  18
ATOM     18  C   UNL     1       0.449  12.184  21.047  0.00  0.00    +0.000 C 
BRANCH  18  19
ATOM     19  C   UNL     1      -0.998  12.483  20.787  0.00  0.00    +0.000 A 
ATOM     20  C   UNL     1      -1.538  12.875  19.575  0.00  0.00    +0.000 A 
ATOM     21  N   UNL     1      -2.874  13.118  19.750  0.00  0.00    +0.000 N 
ATOM     22  C   UNL     1      -3.225  12.917  21.062  0.00  0.00    +0.000 A 
ATOM     23  C   UNL     1      -4.465  13.078  21.693  0.00  0.00    +0.000 A 
ATOM     24  C   UNL     1      -4.536  12.811  23.064  0.00  0.00    +0.000 A 
ATOM     25  C   UNL     1      -3.410  12.396  23.768  0.00  0.00    +0.000 A 
ATOM     26  C   UNL     1      -2.176  12.243  23.121  0.00  0.00    +0.000 A 
ATOM     27  C   UNL     1      -2.073  12.509  21.739  0.00  0.00    +0.000 A 
ATOM     28  H   UNL     1      -3.511  13.429  19.030  0.00  0.00    +0.000 HD
ENDBRANCH  18  19
ENDBRANCH   5  18
TORSDOF 4
ENDMDL
