MODEL 1
REMARK VINA RESULT:      -7.6      0.000      0.000
REMARK  Name = 
REMARK  2 active torsions:
REMARK  status: ('A' for Active; 'I' for Inactive)
REMARK    1  A    between atoms: C_1  and  C_2
REMARK    2  A    between atoms: C_9  and  C_11
REMARK                            x       y       z     vdW  Elec       q    Type
REMARK                         _______ _______ _______ _____ _____    ______ ____
ROOT
ATOM      1  C   UNL     1      -2.277  12.784  22.281  0.00  0.00    +0.000 C 
ATOM      2  C   UNL     1      -1.363  11.611  22.077  0.00  0.00    +0.000 A 
ATOM      3  C   UNL     1      -0.959  10.811  23.151  0.00  0.00    +0.000 A 
ATOM      4  C   UNL     1      -0.114   9.710  22.951  0.00  0.00    +0.000 A 
ATOM      5  C   UNL     1       0.341   9.398  21.653  0.00  0.00    +0.000 A 
ATOM      6  N   UNL     1       1.157   8.332  21.296  0.00  0.00    +0.000 NA
ATOM      7  C   UNL     1       1.426   8.398  20.013  0.00  0.00    +0.000 A 
ATOM      8  N   UNL     1       2.230   7.471  19.388  0.00  0.00    +0.000 N 
ATOM      9  C   UNL     1       2.807   7.618  18.147  0.00  0.00    +0.000 C 
ATOM     10  O   UNL     1       2.714   8.604  17.421  0.00  0.00    +0.000 OA
ATOM     11  S   UNL     1       0.659   9.650  19.152  0.00  0.00    +0.000 S 
ATOM     12  C   UNL     1      -0.057  10.220  20.600  0.00  0.00    +0.000 A 
ATOM     13  C   UNL     1      -0.909  11.320  20.784  0.00  0.00    +0.000 A 
ATOM     14  H   UNL     1       2.478   6.686  19.979  0.00  0.00    +0.000 HD
ENDROOT
BRANCH   9  15
ATOM     15  C   UNL     1       3.653   6.494  17.649  0.00  0.00    +0.000 A 
ATOM     16  C   UNL     1       4.948   6.796  17.189  0.00  0.00    +0.000 A 
ATOM     17  C   UNL     1       5.776   5.796  16.676  0.00  0.00    +0.000 A 
ATOM     18  C   UNL     1       5.321   4.481  16.618  0.00  0.00    +0.000 A 
ATOM     19  C   UNL     1       4.043   4.166  17.084  0.00  0.00    +0.000 A 
ATOM     20  C   UNL     1       3.221   5.170  17.597  0.00  0.00    +0.000 A 
ATOM     21  F   UNL     1       2.002   4.822  18.039  0.00  0.00    +0.000 F 
ENDBRANCH   9  15
TORSDOF 1
ENDMDL
MODEL 2
REMARK VINA RESULT:      -7.4      1.080      1.522
REMARK  Name = 
REMARK  2 active torsions:
REMARK  status: ('A' for Active; 'I' for Inactive)
REMARK    1  A    between atoms: C_1  and  C_2
REMARK    2  A    between atoms: C_9  and  C_11
REMARK                            x       y       z     vdW  Elec       q    Type
REMARK                         _______ _______ _______ _____ _____    ______ ____
ROOT
ATOM      1  C   UNL     1      -1.905  12.888  22.264  0.00  0.00    +0.000 C 
ATOM      2  C   UNL     1      -1.108  11.631  22.072  0.00  0.00    +0.000 A 
ATOM      3  C   UNL     1      -0.867  10.755  23.136  0.00  0.00    +0.000 A 
ATOM      4  C   UNL     1      -0.131   9.577  22.947  0.00  0.00    +0.000 A 
ATOM      5  C   UNL     1       0.378   9.263  21.671  0.00  0.00    +0.000 A 
ATOM      6  N   UNL     1       1.101   8.127  21.324  0.00  0.00    +0.000 NA
ATOM      7  C   UNL     1       1.465   8.208  20.065  0.00  0.00    +0.000 A 
ATOM      8  N   UNL     1       2.209   7.221  19.457  0.00  0.00    +0.000 N 
ATOM      9  C   UNL     1       2.884   7.348  18.265  0.00  0.00    +0.000 C 
ATOM     10  O   UNL     1       2.947   8.363  17.575  0.00  0.00    +0.000 OA
ATOM     11  S   UNL     1       0.897   9.564  19.208  0.00  0.00    +0.000 S 
ATOM     12  C   UNL     1       0.145  10.158  20.628  0.00  0.00    +0.000 A 
ATOM     13  C   UNL     1      -0.597  11.337  20.801  0.00  0.00    +0.000 A 
ATOM     14  H   UNL     1       2.330   6.395  20.029  0.00  0.00    +0.000 HD
ENDROOT
BRANCH   9  15
ATOM     15  C   UNL     1       3.640   6.157  17.777  0.00  0.00    +0.000 A 
ATOM     16  C   UNL     1       2.984   4.913  17.778  0.00  0.00    +0.000 A 
ATOM     17  C   UNL     1       3.648   3.754  17.368  0.00  0.00    +0.000 A 
ATOM     18  C   UNL     1       4.974   3.826  16.949  0.00  0.00    +0.000 A 
ATOM     19  C   UNL     1       5.631   5.058  16.930  0.00  0.00    +0.000 A 
ATOM     20  C   UNL     1       4.962   6.212  17.339  0.00  0.00    +0.000 A 
ATOM     21  F   UNL     1       5.631   7.375  17.299  0.00  0.00    +0.000 F 
ENDBRANCH   9  15
TORSDOF 1
ENDMDL
MODEL 3
REMARK VINA RESULT:      -7.2      1.370      1.796
REMARK  Name = 
REMARK  2 active torsions:
REMARK  status: ('A' for Active; 'I' for Inactive)
REMARK    1  A    between atoms: C_1  and  C_2
REMARK    2  A    between atoms: C_9  and  C_11
REMARK                            x       y       z     vdW  Elec       q    Type
REMARK                         _______ _______ _______ _____ _____    ______ ____
ROOT
ATOM      1  C   UNL     1      -2.086  12.185  23.105  0.00  0.00    +0.000 C 
ATOM      2  C   UNL     1      -1.328  11.627  21.935  0.00  0.00    +0.000 A 
ATOM      3  C   UNL     1      -1.389  12.234  20.677  0.00  0.00    +0.000 A 
ATOM      4  C   UNL     1      -0.670  11.715  19.591  0.00  0.00    +0.000 A 
ATOM      5  C   UNL     1       0.126  10.564  19.760  0.00  0.00    +0.000 A 
ATOM      6  N   UNL     1       0.910   9.949  18.790  0.00  0.00    +0.000 NA
ATOM      7  C   UNL     1       1.456   8.866  19.292  0.00  0.00    +0.000 A 
ATOM      8  N   UNL     1       2.276   8.050  18.544  0.00  0.00    +0.000 N 
ATOM      9  C   UNL     1       2.642   6.765  18.873  0.00  0.00    +0.000 C 
ATOM     10  O   UNL     1       2.275   6.143  19.868  0.00  0.00    +0.000 OA
ATOM     11  S   UNL     1       1.157   8.574  20.942  0.00  0.00    +0.000 S 
ATOM     12  C   UNL     1       0.157   9.961  21.016  0.00  0.00    +0.000 A 
ATOM     13  C   UNL     1      -0.551  10.475  22.114  0.00  0.00    +0.000 A 
ATOM     14  H   UNL     1       2.507   8.432  17.635  0.00  0.00    +0.000 HD
ENDROOT
BRANCH   9  15
ATOM     15  C   UNL     1       3.536   6.043  17.922  0.00  0.00    +0.000 A 
ATOM     16  C   UNL     1       4.567   6.773  17.302  0.00  0.00    +0.000 A 
ATOM     17  C   UNL     1       5.416   6.165  16.375  0.00  0.00    +0.000 A 
ATOM     18  C   UNL     1       5.246   4.819  16.057  0.00  0.00    +0.000 A 
ATOM     19  C   UNL     1       4.236   4.081  16.676  0.00  0.00    +0.000 A 
ATOM     20  C   UNL     1       3.392   4.694  17.603  0.00  0.00    +0.000 A 
ATOM     21  F   UNL     1       2.437   3.945  18.177  0.00  0.00    +0.000 F 
ENDBRANCH   9  15
TORSDOF 1
ENDMDL
MODEL 4
REMARK VINA RESULT:      -7.1      2.048      7.841
REMARK  Name = 
REMARK  2 active torsions:
REMARK  status: ('A' for Active; 'I' for Inactive)
REMARK    1  A    between atoms: C_1  and  C_2
REMARK    2  A    between atoms: C_9  and  C_11
REMARK                            x       y       z     vdW  Elec       q    Type
REMARK                         _______ _______ _______ _____ _____    ______ ____
ROOT
ATOM      1  C   UNL     1       6.037   3.768  15.223  0.00  0.00    +0.000 C 
ATOM      2  C   UNL     1       5.106   4.141  16.340  0.00  0.00    +0.000 A 
ATOM      3  C   UNL     1       4.493   3.162  17.130  0.00  0.00    +0.000 A 
ATOM      4  C   UNL     1       3.633   3.518  18.179  0.00  0.00    +0.000 A 
ATOM      5  C   UNL     1       3.376   4.877  18.448  0.00  0.00    +0.000 A 
ATOM      6  N   UNL     1       2.570   5.383  19.462  0.00  0.00    +0.000 NA
ATOM      7  C   UNL     1       2.514   6.691  19.364  0.00  0.00    +0.000 A 
ATOM      8  N   UNL     1       1.772   7.455  20.237  0.00  0.00    +0.000 N 
ATOM      9  C   UNL     1       1.409   8.768  20.041  0.00  0.00    +0.000 C 
ATOM     10  O   UNL     1       1.671   9.449  19.052  0.00  0.00    +0.000 OA
ATOM     11  S   UNL     1       3.475   7.392  18.147  0.00  0.00    +0.000 S 
ATOM     12  C   UNL     1       3.980   5.837  17.637  0.00  0.00    +0.000 A 
ATOM     13  C   UNL     1       4.849   5.495  16.589  0.00  0.00    +0.000 A 
ATOM     14  H   UNL     1       1.391   6.929  21.013  0.00  0.00    +0.000 HD
ENDROOT
BRANCH   9  15
ATOM     15  C   UNL     1       0.595   9.419  21.109  0.00  0.00    +0.000 A 
ATOM     16  C   UNL     1       0.720   8.934  22.423  0.00  0.00    +0.000 A 
ATOM     17  C   UNL     1      -0.042   9.476  23.461  0.00  0.00    +0.000 A 
ATOM     18  C   UNL     1      -0.936  10.511  23.197  0.00  0.00    +0.000 A 
ATOM     19  C   UNL     1      -1.058  11.011  21.900  0.00  0.00    +0.000 A 
ATOM     20  C   UNL     1      -0.293  10.467  20.868  0.00  0.00    +0.000 A 
ATOM     21  F   UNL     1      -0.440  10.981  19.636  0.00  0.00    +0.000 F 
ENDBRANCH   9  15
TORSDOF 1
ENDMDL
MODEL 5
REMARK VINA RESULT:      -7.0      1.667      2.290
REMARK  Name = 
REMARK  2 active torsions:
REMARK  status: ('A' for Active; 'I' for Inactive)
REMARK    1  A    between atoms: C_1  and  C_2
REMARK    2  A    between atoms: C_9  and  C_11
REMARK                            x       y       z     vdW  Elec       q    Type
REMARK                         _______ _______ _______ _____ _____    ______ ____
ROOT
ATOM      1  C   UNL     1      -1.875  12.081  23.120  0.00  0.00    +0.000 C 
ATOM      2  C   UNL     1      -1.194  11.469  21.932  0.00  0.00    +0.000 A 
ATOM      3  C   UNL     1      -1.389  11.975  20.643  0.00  0.00    +0.000 A 
ATOM      4  C   UNL     1      -0.740  11.405  19.538  0.00  0.00    +0.000 A 
ATOM      5  C   UNL     1       0.122  10.304  19.720  0.00  0.00    +0.000 A 
ATOM      6  N   UNL     1       0.850   9.651  18.732  0.00  0.00    +0.000 NA
ATOM      7  C   UNL     1       1.488   8.633  19.261  0.00  0.00    +0.000 A 
ATOM      8  N   UNL     1       2.280   7.797  18.505  0.00  0.00    +0.000 N 
ATOM      9  C   UNL     1       2.733   6.557  18.893  0.00  0.00    +0.000 C 
ATOM     10  O   UNL     1       2.482   5.997  19.958  0.00  0.00    +0.000 OA
ATOM     11  S   UNL     1       1.343   8.454  20.947  0.00  0.00    +0.000 S 
ATOM     12  C   UNL     1       0.287   9.801  21.009  0.00  0.00    +0.000 A 
ATOM     13  C   UNL     1      -0.349  10.367  22.124  0.00  0.00    +0.000 A 
ATOM     14  H   UNL     1       2.415   8.117  17.554  0.00  0.00    +0.000 HD
ENDROOT
BRANCH   9  15
ATOM     15  C   UNL     1       3.578   5.803  17.921  0.00  0.00    +0.000 A 
ATOM     16  C   UNL     1       3.238   4.465  17.649  0.00  0.00    +0.000 A 
ATOM     17  C   UNL     1       4.010   3.694  16.777  0.00  0.00    +0.000 A 
ATOM     18  C   UNL     1       5.130   4.251  16.165  0.00  0.00    +0.000 A 
ATOM     19  C   UNL     1       5.470   5.582  16.417  0.00  0.00    +0.000 A 
ATOM     20  C   UNL     1       4.694   6.347  17.287  0.00  0.00    +0.000 A 
ATOM     21  F   UNL     1       5.054   7.624  17.496  0.00  0.00    +0.000 F 
ENDBRANCH   9  15
TORSDOF 1
ENDMDL
MODEL 6
REMARK VINA RESULT:      -7.0      2.339      3.456
REMARK  Name = 
REMARK  2 active torsions:
REMARK  status: ('A' for Active; 'I' for Inactive)
REMARK    1  A    between atoms: C_1  and  C_2
REMARK    2  A    between atoms: C_9  and  C_11
REMARK                            x       y       z     vdW  Elec       q    Type
REMARK                         _______ _______ _______ _____ _____    ______ ____
ROOT
ATOM      1  C   UNL     1      -0.647   9.474  22.660  0.00  0.00    +0.000 C 
ATOM      2  C   UNL     1       0.147   9.284  21.400  0.00  0.00    +0.000 A 
ATOM      3  C   UNL     1       0.094  10.219  20.362  0.00  0.00    +0.000 A 
ATOM      4  C   UNL     1       0.847  10.041  19.193  0.00  0.00    +0.000 A 
ATOM      5  C   UNL     1       1.670   8.905  19.052  0.00  0.00    +0.000 A 
ATOM      6  N   UNL     1       2.488   8.604  17.969  0.00  0.00    +0.000 NA
ATOM      7  C   UNL     1       3.053   7.435  18.160  0.00  0.00    +0.000 A 
ATOM      8  N   UNL     1       3.908   6.879  17.234  0.00  0.00    +0.000 N 
ATOM      9  C   UNL     1       4.301   5.560  17.198  0.00  0.00    +0.000 C 
ATOM     10  O   UNL     1       3.933   4.676  17.968  0.00  0.00    +0.000 OA
ATOM     11  S   UNL     1       2.731   6.684  19.653  0.00  0.00    +0.000 S 
ATOM     12  C   UNL     1       1.693   7.974  20.089  0.00  0.00    +0.000 A 
ATOM     13  C   UNL     1       0.951   8.144  21.268  0.00  0.00    +0.000 A 
ATOM     14  H   UNL     1       4.146   7.505  16.475  0.00  0.00    +0.000 HD
ENDROOT
BRANCH   9  15
ATOM     15  C   UNL     1       5.233   5.154  16.106  0.00  0.00    +0.000 A 
ATOM     16  C   UNL     1       4.708   4.413  15.032  0.00  0.00    +0.000 A 
ATOM     17  C   UNL     1       5.534   3.971  13.996  0.00  0.00    +0.000 A 
ATOM     18  C   UNL     1       6.894   4.266  14.020  0.00  0.00    +0.000 A 
ATOM     19  C   UNL     1       7.425   5.013  15.074  0.00  0.00    +0.000 A 
ATOM     20  C   UNL     1       6.595   5.453  16.104  0.00  0.00    +0.000 A 
ATOM     21  F   UNL     1       7.146   6.172  17.095  0.00  0.00    +0.000 F 
ENDBRANCH   9  15
TORSDOF 1
ENDMDL
MODEL 7
REMARK VINA RESULT:      -7.0      1.538      1.799
REMARK  Name = 
REMARK  2 active torsions:
REMARK  status: ('A' for Active; 'I' for Inactive)
REMARK    1  A    between atoms: C_1  and  C_2
REMARK    2  A    between atoms: C_9  and  C_11
REMARK                            x       y       z     vdW  Elec       q    Type
REMARK                         _______ _______ _______ _____ _____    ______ ____
ROOT
ATOM      1  C   UNL     1      -1.210  13.641  22.014  0.00  0.00    +0.000 C 
ATOM      2  C   UNL     1      -0.748  12.214  21.960  0.00  0.00    +0.000 A 
ATOM      3  C   UNL     1      -0.930  11.351  23.045  0.00  0.00    +0.000 A 
ATOM      4  C   UNL     1      -0.506  10.016  22.982  0.00  0.00    +0.000 A 
ATOM      5  C   UNL     1       0.115   9.528  21.814  0.00  0.00    +0.000 A 
ATOM      6  N   UNL     1       0.564   8.231  21.595  0.00  0.00    +0.000 NA
ATOM      7  C   UNL     1       1.147   8.164  20.421  0.00  0.00    +0.000 A 
ATOM      8  N   UNL     1       1.701   6.994  19.948  0.00  0.00    +0.000 N 
ATOM      9  C   UNL     1       2.580   6.893  18.894  0.00  0.00    +0.000 C 
ATOM     10  O   UNL     1       3.023   7.829  18.232  0.00  0.00    +0.000 OA
ATOM     11  S   UNL     1       1.109   9.584  19.484  0.00  0.00    +0.000 S 
ATOM     12  C   UNL     1       0.306  10.410  20.752  0.00  0.00    +0.000 A 
ATOM     13  C   UNL     1      -0.121  11.746  20.797  0.00  0.00    +0.000 A 
ATOM     14  H   UNL     1       1.502   6.189  20.529  0.00  0.00    +0.000 HD
ENDROOT
BRANCH   9  15
ATOM     15  C   UNL     1       3.071   5.529  18.541  0.00  0.00    +0.000 A 
ATOM     16  C   UNL     1       2.239   4.711  17.756  0.00  0.00    +0.000 A 
ATOM     17  C   UNL     1       2.624   3.411  17.422  0.00  0.00    +0.000 A 
ATOM     18  C   UNL     1       3.847   2.914  17.866  0.00  0.00    +0.000 A 
ATOM     19  C   UNL     1       4.687   3.721  18.635  0.00  0.00    +0.000 A 
ATOM     20  C   UNL     1       4.297   5.020  18.964  0.00  0.00    +0.000 A 
ATOM     21  F   UNL     1       5.139   5.763  19.700  0.00  0.00    +0.000 F 
ENDBRANCH   9  15
TORSDOF 1
ENDMDL
MODEL 8
REMARK VINA RESULT:      -6.9      1.580      2.180
REMARK  Name = 
REMARK  2 active torsions:
REMARK  status: ('A' for Active; 'I' for Inactive)
REMARK    1  A    between atoms: C_1  and  C_2
REMARK    2  A    between atoms: C_9  and  C_11
REMARK                            x       y       z     vdW  Elec       q    Type
REMARK                         _______ _______ _______ _____ _____    ______ ____
ROOT
ATOM      1  C   UNL     1      -1.647  11.657  22.210  0.00  0.00    +0.000 C 
ATOM      2  C   UNL     1      -0.842  11.083  21.080  0.00  0.00    +0.000 A 
ATOM      3  C   UNL     1      -0.921  11.617  19.790  0.00  0.00    +0.000 A 
ATOM      4  C   UNL     1      -0.158  11.083  18.741  0.00  0.00    +0.000 A 
ATOM      5  C   UNL     1       0.702   9.992  18.981  0.00  0.00    +0.000 A 
ATOM      6  N   UNL     1       1.534   9.374  18.055  0.00  0.00    +0.000 NA
ATOM      7  C   UNL     1       2.137   8.355  18.621  0.00  0.00    +0.000 A 
ATOM      8  N   UNL     1       3.013   7.550  17.928  0.00  0.00    +0.000 N 
ATOM      9  C   UNL     1       3.450   6.308  18.331  0.00  0.00    +0.000 C 
ATOM     10  O   UNL     1       3.108   5.720  19.354  0.00  0.00    +0.000 OA
ATOM     11  S   UNL     1       1.834   8.134  20.281  0.00  0.00    +0.000 S 
ATOM     12  C   UNL     1       0.752   9.462  20.269  0.00  0.00    +0.000 A 
ATOM     13  C   UNL     1       0.000   9.991  21.330  0.00  0.00    +0.000 A 
ATOM     14  H   UNL     1       3.234   7.895  17.001  0.00  0.00    +0.000 HD
ENDROOT
BRANCH   9  15
ATOM     15  C   UNL     1       4.399   5.591  17.430  0.00  0.00    +0.000 A 
ATOM     16  C   UNL     1       5.624   6.215  17.129  0.00  0.00    +0.000 A 
ATOM     17  C   UNL     1       6.539   5.613  16.263  0.00  0.00    +0.000 A 
ATOM     18  C   UNL     1       6.243   4.379  15.689  0.00  0.00    +0.000 A 
ATOM     19  C   UNL     1       5.037   3.744  15.991  0.00  0.00    +0.000 A 
ATOM     20  C   UNL     1       4.127   4.349  16.858  0.00  0.00    +0.000 A 
ATOM     21  F   UNL     1       2.983   3.700  17.124  0.00  0.00    +0.000 F 
ENDBRANCH   9  15
TORSDOF 1
ENDMDL
MODEL 9
REMARK VINA RESULT:      -6.9      1.811      7.685
REMARK  Name = 
REMARK  2 active torsions:
REMARK  status: ('A' for Active; 'I' for Inactive)
REMARK    1  A    between atoms: C_1  and  C_2
REMARK    2  A    between atoms: C_9  and  C_11
REMARK                            x       y       z     vdW  Elec       q    Type
REMARK                         _______ _______ _______ _____ _____    ______ ____
ROOT
ATOM      1  C   UNL     1       5.916   4.407  15.190  0.00  0.00    +0.000 C 
ATOM      2  C   UNL     1       5.047   4.803  16.347  0.00  0.00    +0.000 A 
ATOM      3  C   UNL     1       4.643   3.868  17.305  0.00  0.00    +0.000 A 
ATOM      4  C   UNL     1       3.840   4.247  18.390  0.00  0.00    +0.000 A 
ATOM      5  C   UNL     1       3.427   5.589  18.524  0.00  0.00    +0.000 A 
ATOM      6  N   UNL     1       2.655   6.118  19.552  0.00  0.00    +0.000 NA
ATOM      7  C   UNL     1       2.415   7.386  19.308  0.00  0.00    +0.000 A 
ATOM      8  N   UNL     1       1.657   8.160  20.159  0.00  0.00    +0.000 N 
ATOM      9  C   UNL     1       1.106   9.383  19.851  0.00  0.00    +0.000 C 
ATOM     10  O   UNL     1       1.184   9.957  18.767  0.00  0.00    +0.000 OA
ATOM     11  S   UNL     1       3.161   8.036  17.924  0.00  0.00    +0.000 S 
ATOM     12  C   UNL     1       3.823   6.502  17.548  0.00  0.00    +0.000 A 
ATOM     13  C   UNL     1       4.633   6.137  16.462  0.00  0.00    +0.000 A 
ATOM     14  H   UNL     1       1.421   7.696  21.027  0.00  0.00    +0.000 HD
ENDROOT
BRANCH   9  15
ATOM     15  C   UNL     1       0.310  10.062  20.915  0.00  0.00    +0.000 A 
ATOM     16  C   UNL     1       0.103  11.449  20.801  0.00  0.00    +0.000 A 
ATOM     17  C   UNL     1      -0.603  12.149  21.782  0.00  0.00    +0.000 A 
ATOM     18  C   UNL     1      -1.112  11.471  22.887  0.00  0.00    +0.000 A 
ATOM     19  C   UNL     1      -0.925  10.093  23.004  0.00  0.00    +0.000 A 
ATOM     20  C   UNL     1      -0.221   9.399  22.020  0.00  0.00    +0.000 A 
ATOM     21  F   UNL     1      -0.070   8.073  22.171  0.00  0.00    +0.000 F 
ENDBRANCH   9  15
TORSDOF 1
ENDMDL
