MODEL 1
REMARK VINA RESULT:      -8.5      0.000      0.000
REMARK  Name = 
REMARK  7 active torsions:
REMARK  status: ('A' for Active; 'I' for Inactive)
REMARK    1  A    between atoms: C_1  and  N_2
REMARK    2  A    between atoms: C_5  and  C_6
REMARK    3  A    between atoms: C_6  and  C_7
REMARK    4  A    between atoms: C_7  and  N_8
REMARK    5  A    between atoms: C_9  and  C_11
REMARK    6  A    between atoms: C_16  and  O_17
REMARK    7  A    between atoms: C_22  and  C_23
REMARK                            x       y       z     vdW  Elec       q    Type
REMARK                         _______ _______ _______ _____ _____    ______ ____
ROOT
ATOM      1  C   UNL     1       0.354   9.230  22.009  0.00  0.00    +0.000 C 
ENDROOT
BRANCH   1   6
ATOM      2  C   UNL     1       2.063  13.835  18.272  0.00  0.00    +0.000 C 
ATOM      3  N   UNL     1       2.227  12.975  19.434  0.00  0.00    +0.000 N 
ATOM      4  C   UNL     1       1.228  11.995  19.593  0.00  0.00    +0.000 A 
ATOM      5  C   UNL     1       1.331  11.141  20.677  0.00  0.00    +0.000 A 
ATOM      6  C   UNL     1       0.339  10.193  20.844  0.00  0.00    +0.000 A 
ATOM      7  N   UNL     1      -0.689  10.091  19.984  0.00  0.00    +0.000 NA
ATOM      8  C   UNL     1      -0.701  10.945  18.938  0.00  0.00    +0.000 A 
ATOM      9  N   UNL     1       0.228  11.890  18.709  0.00  0.00    +0.000 NA
ATOM     10  H   UNL     1       2.296  13.515  20.293  0.00  0.00    +0.000 HD
BRANCH   8  11
ATOM     11  C   UNL     1      -1.814  10.827  17.979  0.00  0.00    +0.000 A 
ATOM     12  C   UNL     1      -2.981  11.592  18.125  0.00  0.00    +0.000 A 
ATOM     13  C   UNL     1      -4.022  11.429  17.227  0.00  0.00    +0.000 A 
ATOM     14  N   UNL     1      -3.988  10.569  16.190  0.00  0.00    +0.000 NA
ATOM     15  C   UNL     1      -2.859   9.847  16.043  0.00  0.00    +0.000 A 
ATOM     16  C   UNL     1      -1.767   9.942  16.892  0.00  0.00    +0.000 A 
ENDBRANCH   8  11
ENDBRANCH   1   6
BRANCH   1  17
ATOM     17  C   UNL     1       0.534   7.788  21.537  0.00  0.00    +0.000 C 
BRANCH  17  18
ATOM     18  N   UNL     1       1.677   7.580  20.673  0.00  0.00    +0.000 N 
ATOM     19  C   UNL     1       1.974   6.294  20.248  0.00  0.00    +0.000 C 
ATOM     20  O   UNL     1       1.329   5.307  20.581  0.00  0.00    +0.000 OA
ATOM     21  H   UNL     1       2.085   8.370  20.188  0.00  0.00    +0.000 HD
BRANCH  19  22
ATOM     22  C   UNL     1       3.126   6.152  19.323  0.00  0.00    +0.000 A 
ATOM     23  C   UNL     1       3.185   6.960  18.172  0.00  0.00    +0.000 A 
ATOM     24  C   UNL     1       4.254   6.875  17.267  0.00  0.00    +0.000 A 
ATOM     25  C   UNL     1       5.229   5.939  17.587  0.00  0.00    +0.000 A 
ATOM     26  O   UNL     1       6.377   5.656  16.896  0.00  0.00    +0.000 OA
ATOM     27  C   UNL     1       6.940   4.676  17.649  0.00  0.00    +0.000 A 
ATOM     28  N   UNL     1       6.301   4.299  18.724  0.00  0.00    +0.000 NA
ATOM     29  C   UNL     1       5.196   5.111  18.699  0.00  0.00    +0.000 A 
ATOM     30  C   UNL     1       4.122   5.200  19.589  0.00  0.00    +0.000 A 
BRANCH  27  31
ATOM     31  O   UNL     1       8.089   4.212  17.214  0.00  0.00    +0.000 OA
ATOM     32  H   UNL     1       8.734   4.705  17.745  0.00  0.00    +0.000 HD
ENDBRANCH  27  31
ENDBRANCH  19  22
ENDBRANCH  17  18
ENDBRANCH   1  17
TORSDOF 6
ENDMDL
MODEL 2
REMARK VINA RESULT:      -8.3      2.127      2.585
REMARK  Name = 
REMARK  7 active torsions:
REMARK  status: ('A' for Active; 'I' for Inactive)
REMARK    1  A    between atoms: C_1  and  N_2
REMARK    2  A    between atoms: C_5  and  C_6
REMARK    3  A    between atoms: C_6  and  C_7
REMARK    4  A    between atoms: C_7  and  N_8
REMARK    5  A    between atoms: C_9  and  C_11
REMARK    6  A    between atoms: C_16  and  O_17
REMARK    7  A    between atoms: C_22  and  C_23
REMARK                            x       y       z     vdW  Elec       q    Type
REMARK                         _______ _______ _______ _____ _____    ______ ____
ROOT
ATOM      1  C   UNL     1      -0.037   9.431  21.765  0.00  0.00    +0.000 C 
ENDROOT
BRANCH   1   6
ATOM      2  C   UNL     1       0.886  14.767  18.805  0.00  0.00    +0.000 C 
ATOM      3  N   UNL     1       1.155  13.802  19.860  0.00  0.00    +0.000 N 
ATOM      4  C   UNL     1       0.380  12.628  19.804  0.00  0.00    +0.000 A 
ATOM      5  C   UNL     1       0.593  11.668  20.777  0.00  0.00    +0.000 A 
ATOM      6  C   UNL     1      -0.184  10.525  20.734  0.00  0.00    +0.000 A 
ATOM      7  N   UNL     1      -1.110  10.341  19.777  0.00  0.00    +0.000 NA
ATOM      8  C   UNL     1      -1.237  11.312  18.850  0.00  0.00    +0.000 A 
ATOM      9  N   UNL     1      -0.517  12.449  18.826  0.00  0.00    +0.000 NA
ATOM     10  H   UNL     1       1.054  14.218  20.783  0.00  0.00    +0.000 HD
BRANCH   8  11
ATOM     11  C   UNL     1      -2.237  11.109  17.786  0.00  0.00    +0.000 A 
ATOM     12  C   UNL     1      -3.520  11.669  17.880  0.00  0.00    +0.000 A 
ATOM     13  C   UNL     1      -4.447  11.426  16.881  0.00  0.00    +0.000 A 
ATOM     14  N   UNL     1      -4.192  10.677  15.790  0.00  0.00    +0.000 NA
ATOM     15  C   UNL     1      -2.952  10.153  15.695  0.00  0.00    +0.000 A 
ATOM     16  C   UNL     1      -1.961  10.341  16.645  0.00  0.00    +0.000 A 
ENDBRANCH   8  11
ENDBRANCH   1   6
BRANCH   1  17
ATOM     17  C   UNL     1       1.384   8.870  21.785  0.00  0.00    +0.000 C 
BRANCH  17  18
ATOM     18  N   UNL     1       1.472   7.456  21.485  0.00  0.00    +0.000 N 
ATOM     19  C   UNL     1       1.918   7.060  20.234  0.00  0.00    +0.000 C 
ATOM     20  O   UNL     1       2.229   7.847  19.347  0.00  0.00    +0.000 OA
ATOM     21  H   UNL     1       1.459   6.784  22.243  0.00  0.00    +0.000 HD
BRANCH  19  22
ATOM     22  C   UNL     1       2.035   5.598  20.004  0.00  0.00    +0.000 A 
ATOM     23  C   UNL     1       1.049   4.741  20.526  0.00  0.00    +0.000 A 
ATOM     24  C   UNL     1       1.103   3.352  20.332  0.00  0.00    +0.000 A 
ATOM     25  C   UNL     1       2.194   2.897  19.604  0.00  0.00    +0.000 A 
ATOM     26  O   UNL     1       2.490   1.606  19.257  0.00  0.00    +0.000 OA
ATOM     27  C   UNL     1       3.650   1.745  18.566  0.00  0.00    +0.000 A 
ATOM     28  N   UNL     1       4.131   2.952  18.430  0.00  0.00    +0.000 NA
ATOM     29  C   UNL     1       3.197   3.707  19.092  0.00  0.00    +0.000 A 
ATOM     30  C   UNL     1       3.136   5.088  19.299  0.00  0.00    +0.000 A 
BRANCH  27  31
ATOM     31  O   UNL     1       4.169   0.635  18.092  0.00  0.00    +0.000 OA
ATOM     32  H   UNL     1       3.494   0.335  17.464  0.00  0.00    +0.000 HD
ENDBRANCH  27  31
ENDBRANCH  19  22
ENDBRANCH  17  18
ENDBRANCH   1  17
TORSDOF 6
ENDMDL
MODEL 3
REMARK VINA RESULT:      -8.2      3.461      9.524
REMARK  Name = 
REMARK  7 active torsions:
REMARK  status: ('A' for Active; 'I' for Inactive)
REMARK    1  A    between atoms: C_1  and  N_2
REMARK    2  A    between atoms: C_5  and  C_6
REMARK    3  A    between atoms: C_6  and  C_7
REMARK    4  A    between atoms: C_7  and  N_8
REMARK    5  A    between atoms: C_9  and  C_11
REMARK    6  A    between atoms: C_16  and  O_17
REMARK    7  A    between atoms: C_22  and  C_23
REMARK                            x       y       z     vdW  Elec       q    Type
REMARK                         _______ _______ _______ _____ _____    ______ ____
ROOT
ATOM      1  C   UNL     1       2.199   9.319  17.536  0.00  0.00    +0.000 C 
ENDROOT
BRANCH   1   6
ATOM      2  C   UNL     1       2.449   4.384  21.233  0.00  0.00    +0.000 C 
ATOM      3  N   UNL     1       1.866   5.634  20.771  0.00  0.00    +0.000 N 
ATOM      4  C   UNL     1       2.523   6.227  19.677  0.00  0.00    +0.000 A 
ATOM      5  C   UNL     1       2.012   7.416  19.186  0.00  0.00    +0.000 A 
ATOM      6  C   UNL     1       2.670   8.009  18.125  0.00  0.00    +0.000 A 
ATOM      7  N   UNL     1       3.764   7.453  17.577  0.00  0.00    +0.000 NA
ATOM      8  C   UNL     1       4.182   6.280  18.096  0.00  0.00    +0.000 A 
ATOM      9  N   UNL     1       3.593   5.643  19.124  0.00  0.00    +0.000 NA
ATOM     10  H   UNL     1       1.799   6.316  21.523  0.00  0.00    +0.000 HD
BRANCH   8  11
ATOM     11  C   UNL     1       5.368   5.652  17.487  0.00  0.00    +0.000 A 
ATOM     12  C   UNL     1       6.437   5.203  18.278  0.00  0.00    +0.000 A 
ATOM     13  C   UNL     1       7.553   4.653  17.670  0.00  0.00    +0.000 A 
ATOM     14  N   UNL     1       7.684   4.507  16.337  0.00  0.00    +0.000 NA
ATOM     15  C   UNL     1       6.648   4.925  15.581  0.00  0.00    +0.000 A 
ATOM     16  C   UNL     1       5.492   5.489  16.099  0.00  0.00    +0.000 A 
ENDBRANCH   8  11
ENDBRANCH   1   6
BRANCH   1  17
ATOM     17  C   UNL     1       1.790  10.306  18.627  0.00  0.00    +0.000 C 
BRANCH  17  18
ATOM     18  N   UNL     1       0.453  10.842  18.477  0.00  0.00    +0.000 N 
ATOM     19  C   UNL     1      -0.519  10.496  19.404  0.00  0.00    +0.000 C 
ATOM     20  O   UNL     1      -0.314   9.739  20.346  0.00  0.00    +0.000 OA
ATOM     21  H   UNL     1       0.300  11.640  17.873  0.00  0.00    +0.000 HD
BRANCH  19  22
ATOM     22  C   UNL     1      -1.855  11.117  19.226  0.00  0.00    +0.000 A 
ATOM     23  C   UNL     1      -2.307  12.054  20.175  0.00  0.00    +0.000 A 
ATOM     24  C   UNL     1      -3.557  12.680  20.054  0.00  0.00    +0.000 A 
ATOM     25  C   UNL     1      -4.305  12.300  18.947  0.00  0.00    +0.000 A 
ATOM     26  O   UNL     1      -5.544  12.754  18.577  0.00  0.00    +0.000 OA
ATOM     27  C   UNL     1      -5.787  12.052  17.440  0.00  0.00    +0.000 A 
ATOM     28  N   UNL     1      -4.870  11.212  17.041  0.00  0.00    +0.000 NA
ATOM     29  C   UNL     1      -3.904  11.366  18.003  0.00  0.00    +0.000 A 
ATOM     30  C   UNL     1      -2.660  10.744  18.140  0.00  0.00    +0.000 A 
BRANCH  27  31
ATOM     31  O   UNL     1      -6.933  12.304  16.849  0.00  0.00    +0.000 OA
ATOM     32  H   UNL     1      -7.567  12.244  17.579  0.00  0.00    +0.000 HD
ENDBRANCH  27  31
ENDBRANCH  19  22
ENDBRANCH  17  18
ENDBRANCH   1  17
TORSDOF 6
ENDMDL
MODEL 4
REMARK VINA RESULT:      -8.2      4.146      9.969
REMARK  Name = 
REMARK  7 active torsions:
REMARK  status: ('A' for Active; 'I' for Inactive)
REMARK    1  A    between atoms: C_1  and  N_2
REMARK    2  A    between atoms: C_5  and  C_6
REMARK    3  A    between atoms: C_6  and  C_7
REMARK    4  A    between atoms: C_7  and  N_8
REMARK    5  A    between atoms: C_9  and  C_11
REMARK    6  A    between atoms: C_16  and  O_17
REMARK    7  A    between atoms: C_22  and  C_23
REMARK                            x       y       z     vdW  Elec       q    Type
REMARK                         _______ _______ _______ _____ _____    ______ ____
ROOT
ATOM      1  C   UNL     1       1.705   8.149  19.648  0.00  0.00    +0.000 C 
ENDROOT
BRANCH   1   6
ATOM      2  C   UNL     1       2.602   2.336  21.516  0.00  0.00    +0.000 C 
ATOM      3  N   UNL     1       1.888   3.603  21.507  0.00  0.00    +0.000 N 
ATOM      4  C   UNL     1       2.422   4.581  20.647  0.00  0.00    +0.000 A 
ATOM      5  C   UNL     1       1.783   5.807  20.590  0.00  0.00    +0.000 A 
ATOM      6  C   UNL     1       2.321   6.774  19.761  0.00  0.00    +0.000 A 
ATOM      7  N   UNL     1       3.421   6.536  19.026  0.00  0.00    +0.000 NA
ATOM      8  C   UNL     1       3.969   5.307  19.118  0.00  0.00    +0.000 A 
ATOM      9  N   UNL     1       3.501   4.316  19.900  0.00  0.00    +0.000 NA
ATOM     10  H   UNL     1       1.811   3.995  22.443  0.00  0.00    +0.000 HD
BRANCH   8  11
ATOM     11  C   UNL     1       5.163   5.032  18.300  0.00  0.00    +0.000 A 
ATOM     12  C   UNL     1       6.453   5.272  18.797  0.00  0.00    +0.000 A 
ATOM     13  C   UNL     1       7.552   5.039  17.987  0.00  0.00    +0.000 A 
ATOM     14  N   UNL     1       7.466   4.576  16.725  0.00  0.00    +0.000 NA
ATOM     15  C   UNL     1       6.226   4.331  16.256  0.00  0.00    +0.000 A 
ATOM     16  C   UNL     1       5.069   4.535  16.991  0.00  0.00    +0.000 A 
ENDBRANCH   8  11
ENDBRANCH   1   6
BRANCH   1  17
ATOM     17  C   UNL     1       1.436   8.754  21.025  0.00  0.00    +0.000 C 
BRANCH  17  18
ATOM     18  N   UNL     1       0.331   9.690  21.060  0.00  0.00    +0.000 N 
ATOM     19  C   UNL     1      -0.078  10.203  22.281  0.00  0.00    +0.000 C 
ATOM     20  O   UNL     1       0.435   9.892  23.350  0.00  0.00    +0.000 OA
ATOM     21  H   UNL     1       0.041  10.150  20.206  0.00  0.00    +0.000 HD
BRANCH  19  22
ATOM     22  C   UNL     1      -1.181  11.196  22.247  0.00  0.00    +0.000 A 
ATOM     23  C   UNL     1      -1.427  11.905  21.056  0.00  0.00    +0.000 A 
ATOM     24  C   UNL     1      -2.462  12.849  20.963  0.00  0.00    +0.000 A 
ATOM     25  C   UNL     1      -3.205  13.032  22.122  0.00  0.00    +0.000 A 
ATOM     26  O   UNL     1      -4.270  13.871  22.311  0.00  0.00    +0.000 OA
ATOM     27  C   UNL     1      -4.596  13.646  23.610  0.00  0.00    +0.000 A 
ATOM     28  N   UNL     1      -3.879  12.777  24.270  0.00  0.00    +0.000 NA
ATOM     29  C   UNL     1      -2.979  12.368  23.319  0.00  0.00    +0.000 A 
ATOM     30  C   UNL     1      -1.940  11.436  23.402  0.00  0.00    +0.000 A 
BRANCH  27  31
ATOM     31  O   UNL     1      -5.620  14.329  24.067  0.00  0.00    +0.000 OA
ATOM     32  H   UNL     1      -5.469  14.326  25.025  0.00  0.00    +0.000 HD
ENDBRANCH  27  31
ENDBRANCH  19  22
ENDBRANCH  17  18
ENDBRANCH   1  17
TORSDOF 6
ENDMDL
MODEL 5
REMARK VINA RESULT:      -8.2      5.852      8.755
REMARK  Name = 
REMARK  7 active torsions:
REMARK  status: ('A' for Active; 'I' for Inactive)
REMARK    1  A    between atoms: C_1  and  N_2
REMARK    2  A    between atoms: C_5  and  C_6
REMARK    3  A    between atoms: C_6  and  C_7
REMARK    4  A    between atoms: C_7  and  N_8
REMARK    5  A    between atoms: C_9  and  C_11
REMARK    6  A    between atoms: C_16  and  O_17
REMARK    7  A    between atoms: C_22  and  C_23
REMARK                            x       y       z     vdW  Elec       q    Type
REMARK                         _______ _______ _______ _____ _____    ______ ____
ROOT
ATOM      1  C   UNL     1       8.815   8.967  18.801  0.00  0.00    +0.000 C 
ENDROOT
BRANCH   1   6
ATOM      2  C   UNL     1      11.201  14.494  17.443  0.00  0.00    +0.000 C 
ATOM      3  N   UNL     1      10.844  13.119  17.128  0.00  0.00    +0.000 N 
ATOM      4  C   UNL     1      10.209  12.416  18.170  0.00  0.00    +0.000 A 
ATOM      5  C   UNL     1       9.839  11.105  17.930  0.00  0.00    +0.000 A 
ATOM      6  C   UNL     1       9.235  10.409  18.962  0.00  0.00    +0.000 A 
ATOM      7  N   UNL     1       9.003  10.982  20.155  0.00  0.00    +0.000 NA
ATOM      8  C   UNL     1       9.370  12.272  20.299  0.00  0.00    +0.000 A 
ATOM      9  N   UNL     1       9.960  13.013  19.342  0.00  0.00    +0.000 NA
ATOM     10  H   UNL     1      11.651  12.585  16.816  0.00  0.00    +0.000 HD
BRANCH   8  11
ATOM     11  C   UNL     1       9.101  12.914  21.598  0.00  0.00    +0.000 A 
ATOM     12  C   UNL     1       9.403  14.267  21.814  0.00  0.00    +0.000 A 
ATOM     13  C   UNL     1       9.173  14.829  23.059  0.00  0.00    +0.000 A 
ATOM     14  N   UNL     1       8.657  14.149  24.102  0.00  0.00    +0.000 NA
ATOM     15  C   UNL     1       8.353  12.853  23.886  0.00  0.00    +0.000 A 
ATOM     16  C   UNL     1       8.549  12.206  22.676  0.00  0.00    +0.000 A 
ENDBRANCH   8  11
ENDBRANCH   1   6
BRANCH   1  17
ATOM     17  C   UNL     1       7.996   8.763  17.527  0.00  0.00    +0.000 C 
BRANCH  17  18
ATOM     18  N   UNL     1       6.773   8.011  17.718  0.00  0.00    +0.000 N 
ATOM     19  C   UNL     1       6.636   6.779  17.097  0.00  0.00    +0.000 C 
ATOM     20  O   UNL     1       7.494   6.290  16.371  0.00  0.00    +0.000 OA
ATOM     21  H   UNL     1       6.152   8.254  18.480  0.00  0.00    +0.000 HD
BRANCH  19  22
ATOM     22  C   UNL     1       5.382   6.034  17.371  0.00  0.00    +0.000 A 
ATOM     23  C   UNL     1       4.196   6.753  17.611  0.00  0.00    +0.000 A 
ATOM     24  C   UNL     1       2.980   6.102  17.866  0.00  0.00    +0.000 A 
ATOM     25  C   UNL     1       3.040   4.714  17.873  0.00  0.00    +0.000 A 
ATOM     26  O   UNL     1       2.012   3.832  18.080  0.00  0.00    +0.000 OA
ATOM     27  C   UNL     1       2.634   2.629  17.981  0.00  0.00    +0.000 A 
ATOM     28  N   UNL     1       3.917   2.630  17.740  0.00  0.00    +0.000 NA
ATOM     29  C   UNL     1       4.192   3.971  17.663  0.00  0.00    +0.000 A 
ATOM     30  C   UNL     1       5.399   4.632  17.417  0.00  0.00    +0.000 A 
BRANCH  27  31
ATOM     31  O   UNL     1       1.863   1.575  18.130  0.00  0.00    +0.000 OA
ATOM     32  H   UNL     1       2.103   1.025  17.369  0.00  0.00    +0.000 HD
ENDBRANCH  27  31
ENDBRANCH  19  22
ENDBRANCH  17  18
ENDBRANCH   1  17
TORSDOF 6
ENDMDL
MODEL 6
REMARK VINA RESULT:      -8.1      4.702      7.768
REMARK  Name = 
REMARK  7 active torsions:
REMARK  status: ('A' for Active; 'I' for Inactive)
REMARK    1  A    between atoms: C_1  and  N_2
REMARK    2  A    between atoms: C_5  and  C_6
REMARK    3  A    between atoms: C_6  and  C_7
REMARK    4  A    between atoms: C_7  and  N_8
REMARK    5  A    between atoms: C_9  and  C_11
REMARK    6  A    between atoms: C_16  and  O_17
REMARK    7  A    between atoms: C_22  and  C_23
REMARK                            x       y       z     vdW  Elec       q    Type
REMARK                         _______ _______ _______ _____ _____    ______ ____
ROOT
ATOM      1  C   UNL     1       6.952   5.172  19.472  0.00  0.00    +0.000 C 
ENDROOT
BRANCH   1   6
ATOM      2  C   UNL     1       1.476   2.506  18.470  0.00  0.00    +0.000 C 
ATOM      3  N   UNL     1       2.915   2.481  18.683  0.00  0.00    +0.000 N 
ATOM      4  C   UNL     1       3.511   3.742  18.874  0.00  0.00    +0.000 A 
ATOM      5  C   UNL     1       4.877   3.784  19.088  0.00  0.00    +0.000 A 
ATOM      6  C   UNL     1       5.464   5.025  19.254  0.00  0.00    +0.000 A 
ATOM      7  N   UNL     1       4.738   6.156  19.220  0.00  0.00    +0.000 NA
ATOM      8  C   UNL     1       3.408   6.027  19.033  0.00  0.00    +0.000 A 
ATOM      9  N   UNL     1       2.767   4.856  18.866  0.00  0.00    +0.000 NA
ATOM     10  H   UNL     1       3.397   2.002  17.926  0.00  0.00    +0.000 HD
BRANCH   8  11
ATOM     11  C   UNL     1       2.603   7.261  19.014  0.00  0.00    +0.000 A 
ATOM     12  C   UNL     1       1.897   7.683  20.151  0.00  0.00    +0.000 A 
ATOM     13  C   UNL     1       1.119   8.827  20.087  0.00  0.00    +0.000 A 
ATOM     14  N   UNL     1       0.997   9.588  18.982  0.00  0.00    +0.000 NA
ATOM     15  C   UNL     1       1.690   9.189  17.896  0.00  0.00    +0.000 A 
ATOM     16  C   UNL     1       2.492   8.059  17.865  0.00  0.00    +0.000 A 
ENDBRANCH   8  11
ENDBRANCH   1   6
BRANCH   1  17
ATOM     17  C   UNL     1       7.616   5.905  18.308  0.00  0.00    +0.000 C 
BRANCH  17  18
ATOM     18  N   UNL     1       8.196   7.185  18.661  0.00  0.00    +0.000 N 
ATOM     19  C   UNL     1       7.920   8.290  17.871  0.00  0.00    +0.000 C 
ATOM     20  O   UNL     1       7.220   8.243  16.866  0.00  0.00    +0.000 OA
ATOM     21  H   UNL     1       8.573   7.321  19.592  0.00  0.00    +0.000 HD
BRANCH  19  22
ATOM     22  C   UNL     1       8.501   9.582  18.313  0.00  0.00    +0.000 A 
ATOM     23  C   UNL     1       9.221   9.632  19.521  0.00  0.00    +0.000 A 
ATOM     24  C   UNL     1       9.800  10.824  19.984  0.00  0.00    +0.000 A 
ATOM     25  C   UNL     1       9.601  11.934  19.173  0.00  0.00    +0.000 A 
ATOM     26  O   UNL     1      10.060  13.209  19.371  0.00  0.00    +0.000 OA
ATOM     27  C   UNL     1       9.573  13.868  18.288  0.00  0.00    +0.000 A 
ATOM     28  N   UNL     1       8.867  13.182  17.431  0.00  0.00    +0.000 NA
ATOM     29  C   UNL     1       8.881  11.929  17.988  0.00  0.00    +0.000 A 
ATOM     30  C   UNL     1       8.302  10.737  17.542  0.00  0.00    +0.000 A 
BRANCH  27  31
ATOM     31  O   UNL     1       9.879  15.144  18.213  0.00  0.00    +0.000 OA
ATOM     32  H   UNL     1       9.165  15.565  18.717  0.00  0.00    +0.000 HD
ENDBRANCH  27  31
ENDBRANCH  19  22
ENDBRANCH  17  18
ENDBRANCH   1  17
TORSDOF 6
ENDMDL
MODEL 7
REMARK VINA RESULT:      -8.1      3.277      8.532
REMARK  Name = 
REMARK  7 active torsions:
REMARK  status: ('A' for Active; 'I' for Inactive)
REMARK    1  A    between atoms: C_1  and  N_2
REMARK    2  A    between atoms: C_5  and  C_6
REMARK    3  A    between atoms: C_6  and  C_7
REMARK    4  A    between atoms: C_7  and  N_8
REMARK    5  A    between atoms: C_9  and  C_11
REMARK    6  A    between atoms: C_16  and  O_17
REMARK    7  A    between atoms: C_22  and  C_23
REMARK                            x       y       z     vdW  Elec       q    Type
REMARK                         _______ _______ _______ _____ _____    ______ ____
ROOT
ATOM      1  C   UNL     1       2.751   2.872  17.665  0.00  0.00    +0.000 C 
ENDROOT
BRANCH   1   6
ATOM      2  C   UNL     1       8.034   5.741  19.059  0.00  0.00    +0.000 C 
ATOM      3  N   UNL     1       6.757   5.134  19.397  0.00  0.00    +0.000 N 
ATOM      4  C   UNL     1       6.039   4.612  18.304  0.00  0.00    +0.000 A 
ATOM      5  C   UNL     1       4.817   4.015  18.562  0.00  0.00    +0.000 A 
ATOM      6  C   UNL     1       4.104   3.522  17.485  0.00  0.00    +0.000 A 
ATOM      7  N   UNL     1       4.577   3.606  16.230  0.00  0.00    +0.000 NA
ATOM      8  C   UNL     1       5.788   4.179  16.067  0.00  0.00    +0.000 A 
ATOM      9  N   UNL     1       6.540   4.679  17.064  0.00  0.00    +0.000 NA
ATOM     10  H   UNL     1       6.157   5.781  19.904  0.00  0.00    +0.000 HD
BRANCH   8  11
ATOM     11  C   UNL     1       6.322   4.257  14.696  0.00  0.00    +0.000 A 
ATOM     12  C   UNL     1       7.350   5.155  14.370  0.00  0.00    +0.000 A 
ATOM     13  C   UNL     1       7.803   5.230  13.063  0.00  0.00    +0.000 A 
ATOM     14  N   UNL     1       7.319   4.473  12.059  0.00  0.00    +0.000 NA
ATOM     15  C   UNL     1       6.342   3.600  12.379  0.00  0.00    +0.000 A 
ATOM     16  C   UNL     1       5.825   3.456  13.658  0.00  0.00    +0.000 A 
ENDBRANCH   8  11
ENDBRANCH   1   6
BRANCH   1  17
ATOM     17  C   UNL     1       2.074   3.342  18.951  0.00  0.00    +0.000 C 
BRANCH  17  18
ATOM     18  N   UNL     1       1.759   4.756  18.978  0.00  0.00    +0.000 N 
ATOM     19  C   UNL     1       2.000   5.477  20.137  0.00  0.00    +0.000 C 
ATOM     20  O   UNL     1       2.453   4.978  21.161  0.00  0.00    +0.000 OA
ATOM     21  H   UNL     1       1.615   5.251  18.106  0.00  0.00    +0.000 HD
BRANCH  19  22
ATOM     22  C   UNL     1       1.705   6.931  20.086  0.00  0.00    +0.000 A 
ATOM     23  C   UNL     1       1.100   7.546  21.198  0.00  0.00    +0.000 A 
ATOM     24  C   UNL     1       0.807   8.919  21.211  0.00  0.00    +0.000 A 
ATOM     25  C   UNL     1       1.147   9.608  20.055  0.00  0.00    +0.000 A 
ATOM     26  O   UNL     1       0.988  10.945  19.799  0.00  0.00    +0.000 OA
ATOM     27  C   UNL     1       1.481  11.064  18.539  0.00  0.00    +0.000 A 
ATOM     28  N   UNL     1       1.930   9.982  17.962  0.00  0.00    +0.000 NA
ATOM     29  C   UNL     1       1.725   9.034  18.932  0.00  0.00    +0.000 A 
ATOM     30  C   UNL     1       2.004   7.665  18.929  0.00  0.00    +0.000 A 
BRANCH  27  31
ATOM     31  O   UNL     1       1.463  12.275  18.032  0.00  0.00    +0.000 OA
ATOM     32  H   UNL     1       0.829  12.192  17.303  0.00  0.00    +0.000 HD
ENDBRANCH  27  31
ENDBRANCH  19  22
ENDBRANCH  17  18
ENDBRANCH   1  17
TORSDOF 6
ENDMDL
MODEL 8
REMARK VINA RESULT:      -8.1      4.885      7.436
REMARK  Name = 
REMARK  7 active torsions:
REMARK  status: ('A' for Active; 'I' for Inactive)
REMARK    1  A    between atoms: C_1  and  N_2
REMARK    2  A    between atoms: C_5  and  C_6
REMARK    3  A    between atoms: C_6  and  C_7
REMARK    4  A    between atoms: C_7  and  N_8
REMARK    5  A    between atoms: C_9  and  C_11
REMARK    6  A    between atoms: C_16  and  O_17
REMARK    7  A    between atoms: C_22  and  C_23
REMARK                            x       y       z     vdW  Elec       q    Type
REMARK                         _______ _______ _______ _____ _____    ______ ____
ROOT
ATOM      1  C   UNL     1       5.665   6.350  16.046  0.00  0.00    +0.000 C 
ENDROOT
BRANCH   1   6
ATOM      2  C   UNL     1       1.626   3.172  19.463  0.00  0.00    +0.000 C 
ATOM      3  N   UNL     1       2.755   3.283  18.552  0.00  0.00    +0.000 N 
ATOM      4  C   UNL     1       3.114   4.600  18.208  0.00  0.00    +0.000 A 
ATOM      5  C   UNL     1       4.186   4.771  17.349  0.00  0.00    +0.000 A 
ATOM      6  C   UNL     1       4.524   6.064  16.994  0.00  0.00    +0.000 A 
ATOM      7  N   UNL     1       3.848   7.123  17.470  0.00  0.00    +0.000 NA
ATOM      8  C   UNL     1       2.833   6.872  18.323  0.00  0.00    +0.000 A 
ATOM      9  N   UNL     1       2.448   5.644  18.715  0.00  0.00    +0.000 NA
ATOM     10  H   UNL     1       2.601   2.751  17.699  0.00  0.00    +0.000 HD
BRANCH   8  11
ATOM     11  C   UNL     1       2.100   8.029  18.866  0.00  0.00    +0.000 A 
ATOM     12  C   UNL     1       1.696   8.067  20.209  0.00  0.00    +0.000 A 
ATOM     13  C   UNL     1       0.975   9.152  20.676  0.00  0.00    +0.000 A 
ATOM     14  N   UNL     1       0.632  10.208  19.912  0.00  0.00    +0.000 NA
ATOM     15  C   UNL     1       1.036  10.176  18.625  0.00  0.00    +0.000 A 
ATOM     16  C   UNL     1       1.760   9.133  18.069  0.00  0.00    +0.000 A 
ENDBRANCH   8  11
ENDBRANCH   1   6
BRANCH   1  17
ATOM     17  C   UNL     1       6.988   6.500  16.795  0.00  0.00    +0.000 C 
BRANCH  17  18
ATOM     18  N   UNL     1       7.366   7.870  17.071  0.00  0.00    +0.000 N 
ATOM     19  C   UNL     1       8.150   8.142  18.182  0.00  0.00    +0.000 C 
ATOM     20  O   UNL     1       8.532   7.280  18.965  0.00  0.00    +0.000 OA
ATOM     21  H   UNL     1       7.280   8.568  16.342  0.00  0.00    +0.000 HD
BRANCH  19  22
ATOM     22  C   UNL     1       8.546   9.558  18.384  0.00  0.00    +0.000 A 
ATOM     23  C   UNL     1       8.075  10.536  17.487  0.00  0.00    +0.000 A 
ATOM     24  C   UNL     1       8.409  11.891  17.634  0.00  0.00    +0.000 A 
ATOM     25  C   UNL     1       9.236  12.184  18.710  0.00  0.00    +0.000 A 
ATOM     26  O   UNL     1       9.705  13.412  19.096  0.00  0.00    +0.000 OA
ATOM     27  C   UNL     1      10.454  13.111  20.188  0.00  0.00    +0.000 A 
ATOM     28  N   UNL     1      10.524  11.857  20.545  0.00  0.00    +0.000 NA
ATOM     29  C   UNL     1       9.737  11.247  19.602  0.00  0.00    +0.000 A 
ATOM     30  C   UNL     1       9.403   9.900  19.440  0.00  0.00    +0.000 A 
BRANCH  27  31
ATOM     31  O   UNL     1      11.030  14.132  20.783  0.00  0.00    +0.000 OA
ATOM     32  H   UNL     1      11.133  14.770  20.060  0.00  0.00    +0.000 HD
ENDBRANCH  27  31
ENDBRANCH  19  22
ENDBRANCH  17  18
ENDBRANCH   1  17
TORSDOF 6
ENDMDL
MODEL 9
REMARK VINA RESULT:      -7.9      2.800      3.838
REMARK  Name = 
REMARK  7 active torsions:
REMARK  status: ('A' for Active; 'I' for Inactive)
REMARK    1  A    between atoms: C_1  and  N_2
REMARK    2  A    between atoms: C_5  and  C_6
REMARK    3  A    between atoms: C_6  and  C_7
REMARK    4  A    between atoms: C_7  and  N_8
REMARK    5  A    between atoms: C_9  and  C_11
REMARK    6  A    between atoms: C_16  and  O_17
REMARK    7  A    between atoms: C_22  and  C_23
REMARK                            x       y       z     vdW  Elec       q    Type
REMARK                         _______ _______ _______ _____ _____    ______ ____
ROOT
ATOM      1  C   UNL     1       1.275   8.971  22.090  0.00  0.00    +0.000 C 
ENDROOT
BRANCH   1   6
ATOM      2  C   UNL     1      -0.368  13.474  18.203  0.00  0.00    +0.000 C 
ATOM      3  N   UNL     1       0.340  12.253  18.553  0.00  0.00    +0.000 N 
ATOM      4  C   UNL     1       0.138  11.804  19.872  0.00  0.00    +0.000 A 
ATOM      5  C   UNL     1       0.781  10.643  20.264  0.00  0.00    +0.000 A 
ATOM      6  C   UNL     1       0.598  10.216  21.566  0.00  0.00    +0.000 A 
ATOM      7  N   UNL     1      -0.183  10.893  22.425  0.00  0.00    +0.000 NA
ATOM      8  C   UNL     1      -0.795  12.000  21.957  0.00  0.00    +0.000 A 
ATOM      9  N   UNL     1      -0.667  12.476  20.705  0.00  0.00    +0.000 NA
ATOM     10  H   UNL     1       1.340  12.339  18.386  0.00  0.00    +0.000 HD
BRANCH   8  11
ATOM     11  C   UNL     1      -1.668  12.737  22.887  0.00  0.00    +0.000 A 
ATOM     12  C   UNL     1      -1.264  13.959  23.447  0.00  0.00    +0.000 A 
ATOM     13  C   UNL     1      -2.094  14.606  24.347  0.00  0.00    +0.000 A 
ATOM     14  N   UNL     1      -3.299  14.136  24.725  0.00  0.00    +0.000 NA
ATOM     15  C   UNL     1      -3.691  12.971  24.173  0.00  0.00    +0.000 A 
ATOM     16  C   UNL     1      -2.929  12.252  23.265  0.00  0.00    +0.000 A 
ENDBRANCH   8  11
ENDBRANCH   1   6
BRANCH   1  17
ATOM     17  C   UNL     1       0.964   7.757  21.217  0.00  0.00    +0.000 C 
BRANCH  17  18
ATOM     18  N   UNL     1       2.094   7.263  20.457  0.00  0.00    +0.000 N 
ATOM     19  C   UNL     1       2.176   5.907  20.177  0.00  0.00    +0.000 C 
ATOM     20  O   UNL     1       1.347   5.088  20.557  0.00  0.00    +0.000 OA
ATOM     21  H   UNL     1       2.662   7.914  19.928  0.00  0.00    +0.000 HD
BRANCH  19  22
ATOM     22  C   UNL     1       3.329   5.469  19.352  0.00  0.00    +0.000 A 
ATOM     23  C   UNL     1       3.906   4.208  19.595  0.00  0.00    +0.000 A 
ATOM     24  C   UNL     1       4.991   3.738  18.840  0.00  0.00    +0.000 A 
ATOM     25  C   UNL     1       5.450   4.605  17.857  0.00  0.00    +0.000 A 
ATOM     26  O   UNL     1       6.477   4.401  16.973  0.00  0.00    +0.000 OA
ATOM     27  C   UNL     1       6.485   5.557  16.260  0.00  0.00    +0.000 A 
ATOM     28  N   UNL     1       5.602   6.466  16.575  0.00  0.00    +0.000 NA
ATOM     29  C   UNL     1       4.923   5.862  17.602  0.00  0.00    +0.000 A 
ATOM     30  C   UNL     1       3.847   6.322  18.366  0.00  0.00    +0.000 A 
BRANCH  27  31
ATOM     31  O   UNL     1       7.388   5.634  15.309  0.00  0.00    +0.000 OA
ATOM     32  H   UNL     1       8.172   5.947  15.784  0.00  0.00    +0.000 HD
ENDBRANCH  27  31
ENDBRANCH  19  22
ENDBRANCH  17  18
ENDBRANCH   1  17
TORSDOF 6
ENDMDL
