MODEL 1
REMARK VINA RESULT:      -9.4      0.000      0.000
REMARK  Name = 
REMARK  6 active torsions:
REMARK  status: ('A' for Active; 'I' for Inactive)
REMARK    1  A    between atoms: C_2  and  C_14
REMARK    2  A    between atoms: N_3  and  C_4
REMARK    3  A    between atoms: C_4  and  C_5
REMARK    4  A    between atoms: C_4  and  C_11
REMARK    5  A    between atoms: C_20  and  C_21
REMARK    6  A    between atoms: C_24  and  N_25
REMARK                            x       y       z     vdW  Elec       q    Type
REMARK                         _______ _______ _______ _____ _____    ______ ____
ROOT
ATOM      1  C   UNL     1      -0.703  11.664  21.278  0.00  0.00    +0.000 A 
ATOM      2  C   UNL     1      -0.893  12.737  20.399  0.00  0.00    +0.000 A 
ATOM      3  C   UNL     1      -0.177  12.831  19.206  0.00  0.00    +0.000 A 
ATOM      4  C   UNL     1       0.715  11.797  18.921  0.00  0.00    +0.000 A 
ATOM      5  N   UNL     1       1.541  11.599  17.852  0.00  0.00    +0.000 N 
ATOM      6  N   UNL     1       2.176  10.424  17.858  0.00  0.00    +0.000 NA
ATOM      7  C   UNL     1       1.736   9.812  18.969  0.00  0.00    +0.000 A 
ATOM      8  C   UNL     1       0.884  10.677  19.734  0.00  0.00    +0.000 A 
ATOM      9  C   UNL     1       0.165  10.611  20.945  0.00  0.00    +0.000 A 
ATOM     10  H   UNL     1       1.680  12.211  17.055  0.00  0.00    +0.000 HD
ENDROOT
BRANCH   7  11
ATOM     11  C   UNL     1       2.002   8.392  19.171  0.00  0.00    +0.000 A 
ATOM     12  C   UNL     1       1.741   7.731  20.365  0.00  0.00    +0.000 A 
ATOM     13  C   UNL     1       1.849   6.338  20.426  0.00  0.00    +0.000 A 
ATOM     14  C   UNL     1       2.213   5.550  19.313  0.00  0.00    +0.000 A 
ATOM     15  C   UNL     1       2.546   6.241  18.151  0.00  0.00    +0.000 A 
ATOM     16  C   UNL     1       2.444   7.638  18.080  0.00  0.00    +0.000 A 
BRANCH  14  17
ATOM     17  N   UNL     1       2.225   4.187  19.357  0.00  0.00    +0.000 N 
ATOM     18  C   UNL     1       2.724   3.378  20.464  0.00  0.00    +0.000 C 
ATOM     19  C   UNL     1       1.486   2.512  20.713  0.00  0.00    +0.000 C 
ATOM     20  C   UNL     1       0.926   2.216  19.319  0.00  0.00    +0.000 C 
ATOM     21  C   UNL     1       1.685   3.200  18.396  0.00  0.00    +0.000 C 
ATOM     22  C   UNL     1       2.885   2.431  17.783  0.00  0.00    +0.000 C 
ATOM     23  O   UNL     1       3.661   1.761  18.808  0.00  0.00    +0.000 OA
ATOM     24  C   UNL     1       3.974   2.659  19.891  0.00  0.00    +0.000 C 
ENDBRANCH  14  17
ENDBRANCH   7  11
BRANCH   1  26
ATOM     25  O   UNL     1      -1.225  10.847  23.423  0.00  0.00    +0.000 OA
ATOM     26  C   UNL     1      -1.483  11.668  22.548  0.00  0.00    +0.000 C 
ATOM     27  N   UNL     1      -2.492  12.591  22.639  0.00  0.00    +0.000 N 
ATOM     28  H   UNL     1      -2.780  13.136  21.837  0.00  0.00    +0.000 HD
BRANCH  27  29
ATOM     29  C   UNL     1      -3.378  12.688  23.792  0.00  0.00    +0.000 C 
BRANCH  29  30
ATOM     30  C   UNL     1      -4.835  12.636  23.327  0.00  0.00    +0.000 A 
ATOM     31  C   UNL     1      -5.865  12.674  24.268  0.00  0.00    +0.000 A 
ATOM     32  C   UNL     1      -7.184  12.593  23.830  0.00  0.00    +0.000 A 
ATOM     33  C   UNL     1      -7.445  12.482  22.471  0.00  0.00    +0.000 A 
ATOM     34  C   UNL     1      -6.370  12.455  21.598  0.00  0.00    +0.000 A 
ATOM     35  N   UNL     1      -5.078  12.520  21.989  0.00  0.00    +0.000 NA
ENDBRANCH  29  30
BRANCH  29  36
ATOM     36  C   UNL     1      -3.097  13.975  24.534  0.00  0.00    +0.000 C 
ATOM     37  C   UNL     1      -1.858  14.816  24.309  0.00  0.00    +0.000 C 
ATOM     38  C   UNL     1      -3.180  15.288  23.783  0.00  0.00    +0.000 C 
ENDBRANCH  29  36
ENDBRANCH  27  29
ENDBRANCH   1  26
TORSDOF 6
ENDMDL
MODEL 2
REMARK VINA RESULT:      -9.2      0.952      1.355
REMARK  Name = 
REMARK  6 active torsions:
REMARK  status: ('A' for Active; 'I' for Inactive)
REMARK    1  A    between atoms: C_2  and  C_14
REMARK    2  A    between atoms: N_3  and  C_4
REMARK    3  A    between atoms: C_4  and  C_5
REMARK    4  A    between atoms: C_4  and  C_11
REMARK    5  A    between atoms: C_20  and  C_21
REMARK    6  A    between atoms: C_24  and  N_25
REMARK                            x       y       z     vdW  Elec       q    Type
REMARK                         _______ _______ _______ _____ _____    ______ ____
ROOT
ATOM      1  C   UNL     1      -0.322  12.058  21.231  0.00  0.00    +0.000 A 
ATOM      2  C   UNL     1      -0.521  13.071  20.286  0.00  0.00    +0.000 A 
ATOM      3  C   UNL     1       0.102  13.029  19.038  0.00  0.00    +0.000 A 
ATOM      4  C   UNL     1       0.908  11.923  18.771  0.00  0.00    +0.000 A 
ATOM      5  N   UNL     1       1.633  11.592  17.662  0.00  0.00    +0.000 N 
ATOM      6  N   UNL     1       2.200  10.384  17.714  0.00  0.00    +0.000 NA
ATOM      7  C   UNL     1       1.815   9.887  18.901  0.00  0.00    +0.000 A 
ATOM      8  C   UNL     1       1.078  10.859  19.656  0.00  0.00    +0.000 A 
ATOM      9  C   UNL     1       0.456  10.931  20.919  0.00  0.00    +0.000 A 
ATOM     10  H   UNL     1       1.742  12.133  16.810  0.00  0.00    +0.000 HD
ENDROOT
BRANCH   7  11
ATOM     11  C   UNL     1       2.016   8.472  19.196  0.00  0.00    +0.000 A 
ATOM     12  C   UNL     1       1.663   7.890  20.407  0.00  0.00    +0.000 A 
ATOM     13  C   UNL     1       1.716   6.500  20.551  0.00  0.00    +0.000 A 
ATOM     14  C   UNL     1       2.113   5.637  19.506  0.00  0.00    +0.000 A 
ATOM     15  C   UNL     1       2.537   6.250  18.329  0.00  0.00    +0.000 A 
ATOM     16  C   UNL     1       2.492   7.643  18.176  0.00  0.00    +0.000 A 
BRANCH  14  17
ATOM     17  N   UNL     1       2.071   4.280  19.626  0.00  0.00    +0.000 N 
ATOM     18  C   UNL     1       0.969   3.512  20.194  0.00  0.00    +0.000 C 
ATOM     19  C   UNL     1       0.714   2.550  19.031  0.00  0.00    +0.000 C 
ATOM     20  C   UNL     1       2.105   2.213  18.487  0.00  0.00    +0.000 C 
ATOM     21  C   UNL     1       3.031   3.255  19.160  0.00  0.00    +0.000 C 
ATOM     22  C   UNL     1       3.653   2.583  20.412  0.00  0.00    +0.000 C 
ATOM     23  O   UNL     1       2.634   1.976  21.246  0.00  0.00    +0.000 OA
ATOM     24  C   UNL     1       1.551   2.895  21.494  0.00  0.00    +0.000 C 
ENDBRANCH  14  17
ENDBRANCH   7  11
BRANCH   1  26
ATOM     25  O   UNL     1      -1.021  11.260  23.332  0.00  0.00    +0.000 OA
ATOM     26  C   UNL     1      -0.996  12.207  22.552  0.00  0.00    +0.000 C 
ATOM     27  N   UNL     1      -1.593  13.415  22.797  0.00  0.00    +0.000 N 
ATOM     28  H   UNL     1      -1.693  14.110  22.068  0.00  0.00    +0.000 HD
BRANCH  27  29
ATOM     29  C   UNL     1      -2.337  13.701  24.017  0.00  0.00    +0.000 C 
BRANCH  29  30
ATOM     30  C   UNL     1      -3.824  13.422  23.791  0.00  0.00    +0.000 A 
ATOM     31  C   UNL     1      -4.520  12.603  24.681  0.00  0.00    +0.000 A 
ATOM     32  C   UNL     1      -5.865  12.333  24.442  0.00  0.00    +0.000 A 
ATOM     33  C   UNL     1      -6.484  12.890  23.331  0.00  0.00    +0.000 A 
ATOM     34  C   UNL     1      -5.729  13.697  22.496  0.00  0.00    +0.000 A 
ATOM     35  N   UNL     1      -4.420  13.969  22.691  0.00  0.00    +0.000 NA
ENDBRANCH  29  30
BRANCH  29  36
ATOM     36  C   UNL     1      -2.115  15.143  24.413  0.00  0.00    +0.000 C 
ATOM     37  C   UNL     1      -3.021  15.898  25.363  0.00  0.00    +0.000 C 
ATOM     38  C   UNL     1      -1.666  15.456  25.825  0.00  0.00    +0.000 C 
ENDBRANCH  29  36
ENDBRANCH  27  29
ENDBRANCH   1  26
TORSDOF 6
ENDMDL
MODEL 3
REMARK VINA RESULT:      -9.2      3.605      5.123
REMARK  Name = 
REMARK  6 active torsions:
REMARK  status: ('A' for Active; 'I' for Inactive)
REMARK    1  A    between atoms: C_2  and  C_14
REMARK    2  A    between atoms: N_3  and  C_4
REMARK    3  A    between atoms: C_4  and  C_5
REMARK    4  A    between atoms: C_4  and  C_11
REMARK    5  A    between atoms: C_20  and  C_21
REMARK    6  A    between atoms: C_24  and  N_25
REMARK                            x       y       z     vdW  Elec       q    Type
REMARK                         _______ _______ _______ _____ _____    ______ ____
ROOT
ATOM      1  C   UNL     1      -1.182  11.090  19.506  0.00  0.00    +0.000 A 
ATOM      2  C   UNL     1      -1.313  11.703  20.758  0.00  0.00    +0.000 A 
ATOM      3  C   UNL     1      -0.697  11.172  21.892  0.00  0.00    +0.000 A 
ATOM      4  C   UNL     1       0.071  10.022  21.715  0.00  0.00    +0.000 A 
ATOM      5  N   UNL     1       0.790   9.281  22.608  0.00  0.00    +0.000 N 
ATOM      6  N   UNL     1       1.507   8.298  22.057  0.00  0.00    +0.000 NA
ATOM      7  C   UNL     1       1.266   8.407  20.741  0.00  0.00    +0.000 A 
ATOM      8  C   UNL     1       0.284   9.419  20.476  0.00  0.00    +0.000 A 
ATOM      9  C   UNL     1      -0.363   9.960  19.345  0.00  0.00    +0.000 A 
ATOM     10  H   UNL     1       0.871   9.426  23.609  0.00  0.00    +0.000 HD
ENDROOT
BRANCH   7  11
ATOM     11  C   UNL     1       2.091   7.672  19.787  0.00  0.00    +0.000 A 
ATOM     12  C   UNL     1       2.448   8.176  18.543  0.00  0.00    +0.000 A 
ATOM     13  C   UNL     1       3.386   7.496  17.761  0.00  0.00    +0.000 A 
ATOM     14  C   UNL     1       4.008   6.299  18.181  0.00  0.00    +0.000 A 
ATOM     15  C   UNL     1       3.575   5.774  19.396  0.00  0.00    +0.000 A 
ATOM     16  C   UNL     1       2.631   6.446  20.186  0.00  0.00    +0.000 A 
BRANCH  14  17
ATOM     17  N   UNL     1       4.990   5.694  17.454  0.00  0.00    +0.000 N 
ATOM     18  C   UNL     1       5.756   6.316  16.380  0.00  0.00    +0.000 C 
ATOM     19  C   UNL     1       7.171   6.044  16.898  0.00  0.00    +0.000 C 
ATOM     20  C   UNL     1       7.103   4.644  17.513  0.00  0.00    +0.000 C 
ATOM     21  C   UNL     1       5.586   4.347  17.598  0.00  0.00    +0.000 C 
ATOM     22  C   UNL     1       5.202   3.523  16.342  0.00  0.00    +0.000 C 
ATOM     23  O   UNL     1       5.679   4.156  15.129  0.00  0.00    +0.000 OA
ATOM     24  C   UNL     1       5.325   5.553  15.099  0.00  0.00    +0.000 C 
ENDBRANCH  14  17
ENDBRANCH   7  11
BRANCH   1  26
ATOM     25  O   UNL     1      -1.486  12.744  17.860  0.00  0.00    +0.000 OA
ATOM     26  C   UNL     1      -1.907  11.705  18.359  0.00  0.00    +0.000 C 
ATOM     27  N   UNL     1      -3.050  11.069  17.951  0.00  0.00    +0.000 N 
ATOM     28  H   UNL     1      -3.452  10.312  18.490  0.00  0.00    +0.000 HD
BRANCH  27  29
ATOM     29  C   UNL     1      -3.899  11.572  16.879  0.00  0.00    +0.000 C 
BRANCH  29  30
ATOM     30  C   UNL     1      -5.259  11.981  17.448  0.00  0.00    +0.000 A 
ATOM     31  C   UNL     1      -5.800  11.280  18.528  0.00  0.00    +0.000 A 
ATOM     32  C   UNL     1      -7.053  11.645  19.012  0.00  0.00    +0.000 A 
ATOM     33  C   UNL     1      -7.733  12.698  18.416  0.00  0.00    +0.000 A 
ATOM     34  C   UNL     1      -7.131  13.349  17.353  0.00  0.00    +0.000 A 
ATOM     35  N   UNL     1      -5.922  13.014  16.850  0.00  0.00    +0.000 NA
ENDBRANCH  29  30
BRANCH  29  36
ATOM     36  C   UNL     1      -4.059  10.503  15.822  0.00  0.00    +0.000 C 
ATOM     37  C   UNL     1      -3.284  10.490  14.522  0.00  0.00    +0.000 C 
ATOM     38  C   UNL     1      -2.934   9.513  15.604  0.00  0.00    +0.000 C 
ENDBRANCH  29  36
ENDBRANCH  27  29
ENDBRANCH   1  26
TORSDOF 6
ENDMDL
MODEL 4
REMARK VINA RESULT:      -9.2      0.814      1.293
REMARK  Name = 
REMARK  6 active torsions:
REMARK  status: ('A' for Active; 'I' for Inactive)
REMARK    1  A    between atoms: C_2  and  C_14
REMARK    2  A    between atoms: N_3  and  C_4
REMARK    3  A    between atoms: C_4  and  C_5
REMARK    4  A    between atoms: C_4  and  C_11
REMARK    5  A    between atoms: C_20  and  C_21
REMARK    6  A    between atoms: C_24  and  N_25
REMARK                            x       y       z     vdW  Elec       q    Type
REMARK                         _______ _______ _______ _____ _____    ______ ____
ROOT
ATOM      1  C   UNL     1      -0.829  12.015  21.085  0.00  0.00    +0.000 A 
ATOM      2  C   UNL     1      -0.970  12.996  20.097  0.00  0.00    +0.000 A 
ATOM      3  C   UNL     1      -0.215  12.955  18.923  0.00  0.00    +0.000 A 
ATOM      4  C   UNL     1       0.663  11.882  18.774  0.00  0.00    +0.000 A 
ATOM      5  N   UNL     1       1.517  11.561  17.758  0.00  0.00    +0.000 N 
ATOM      6  N   UNL     1       2.127  10.382  17.904  0.00  0.00    +0.000 NA
ATOM      7  C   UNL     1       1.640   9.895  19.056  0.00  0.00    +0.000 A 
ATOM      8  C   UNL     1       0.784  10.848  19.701  0.00  0.00    +0.000 A 
ATOM      9  C   UNL     1       0.027  10.919  20.889  0.00  0.00    +0.000 A 
ATOM     10  H   UNL     1       1.693  12.087  16.908  0.00  0.00    +0.000 HD
ENDROOT
BRANCH   7  11
ATOM     11  C   UNL     1       1.870   8.498  19.410  0.00  0.00    +0.000 A 
ATOM     12  C   UNL     1       1.453   7.938  20.611  0.00  0.00    +0.000 A 
ATOM     13  C   UNL     1       1.546   6.556  20.803  0.00  0.00    +0.000 A 
ATOM     14  C   UNL     1       2.047   5.679  19.816  0.00  0.00    +0.000 A 
ATOM     15  C   UNL     1       2.531   6.273  18.653  0.00  0.00    +0.000 A 
ATOM     16  C   UNL     1       2.447   7.658  18.452  0.00  0.00    +0.000 A 
BRANCH  14  17
ATOM     17  N   UNL     1       2.045   4.325  19.976  0.00  0.00    +0.000 N 
ATOM     18  C   UNL     1       3.231   3.478  20.051  0.00  0.00    +0.000 C 
ATOM     19  C   UNL     1       2.940   2.766  21.374  0.00  0.00    +0.000 C 
ATOM     20  C   UNL     1       1.429   2.519  21.365  0.00  0.00    +0.000 C 
ATOM     21  C   UNL     1       0.916   3.395  20.197  0.00  0.00    +0.000 C 
ATOM     22  C   UNL     1       0.801   2.483  18.948  0.00  0.00    +0.000 C 
ATOM     23  O   UNL     1       2.026   1.742  18.722  0.00  0.00    +0.000 OA
ATOM     24  C   UNL     1       3.175   2.611  18.765  0.00  0.00    +0.000 C 
ENDBRANCH  14  17
ENDBRANCH   7  11
BRANCH   1  26
ATOM     25  O   UNL     1      -1.567  11.317  23.208  0.00  0.00    +0.000 OA
ATOM     26  C   UNL     1      -1.647  12.162  22.322  0.00  0.00    +0.000 C 
ATOM     27  N   UNL     1      -2.486  13.244  22.371  0.00  0.00    +0.000 N 
ATOM     28  H   UNL     1      -2.645  13.824  21.557  0.00  0.00    +0.000 HD
BRANCH  27  29
ATOM     29  C   UNL     1      -3.388  13.500  23.486  0.00  0.00    +0.000 C 
BRANCH  29  30
ATOM     30  C   UNL     1      -4.808  13.073  23.109  0.00  0.00    +0.000 A 
ATOM     31  C   UNL     1      -5.226  13.150  21.780  0.00  0.00    +0.000 A 
ATOM     32  C   UNL     1      -6.532  12.788  21.459  0.00  0.00    +0.000 A 
ATOM     33  C   UNL     1      -7.385  12.355  22.465  0.00  0.00    +0.000 A 
ATOM     34  C   UNL     1      -6.897  12.301  23.760  0.00  0.00    +0.000 A 
ATOM     35  N   UNL     1      -5.640  12.655  24.108  0.00  0.00    +0.000 NA
ENDBRANCH  29  30
BRANCH  29  36
ATOM     36  C   UNL     1      -3.346  14.970  23.839  0.00  0.00    +0.000 C 
ATOM     37  C   UNL     1      -4.425  15.669  24.637  0.00  0.00    +0.000 C 
ATOM     38  C   UNL     1      -3.104  15.372  25.279  0.00  0.00    +0.000 C 
ENDBRANCH  29  36
ENDBRANCH  27  29
ENDBRANCH   1  26
TORSDOF 6
ENDMDL
MODEL 5
REMARK VINA RESULT:      -9.2      3.194      4.581
REMARK  Name = 
REMARK  6 active torsions:
REMARK  status: ('A' for Active; 'I' for Inactive)
REMARK    1  A    between atoms: C_2  and  C_14
REMARK    2  A    between atoms: N_3  and  C_4
REMARK    3  A    between atoms: C_4  and  C_5
REMARK    4  A    between atoms: C_4  and  C_11
REMARK    5  A    between atoms: C_20  and  C_21
REMARK    6  A    between atoms: C_24  and  N_25
REMARK                            x       y       z     vdW  Elec       q    Type
REMARK                         _______ _______ _______ _____ _____    ______ ____
ROOT
ATOM      1  C   UNL     1      -2.464  11.791  18.978  0.00  0.00    +0.000 A 
ATOM      2  C   UNL     1      -2.278  13.019  19.622  0.00  0.00    +0.000 A 
ATOM      3  C   UNL     1      -1.250  13.201  20.549  0.00  0.00    +0.000 A 
ATOM      4  C   UNL     1      -0.409  12.114  20.783  0.00  0.00    +0.000 A 
ATOM      5  N   UNL     1       0.669  11.980  21.609  0.00  0.00    +0.000 N 
ATOM      6  N   UNL     1       1.314  10.817  21.488  0.00  0.00    +0.000 NA
ATOM      7  C   UNL     1       0.644  10.163  20.526  0.00  0.00    +0.000 A 
ATOM      8  C   UNL     1      -0.518  10.896  20.113  0.00  0.00    +0.000 A 
ATOM      9  C   UNL     1      -1.574  10.726  19.195  0.00  0.00    +0.000 A 
ATOM     10  H   UNL     1       1.047  12.669  22.251  0.00  0.00    +0.000 HD
ENDROOT
BRANCH   7  11
ATOM     11  C   UNL     1       1.220   8.963  19.926  0.00  0.00    +0.000 A 
ATOM     12  C   UNL     1       1.668   8.909  18.612  0.00  0.00    +0.000 A 
ATOM     13  C   UNL     1       2.372   7.787  18.164  0.00  0.00    +0.000 A 
ATOM     14  C   UNL     1       2.663   6.684  18.996  0.00  0.00    +0.000 A 
ATOM     15  C   UNL     1       2.135   6.729  20.284  0.00  0.00    +0.000 A 
ATOM     16  C   UNL     1       1.424   7.847  20.742  0.00  0.00    +0.000 A 
BRANCH  14  17
ATOM     17  N   UNL     1       3.430   5.638  18.577  0.00  0.00    +0.000 N 
ATOM     18  C   UNL     1       3.013   4.240  18.541  0.00  0.00    +0.000 C 
ATOM     19  C   UNL     1       3.322   3.929  17.075  0.00  0.00    +0.000 C 
ATOM     20  C   UNL     1       4.621   4.681  16.778  0.00  0.00    +0.000 C 
ATOM     21  C   UNL     1       4.788   5.630  17.989  0.00  0.00    +0.000 C 
ATOM     22  C   UNL     1       5.737   4.933  18.999  0.00  0.00    +0.000 C 
ATOM     23  O   UNL     1       5.304   3.579  19.281  0.00  0.00    +0.000 OA
ATOM     24  C   UNL     1       3.900   3.540  19.604  0.00  0.00    +0.000 C 
ENDBRANCH  14  17
ENDBRANCH   7  11
BRANCH   1  26
ATOM     25  O   UNL     1      -3.439  11.176  16.926  0.00  0.00    +0.000 OA
ATOM     26  C   UNL     1      -3.611  11.676  18.033  0.00  0.00    +0.000 C 
ATOM     27  N   UNL     1      -4.808  12.187  18.464  0.00  0.00    +0.000 N 
ATOM     28  H   UNL     1      -4.870  12.736  19.312  0.00  0.00    +0.000 HD
BRANCH  27  29
ATOM     29  C   UNL     1      -6.009  12.200  17.640  0.00  0.00    +0.000 C 
BRANCH  29  30
ATOM     30  C   UNL     1      -6.528  13.633  17.508  0.00  0.00    +0.000 A 
ATOM     31  C   UNL     1      -7.092  14.060  16.305  0.00  0.00    +0.000 A 
ATOM     32  C   UNL     1      -7.529  15.376  16.192  0.00  0.00    +0.000 A 
ATOM     33  C   UNL     1      -7.401  16.232  17.278  0.00  0.00    +0.000 A 
ATOM     34  C   UNL     1      -6.836  15.735  18.440  0.00  0.00    +0.000 A 
ATOM     35  N   UNL     1      -6.390  14.467  18.580  0.00  0.00    +0.000 NA
ENDBRANCH  29  30
BRANCH  29  36
ATOM     36  C   UNL     1      -7.056  11.305  18.265  0.00  0.00    +0.000 C 
ATOM     37  C   UNL     1      -6.729  10.021  18.997  0.00  0.00    +0.000 C 
ATOM     38  C   UNL     1      -7.150  11.231  19.775  0.00  0.00    +0.000 C 
ENDBRANCH  29  36
ENDBRANCH  27  29
ENDBRANCH   1  26
TORSDOF 6
ENDMDL
MODEL 6
REMARK VINA RESULT:      -9.0      4.636      7.889
REMARK  Name = 
REMARK  6 active torsions:
REMARK  status: ('A' for Active; 'I' for Inactive)
REMARK    1  A    between atoms: C_2  and  C_14
REMARK    2  A    between atoms: N_3  and  C_4
REMARK    3  A    between atoms: C_4  and  C_5
REMARK    4  A    between atoms: C_4  and  C_11
REMARK    5  A    between atoms: C_20  and  C_21
REMARK    6  A    between atoms: C_24  and  N_25
REMARK                            x       y       z     vdW  Elec       q    Type
REMARK                         _______ _______ _______ _____ _____    ______ ____
ROOT
ATOM      1  C   UNL     1       2.521  14.438  18.476  0.00  0.00    +0.000 A 
ATOM      2  C   UNL     1       1.471  15.252  18.917  0.00  0.00    +0.000 A 
ATOM      3  C   UNL     1       0.224  14.714  19.237  0.00  0.00    +0.000 A 
ATOM      4  C   UNL     1       0.083  13.332  19.121  0.00  0.00    +0.000 A 
ATOM      5  N   UNL     1      -0.987  12.519  19.363  0.00  0.00    +0.000 N 
ATOM      6  N   UNL     1      -0.723  11.215  19.256  0.00  0.00    +0.000 NA
ATOM      7  C   UNL     1       0.583  11.163  18.950  0.00  0.00    +0.000 A 
ATOM      8  C   UNL     1       1.121  12.478  18.753  0.00  0.00    +0.000 A 
ATOM      9  C   UNL     1       2.368  13.043  18.414  0.00  0.00    +0.000 A 
ATOM     10  H   UNL     1      -1.920  12.794  19.653  0.00  0.00    +0.000 HD
ENDROOT
BRANCH   7  11
ATOM     11  C   UNL     1       1.297   9.892  19.022  0.00  0.00    +0.000 A 
ATOM     12  C   UNL     1       1.278   9.071  20.142  0.00  0.00    +0.000 A 
ATOM     13  C   UNL     1       1.832   7.789  20.072  0.00  0.00    +0.000 A 
ATOM     14  C   UNL     1       2.417   7.271  18.896  0.00  0.00    +0.000 A 
ATOM     15  C   UNL     1       2.494   8.142  17.812  0.00  0.00    +0.000 A 
ATOM     16  C   UNL     1       1.946   9.431  17.872  0.00  0.00    +0.000 A 
BRANCH  14  17
ATOM     17  N   UNL     1       2.870   5.988  18.811  0.00  0.00    +0.000 N 
ATOM     18  C   UNL     1       2.654   5.085  17.685  0.00  0.00    +0.000 C 
ATOM     19  C   UNL     1       4.107   4.699  17.398  0.00  0.00    +0.000 C 
ATOM     20  C   UNL     1       4.763   4.578  18.776  0.00  0.00    +0.000 C 
ATOM     21  C   UNL     1       3.733   5.221  19.736  0.00  0.00    +0.000 C 
ATOM     22  C   UNL     1       2.880   4.073  20.338  0.00  0.00    +0.000 C 
ATOM     23  O   UNL     1       2.357   3.205  19.302  0.00  0.00    +0.000 OA
ATOM     24  C   UNL     1       1.735   3.968  18.250  0.00  0.00    +0.000 C 
ENDBRANCH  14  17
ENDBRANCH   7  11
BRANCH   1  26
ATOM     25  O   UNL     1       3.935  15.619  17.011  0.00  0.00    +0.000 OA
ATOM     26  C   UNL     1       3.805  15.105  18.118  0.00  0.00    +0.000 C 
ATOM     27  N   UNL     1       4.795  15.065  19.064  0.00  0.00    +0.000 N 
ATOM     28  H   UNL     1       4.707  14.492  19.894  0.00  0.00    +0.000 HD
BRANCH  27  29
ATOM     29  C   UNL     1       6.123  15.624  18.848  0.00  0.00    +0.000 C 
BRANCH  29  30
ATOM     30  C   UNL     1       7.130  14.492  18.632  0.00  0.00    +0.000 A 
ATOM     31  C   UNL     1       7.078  13.730  17.463  0.00  0.00    +0.000 A 
ATOM     32  C   UNL     1       7.981  12.684  17.298  0.00  0.00    +0.000 A 
ATOM     33  C   UNL     1       8.913  12.425  18.293  0.00  0.00    +0.000 A 
ATOM     34  C   UNL     1       8.906  13.227  19.422  0.00  0.00    +0.000 A 
ATOM     35  N   UNL     1       8.037  14.243  19.621  0.00  0.00    +0.000 NA
ENDBRANCH  29  30
BRANCH  29  36
ATOM     36  C   UNL     1       6.513  16.468  20.041  0.00  0.00    +0.000 C 
ATOM     37  C   UNL     1       7.409  17.684  19.948  0.00  0.00    +0.000 C 
ATOM     38  C   UNL     1       5.938  17.863  20.171  0.00  0.00    +0.000 C 
ENDBRANCH  29  36
ENDBRANCH  27  29
ENDBRANCH   1  26
TORSDOF 6
ENDMDL
MODEL 7
REMARK VINA RESULT:      -9.0      1.124      1.770
REMARK  Name = 
REMARK  6 active torsions:
REMARK  status: ('A' for Active; 'I' for Inactive)
REMARK    1  A    between atoms: C_2  and  C_14
REMARK    2  A    between atoms: N_3  and  C_4
REMARK    3  A    between atoms: C_4  and  C_5
REMARK    4  A    between atoms: C_4  and  C_11
REMARK    5  A    between atoms: C_20  and  C_21
REMARK    6  A    between atoms: C_24  and  N_25
REMARK                            x       y       z     vdW  Elec       q    Type
REMARK                         _______ _______ _______ _____ _____    ______ ____
ROOT
ATOM      1  C   UNL     1      -0.639  12.155  20.485  0.00  0.00    +0.000 A 
ATOM      2  C   UNL     1      -0.432  13.291  19.693  0.00  0.00    +0.000 A 
ATOM      3  C   UNL     1       0.553  13.314  18.705  0.00  0.00    +0.000 A 
ATOM      4  C   UNL     1       1.301  12.149  18.530  0.00  0.00    +0.000 A 
ATOM      5  N   UNL     1       2.311  11.858  17.659  0.00  0.00    +0.000 N 
ATOM      6  N   UNL     1       2.720  10.588  17.695  0.00  0.00    +0.000 NA
ATOM      7  C   UNL     1       1.931  10.010  18.614  0.00  0.00    +0.000 A 
ATOM      8  C   UNL     1       1.081  10.975  19.249  0.00  0.00    +0.000 A 
ATOM      9  C   UNL     1       0.094  10.979  20.256  0.00  0.00    +0.000 A 
ATOM     10  H   UNL     1       2.737  12.477  16.976  0.00  0.00    +0.000 HD
ENDROOT
BRANCH   7  11
ATOM     11  C   UNL     1       1.899   8.555  18.734  0.00  0.00    +0.000 A 
ATOM     12  C   UNL     1       2.233   7.699  17.693  0.00  0.00    +0.000 A 
ATOM     13  C   UNL     1       2.355   6.327  17.934  0.00  0.00    +0.000 A 
ATOM     14  C   UNL     1       2.158   5.754  19.210  0.00  0.00    +0.000 A 
ATOM     15  C   UNL     1       1.749   6.623  20.218  0.00  0.00    +0.000 A 
ATOM     16  C   UNL     1       1.618   7.999  19.986  0.00  0.00    +0.000 A 
BRANCH  14  17
ATOM     17  N   UNL     1       2.372   4.430  19.455  0.00  0.00    +0.000 N 
ATOM     18  C   UNL     1       3.474   3.878  20.236  0.00  0.00    +0.000 C 
ATOM     19  C   UNL     1       2.671   3.046  21.239  0.00  0.00    +0.000 C 
ATOM     20  C   UNL     1       1.515   2.457  20.427  0.00  0.00    +0.000 C 
ATOM     21  C   UNL     1       1.549   3.253  19.100  0.00  0.00    +0.000 C 
ATOM     22  C   UNL     1       2.347   2.409  18.072  0.00  0.00    +0.000 C 
ATOM     23  O   UNL     1       3.622   1.985  18.614  0.00  0.00    +0.000 OA
ATOM     24  C   UNL     1       4.329   3.093  19.206  0.00  0.00    +0.000 C 
ENDBRANCH  14  17
ENDBRANCH   7  11
BRANCH   1  26
ATOM     25  O   UNL     1      -1.467  11.761  22.653  0.00  0.00    +0.000 OA
ATOM     26  C   UNL     1      -1.686  12.235  21.542  0.00  0.00    +0.000 C 
ATOM     27  N   UNL     1      -2.873  12.817  21.180  0.00  0.00    +0.000 N 
ATOM     28  H   UNL     1      -3.073  13.046  20.214  0.00  0.00    +0.000 HD
BRANCH  27  29
ATOM     29  C   UNL     1      -4.013  12.925  22.081  0.00  0.00    +0.000 C 
BRANCH  29  30
ATOM     30  C   UNL     1      -5.311  12.743  21.293  0.00  0.00    +0.000 A 
ATOM     31  C   UNL     1      -5.532  13.492  20.135  0.00  0.00    +0.000 A 
ATOM     32  C   UNL     1      -6.732  13.338  19.448  0.00  0.00    +0.000 A 
ATOM     33  C   UNL     1      -7.679  12.442  19.925  0.00  0.00    +0.000 A 
ATOM     34  C   UNL     1      -7.388  11.732  21.077  0.00  0.00    +0.000 A 
ATOM     35  N   UNL     1      -6.238  11.865  21.775  0.00  0.00    +0.000 NA
ENDBRANCH  29  30
BRANCH  29  36
ATOM     36  C   UNL     1      -3.985  14.272  22.767  0.00  0.00    +0.000 C 
ATOM     37  C   UNL     1      -5.072  14.756  23.703  0.00  0.00    +0.000 C 
ATOM     38  C   UNL     1      -3.748  14.330  24.262  0.00  0.00    +0.000 C 
ENDBRANCH  29  36
ENDBRANCH  27  29
ENDBRANCH   1  26
TORSDOF 6
ENDMDL
MODEL 8
REMARK VINA RESULT:      -9.0      3.176      4.609
REMARK  Name = 
REMARK  6 active torsions:
REMARK  status: ('A' for Active; 'I' for Inactive)
REMARK    1  A    between atoms: C_2  and  C_14
REMARK    2  A    between atoms: N_3  and  C_4
REMARK    3  A    between atoms: C_4  and  C_5
REMARK    4  A    between atoms: C_4  and  C_11
REMARK    5  A    between atoms: C_20  and  C_21
REMARK    6  A    between atoms: C_24  and  N_25
REMARK                            x       y       z     vdW  Elec       q    Type
REMARK                         _______ _______ _______ _____ _____    ______ ____
ROOT
ATOM      1  C   UNL     1      -1.227  11.322  19.699  0.00  0.00    +0.000 A 
ATOM      2  C   UNL     1      -1.149  12.180  20.802  0.00  0.00    +0.000 A 
ATOM      3  C   UNL     1      -0.527  11.782  21.986  0.00  0.00    +0.000 A 
ATOM      4  C   UNL     1       0.031  10.505  22.009  0.00  0.00    +0.000 A 
ATOM      5  N   UNL     1       0.701   9.839  22.995  0.00  0.00    +0.000 N 
ATOM      6  N   UNL     1       1.202   8.660  22.621  0.00  0.00    +0.000 NA
ATOM      7  C   UNL     1       0.867   8.550  21.326  0.00  0.00    +0.000 A 
ATOM      8  C   UNL     1       0.037   9.645  20.911  0.00  0.00    +0.000 A 
ATOM      9  C   UNL     1      -0.614  10.058  19.731  0.00  0.00    +0.000 A 
ATOM     10  H   UNL     1       0.892  10.160  23.939  0.00  0.00    +0.000 HD
ENDROOT
BRANCH   7  11
ATOM     11  C   UNL     1       1.478   7.513  20.501  0.00  0.00    +0.000 A 
ATOM     12  C   UNL     1       2.134   7.779  19.307  0.00  0.00    +0.000 A 
ATOM     13  C   UNL     1       2.850   6.763  18.666  0.00  0.00    +0.000 A 
ATOM     14  C   UNL     1       2.948   5.453  19.184  0.00  0.00    +0.000 A 
ATOM     15  C   UNL     1       2.217   5.192  20.340  0.00  0.00    +0.000 A 
ATOM     16  C   UNL     1       1.492   6.202  20.987  0.00  0.00    +0.000 A 
BRANCH  14  17
ATOM     17  N   UNL     1       3.725   4.496  18.602  0.00  0.00    +0.000 N 
ATOM     18  C   UNL     1       4.938   3.923  19.176  0.00  0.00    +0.000 C 
ATOM     19  C   UNL     1       4.568   2.439  19.101  0.00  0.00    +0.000 C 
ATOM     20  C   UNL     1       3.818   2.286  17.776  0.00  0.00    +0.000 C 
ATOM     21  C   UNL     1       3.524   3.743  17.344  0.00  0.00    +0.000 C 
ATOM     22  C   UNL     1       4.641   4.169  16.354  0.00  0.00    +0.000 C 
ATOM     23  O   UNL     1       5.957   3.899  16.896  0.00  0.00    +0.000 OA
ATOM     24  C   UNL     1       6.079   4.405  18.241  0.00  0.00    +0.000 C 
ENDBRANCH  14  17
ENDBRANCH   7  11
BRANCH   1  26
ATOM     25  O   UNL     1      -1.455  12.721  17.820  0.00  0.00    +0.000 OA
ATOM     26  C   UNL     1      -1.945  11.817  18.491  0.00  0.00    +0.000 C 
ATOM     27  N   UNL     1      -3.158  11.239  18.224  0.00  0.00    +0.000 N 
ATOM     28  H   UNL     1      -3.603  10.618  18.889  0.00  0.00    +0.000 HD
BRANCH  27  29
ATOM     29  C   UNL     1      -4.006  11.648  17.112  0.00  0.00    +0.000 C 
BRANCH  29  30
ATOM     30  C   UNL     1      -5.370  12.096  17.642  0.00  0.00    +0.000 A 
ATOM     31  C   UNL     1      -6.172  12.940  16.872  0.00  0.00    +0.000 A 
ATOM     32  C   UNL     1      -7.395  13.363  17.383  0.00  0.00    +0.000 A 
ATOM     33  C   UNL     1      -7.793  12.932  18.641  0.00  0.00    +0.000 A 
ATOM     34  C   UNL     1      -6.947  12.092  19.344  0.00  0.00    +0.000 A 
ATOM     35  N   UNL     1      -5.747  11.671  18.884  0.00  0.00    +0.000 NA
ENDBRANCH  29  30
BRANCH  29  36
ATOM     36  C   UNL     1      -4.157  10.495  16.146  0.00  0.00    +0.000 C 
ATOM     37  C   UNL     1      -3.721  10.555  14.698  0.00  0.00    +0.000 C 
ATOM     38  C   UNL     1      -2.918   9.760  15.682  0.00  0.00    +0.000 C 
ENDBRANCH  29  36
ENDBRANCH  27  29
ENDBRANCH   1  26
TORSDOF 6
ENDMDL
MODEL 9
REMARK VINA RESULT:      -9.0      0.601      1.322
REMARK  Name = 
REMARK  6 active torsions:
REMARK  status: ('A' for Active; 'I' for Inactive)
REMARK    1  A    between atoms: C_2  and  C_14
REMARK    2  A    between atoms: N_3  and  C_4
REMARK    3  A    between atoms: C_4  and  C_5
REMARK    4  A    between atoms: C_4  and  C_11
REMARK    5  A    between atoms: C_20  and  C_21
REMARK    6  A    between atoms: C_24  and  N_25
REMARK                            x       y       z     vdW  Elec       q    Type
REMARK                         _______ _______ _______ _____ _____    ______ ____
ROOT
ATOM      1  C   UNL     1      -0.999  11.741  21.295  0.00  0.00    +0.000 A 
ATOM      2  C   UNL     1      -1.220  12.808  20.416  0.00  0.00    +0.000 A 
ATOM      3  C   UNL     1      -0.471  12.950  19.247  0.00  0.00    +0.000 A 
ATOM      4  C   UNL     1       0.487  11.970  18.988  0.00  0.00    +0.000 A 
ATOM      5  N   UNL     1       1.358  11.825  17.946  0.00  0.00    +0.000 N 
ATOM      6  N   UNL     1       2.058  10.689  17.968  0.00  0.00    +0.000 NA
ATOM      7  C   UNL     1       1.615  10.045  19.060  0.00  0.00    +0.000 A 
ATOM      8  C   UNL     1       0.692  10.856  19.800  0.00  0.00    +0.000 A 
ATOM      9  C   UNL     1      -0.063  10.741  20.986  0.00  0.00    +0.000 A 
ATOM     10  H   UNL     1       1.489  12.450  17.158  0.00  0.00    +0.000 HD
ENDROOT
BRANCH   7  11
ATOM     11  C   UNL     1       1.954   8.640  19.264  0.00  0.00    +0.000 A 
ATOM     12  C   UNL     1       1.644   7.944  20.424  0.00  0.00    +0.000 A 
ATOM     13  C   UNL     1       1.835   6.559  20.476  0.00  0.00    +0.000 A 
ATOM     14  C   UNL     1       2.333   5.815  19.384  0.00  0.00    +0.000 A 
ATOM     15  C   UNL     1       2.710   6.547  18.261  0.00  0.00    +0.000 A 
ATOM     16  C   UNL     1       2.527   7.935  18.200  0.00  0.00    +0.000 A 
BRANCH  14  17
ATOM     17  N   UNL     1       2.427   4.455  19.412  0.00  0.00    +0.000 N 
ATOM     18  C   UNL     1       2.232   3.568  18.270  0.00  0.00    +0.000 C 
ATOM     19  C   UNL     1       3.552   2.795  18.332  0.00  0.00    +0.000 C 
ATOM     20  C   UNL     1       3.824   2.598  19.826  0.00  0.00    +0.000 C 
ATOM     21  C   UNL     1       2.819   3.551  20.516  0.00  0.00    +0.000 C 
ATOM     22  C   UNL     1       1.574   2.712  20.905  0.00  0.00    +0.000 C 
ATOM     23  O   UNL     1       1.082   1.944  19.779  0.00  0.00    +0.000 OA
ATOM     24  C   UNL     1       0.943   2.773  18.608  0.00  0.00    +0.000 C 
ENDBRANCH  14  17
ENDBRANCH   7  11
BRANCH   1  26
ATOM     25  O   UNL     1      -1.605  10.822  23.375  0.00  0.00    +0.000 OA
ATOM     26  C   UNL     1      -1.820  11.692  22.537  0.00  0.00    +0.000 C 
ATOM     27  N   UNL     1      -2.815  12.628  22.647  0.00  0.00    +0.000 N 
ATOM     28  H   UNL     1      -3.068  13.221  21.866  0.00  0.00    +0.000 HD
BRANCH  27  29
ATOM     29  C   UNL     1      -3.737  12.680  23.774  0.00  0.00    +0.000 C 
BRANCH  29  30
ATOM     30  C   UNL     1      -5.178  12.640  23.263  0.00  0.00    +0.000 A 
ATOM     31  C   UNL     1      -6.237  12.802  24.158  0.00  0.00    +0.000 A 
ATOM     32  C   UNL     1      -7.543  12.731  23.681  0.00  0.00    +0.000 A 
ATOM     33  C   UNL     1      -7.763  12.505  22.329  0.00  0.00    +0.000 A 
ATOM     34  C   UNL     1      -6.662  12.359  21.502  0.00  0.00    +0.000 A 
ATOM     35  N   UNL     1      -5.382  12.411  21.933  0.00  0.00    +0.000 NA
ENDBRANCH  29  30
BRANCH  29  36
ATOM     36  C   UNL     1      -3.485  13.941  24.570  0.00  0.00    +0.000 C 
ATOM     37  C   UNL     1      -2.189  14.722  24.510  0.00  0.00    +0.000 C 
ATOM     38  C   UNL     1      -3.415  15.267  23.841  0.00  0.00    +0.000 C 
ENDBRANCH  29  36
ENDBRANCH  27  29
ENDBRANCH   1  26
TORSDOF 6
ENDMDL
