MODEL 1
REMARK VINA RESULT:      -5.8      0.000      0.000
REMARK  Name = 
REMARK  14 active torsions:
REMARK  status: ('A' for Active; 'I' for Inactive)
REMARK    1  A    between atoms: O_1  and  C_2
REMARK    2  A    between atoms: C_2  and  C_3
REMARK    3  A    between atoms: C_3  and  N_4
REMARK    4  A    between atoms: N_4  and  C_5
REMARK    5  A    between atoms: N_4  and  C_8
REMARK    6  A    between atoms: C_5  and  C_6
REMARK    7  A    between atoms: C_6  and  O_7
REMARK    8  A    between atoms: C_13  and  N_14
REMARK    9  A    between atoms: N_14  and  C_15
REMARK   10  A    between atoms: N_14  and  C_18
REMARK   11  A    between atoms: C_15  and  C_16
REMARK   12  A    between atoms: C_16  and  O_17
REMARK   13  A    between atoms: C_18  and  C_19
REMARK   14  A    between atoms: C_19  and  O_20
REMARK                            x       y       z     vdW  Elec       q    Type
REMARK                         _______ _______ _______ _____ _____    ______ ____
ROOT
ATOM      1  C   UNL     1       4.321   5.515  17.912  0.00  0.00    +0.000 A 
ATOM      2  C   UNL     1       4.337   6.816  17.319  0.00  0.00    +0.000 A 
ATOM      3  C   UNL     1       3.387   7.797  17.601  0.00  0.00    +0.000 A 
ATOM      4  C   UNL     1       2.361   7.507  18.469  0.00  0.00    +0.000 A 
ATOM      5  C   UNL     1       2.310   6.245  19.062  0.00  0.00    +0.000 A 
ATOM      6  C   UNL     1       3.278   5.235  18.862  0.00  0.00    +0.000 A 
ENDROOT
BRANCH   1   7
ATOM      7  N   UNL     1       5.341   4.593  17.546  0.00  0.00    +0.000 N 
BRANCH   7   8
ATOM      8  C   UNL     1       5.261   3.986  16.184  0.00  0.00    +0.000 C 
BRANCH   8   9
ATOM      9  C   UNL     1       6.527   4.220  15.349  0.00  0.00    +0.000 C 
BRANCH   9  10
ATOM     10  O   UNL     1       6.424   3.529  14.102  0.00  0.00    +0.000 OA
ATOM     11  H   UNL     1       5.551   3.750  13.734  0.00  0.00    +0.000 HD
ENDBRANCH   9  10
ENDBRANCH   8   9
ENDBRANCH   7   8
BRANCH   7  12
ATOM     12  C   UNL     1       6.709   5.048  17.905  0.00  0.00    +0.000 C 
BRANCH  12  13
ATOM     13  C   UNL     1       6.913   5.463  19.371  0.00  0.00    +0.000 C 
BRANCH  13  14
ATOM     14  O   UNL     1       8.281   5.440  19.775  0.00  0.00    +0.000 OA
ATOM     15  H   UNL     1       8.753   4.821  19.192  0.00  0.00    +0.000 HD
ENDBRANCH  13  14
ENDBRANCH  12  13
ENDBRANCH   7  12
ENDBRANCH   1   7
BRANCH   6  16
ATOM     16  N   UNL     1       3.070   4.035  19.622  0.00  0.00    +0.000 N 
BRANCH  16  17
ATOM     17  C   UNL     1       2.399   4.203  20.939  0.00  0.00    +0.000 C 
BRANCH  17  18
ATOM     18  C   UNL     1       1.280   3.164  21.179  0.00  0.00    +0.000 C 
BRANCH  18  19
ATOM     19  O   UNL     1       1.552   2.318  22.290  0.00  0.00    +0.000 OA
ATOM     20  H   UNL     1       0.688   2.121  22.692  0.00  0.00    +0.000 HD
ENDBRANCH  18  19
ENDBRANCH  17  18
ENDBRANCH  16  17
BRANCH  16  21
ATOM     21  C   UNL     1       2.533   2.918  18.780  0.00  0.00    +0.000 C 
BRANCH  21  22
ATOM     22  C   UNL     1       3.523   1.760  18.569  0.00  0.00    +0.000 C 
BRANCH  22  23
ATOM     23  O   UNL     1       4.604   1.849  19.497  0.00  0.00    +0.000 OA
ATOM     24  H   UNL     1       5.409   1.783  18.948  0.00  0.00    +0.000 HD
ENDBRANCH  22  23
ENDBRANCH  21  22
ENDBRANCH  16  21
ENDBRANCH   6  16
TORSDOF 14
ENDMDL
MODEL 2
REMARK VINA RESULT:      -5.7      0.379      5.379
REMARK  Name = 
REMARK  14 active torsions:
REMARK  status: ('A' for Active; 'I' for Inactive)
REMARK    1  A    between atoms: O_1  and  C_2
REMARK    2  A    between atoms: C_2  and  C_3
REMARK    3  A    between atoms: C_3  and  N_4
REMARK    4  A    between atoms: N_4  and  C_5
REMARK    5  A    between atoms: N_4  and  C_8
REMARK    6  A    between atoms: C_5  and  C_6
REMARK    7  A    between atoms: C_6  and  O_7
REMARK    8  A    between atoms: C_13  and  N_14
REMARK    9  A    between atoms: N_14  and  C_15
REMARK   10  A    between atoms: N_14  and  C_18
REMARK   11  A    between atoms: C_15  and  C_16
REMARK   12  A    between atoms: C_16  and  O_17
REMARK   13  A    between atoms: C_18  and  C_19
REMARK   14  A    between atoms: C_19  and  O_20
REMARK                            x       y       z     vdW  Elec       q    Type
REMARK                         _______ _______ _______ _____ _____    ______ ____
ROOT
ATOM      1  C   UNL     1       3.336   5.218  18.784  0.00  0.00    +0.000 A 
ATOM      2  C   UNL     1       2.333   6.218  18.970  0.00  0.00    +0.000 A 
ATOM      3  C   UNL     1       2.368   7.464  18.345  0.00  0.00    +0.000 A 
ATOM      4  C   UNL     1       3.428   7.774  17.526  0.00  0.00    +0.000 A 
ATOM      5  C   UNL     1       4.430   6.823  17.324  0.00  0.00    +0.000 A 
ATOM      6  C   UNL     1       4.414   5.524  17.882  0.00  0.00    +0.000 A 
ENDROOT
BRANCH   1   7
ATOM      7  N   UNL     1       3.198   3.983  19.478  0.00  0.00    +0.000 N 
BRANCH   7   8
ATOM      8  C   UNL     1       2.677   4.036  20.876  0.00  0.00    +0.000 C 
BRANCH   8   9
ATOM      9  C   UNL     1       1.423   3.175  21.080  0.00  0.00    +0.000 C 
BRANCH   9  10
ATOM     10  O   UNL     1       1.545   2.414  22.284  0.00  0.00    +0.000 OA
ATOM     11  H   UNL     1       2.056   2.960  22.907  0.00  0.00    +0.000 HD
ENDBRANCH   9  10
ENDBRANCH   8   9
ENDBRANCH   7   8
BRANCH   7  12
ATOM     12  C   UNL     1       2.575   2.910  18.660  0.00  0.00    +0.000 C 
BRANCH  12  13
ATOM     13  C   UNL     1       3.461   1.686  18.374  0.00  0.00    +0.000 C 
BRANCH  13  14
ATOM     14  O   UNL     1       4.549   1.556  19.287  0.00  0.00    +0.000 OA
ATOM     15  H   UNL     1       5.195   0.944  18.894  0.00  0.00    +0.000 HD
ENDBRANCH  13  14
ENDBRANCH  12  13
ENDBRANCH   7  12
ENDBRANCH   1   7
BRANCH   6  16
ATOM     16  N   UNL     1       5.510   4.683  17.492  0.00  0.00    +0.000 N 
BRANCH  16  17
ATOM     17  C   UNL     1       5.323   3.903  16.239  0.00  0.00    +0.000 C 
BRANCH  17  18
ATOM     18  C   UNL     1       6.242   4.381  15.091  0.00  0.00    +0.000 C 
BRANCH  18  19
ATOM     19  O   UNL     1       6.334   3.430  14.037  0.00  0.00    +0.000 OA
ATOM     20  H   UNL     1       5.470   3.446  13.589  0.00  0.00    +0.000 HD
ENDBRANCH  18  19
ENDBRANCH  17  18
ENDBRANCH  16  17
BRANCH  16  21
ATOM     21  C   UNL     1       6.829   5.384  17.606  0.00  0.00    +0.000 C 
BRANCH  21  22
ATOM     22  C   UNL     1       7.363   5.485  19.045  0.00  0.00    +0.000 C 
BRANCH  22  23
ATOM     23  O   UNL     1       8.279   6.574  19.165  0.00  0.00    +0.000 OA
ATOM     24  H   UNL     1       7.935   7.108  19.906  0.00  0.00    +0.000 HD
ENDBRANCH  22  23
ENDBRANCH  21  22
ENDBRANCH  16  21
ENDBRANCH   6  16
TORSDOF 14
ENDMDL
MODEL 3
REMARK VINA RESULT:      -5.7      1.358      1.965
REMARK  Name = 
REMARK  14 active torsions:
REMARK  status: ('A' for Active; 'I' for Inactive)
REMARK    1  A    between atoms: O_1  and  C_2
REMARK    2  A    between atoms: C_2  and  C_3
REMARK    3  A    between atoms: C_3  and  N_4
REMARK    4  A    between atoms: N_4  and  C_5
REMARK    5  A    between atoms: N_4  and  C_8
REMARK    6  A    between atoms: C_5  and  C_6
REMARK    7  A    between atoms: C_6  and  O_7
REMARK    8  A    between atoms: C_13  and  N_14
REMARK    9  A    between atoms: N_14  and  C_15
REMARK   10  A    between atoms: N_14  and  C_18
REMARK   11  A    between atoms: C_15  and  C_16
REMARK   12  A    between atoms: C_16  and  O_17
REMARK   13  A    between atoms: C_18  and  C_19
REMARK   14  A    between atoms: C_19  and  O_20
REMARK                            x       y       z     vdW  Elec       q    Type
REMARK                         _______ _______ _______ _____ _____    ______ ____
ROOT
ATOM      1  C   UNL     1       4.257   5.654  17.364  0.00  0.00    +0.000 A 
ATOM      2  C   UNL     1       4.201   7.074  17.203  0.00  0.00    +0.000 A 
ATOM      3  C   UNL     1       3.234   7.875  17.807  0.00  0.00    +0.000 A 
ATOM      4  C   UNL     1       2.260   7.285  18.578  0.00  0.00    +0.000 A 
ATOM      5  C   UNL     1       2.280   5.901  18.754  0.00  0.00    +0.000 A 
ATOM      6  C   UNL     1       3.271   5.047  18.217  0.00  0.00    +0.000 A 
ENDROOT
BRANCH   1   7
ATOM      7  N   UNL     1       5.289   4.938  16.694  0.00  0.00    +0.000 N 
BRANCH   7   8
ATOM      8  C   UNL     1       5.793   5.503  15.408  0.00  0.00    +0.000 C 
BRANCH   8   9
ATOM      9  C   UNL     1       6.885   4.638  14.762  0.00  0.00    +0.000 C 
BRANCH   9  10
ATOM     10  O   UNL     1       7.840   5.472  14.101  0.00  0.00    +0.000 OA
ATOM     11  H   UNL     1       8.018   6.218  14.700  0.00  0.00    +0.000 HD
ENDBRANCH   9  10
ENDBRANCH   8   9
ENDBRANCH   7   8
BRANCH   7  12
ATOM     12  C   UNL     1       6.375   4.480  17.599  0.00  0.00    +0.000 C 
BRANCH  12  13
ATOM     13  C   UNL     1       7.034   5.569  18.461  0.00  0.00    +0.000 C 
BRANCH  13  14
ATOM     14  O   UNL     1       6.898   5.334  19.861  0.00  0.00    +0.000 OA
ATOM     15  H   UNL     1       6.835   6.198  20.303  0.00  0.00    +0.000 HD
ENDBRANCH  13  14
ENDBRANCH  12  13
ENDBRANCH   7  12
ENDBRANCH   1   7
BRANCH   6  16
ATOM     16  N   UNL     1       3.140   3.663  18.575  0.00  0.00    +0.000 N 
BRANCH  16  17
ATOM     17  C   UNL     1       3.671   3.280  19.911  0.00  0.00    +0.000 C 
BRANCH  17  18
ATOM     18  C   UNL     1       4.580   2.031  19.859  0.00  0.00    +0.000 C 
BRANCH  18  19
ATOM     19  O   UNL     1       5.184   1.745  21.115  0.00  0.00    +0.000 OA
ATOM     20  H   UNL     1       5.042   0.794  21.268  0.00  0.00    +0.000 HD
ENDBRANCH  18  19
ENDBRANCH  17  18
ENDBRANCH  16  17
BRANCH  16  21
ATOM     21  C   UNL     1       1.778   3.125  18.260  0.00  0.00    +0.000 C 
BRANCH  21  22
ATOM     22  C   UNL     1       1.112   2.380  19.430  0.00  0.00    +0.000 C 
BRANCH  22  23
ATOM     23  O   UNL     1       0.334   3.280  20.219  0.00  0.00    +0.000 OA
ATOM     24  H   UNL     1      -0.115   2.712  20.875  0.00  0.00    +0.000 HD
ENDBRANCH  22  23
ENDBRANCH  21  22
ENDBRANCH  16  21
ENDBRANCH   6  16
TORSDOF 14
ENDMDL
MODEL 4
REMARK VINA RESULT:      -5.6      1.378      4.970
REMARK  Name = 
REMARK  14 active torsions:
REMARK  status: ('A' for Active; 'I' for Inactive)
REMARK    1  A    between atoms: O_1  and  C_2
REMARK    2  A    between atoms: C_2  and  C_3
REMARK    3  A    between atoms: C_3  and  N_4
REMARK    4  A    between atoms: N_4  and  C_5
REMARK    5  A    between atoms: N_4  and  C_8
REMARK    6  A    between atoms: C_5  and  C_6
REMARK    7  A    between atoms: C_6  and  O_7
REMARK    8  A    between atoms: C_13  and  N_14
REMARK    9  A    between atoms: N_14  and  C_15
REMARK   10  A    between atoms: N_14  and  C_18
REMARK   11  A    between atoms: C_15  and  C_16
REMARK   12  A    between atoms: C_16  and  O_17
REMARK   13  A    between atoms: C_18  and  C_19
REMARK   14  A    between atoms: C_19  and  O_20
REMARK                            x       y       z     vdW  Elec       q    Type
REMARK                         _______ _______ _______ _____ _____    ______ ____
ROOT
ATOM      1  C   UNL     1       3.480   4.959  18.271  0.00  0.00    +0.000 A 
ATOM      2  C   UNL     1       2.319   5.760  18.505  0.00  0.00    +0.000 A 
ATOM      3  C   UNL     1       2.234   7.106  18.150  0.00  0.00    +0.000 A 
ATOM      4  C   UNL     1       3.322   7.717  17.571  0.00  0.00    +0.000 A 
ATOM      5  C   UNL     1       4.474   6.967  17.333  0.00  0.00    +0.000 A 
ATOM      6  C   UNL     1       4.594   5.586  17.614  0.00  0.00    +0.000 A 
ENDROOT
BRANCH   1   7
ATOM      7  N   UNL     1       3.453   3.595  18.680  0.00  0.00    +0.000 N 
BRANCH   7   8
ATOM      8  C   UNL     1       3.271   3.319  20.136  0.00  0.00    +0.000 C 
BRANCH   8   9
ATOM      9  C   UNL     1       4.317   2.344  20.695  0.00  0.00    +0.000 C 
BRANCH   9  10
ATOM     10  O   UNL     1       5.051   1.749  19.622  0.00  0.00    +0.000 OA
ATOM     11  H   UNL     1       4.394   1.382  19.006  0.00  0.00    +0.000 HD
ENDBRANCH   9  10
ENDBRANCH   8   9
ENDBRANCH   7   8
BRANCH   7  12
ATOM     12  C   UNL     1       2.615   2.732  17.809  0.00  0.00    +0.000 C 
BRANCH  12  13
ATOM     13  C   UNL     1       1.542   1.896  18.527  0.00  0.00    +0.000 C 
BRANCH  13  14
ATOM     14  O   UNL     1       0.251   2.501  18.504  0.00  0.00    +0.000 OA
ATOM     15  H   UNL     1       0.246   3.218  19.162  0.00  0.00    +0.000 HD
ENDBRANCH  13  14
ENDBRANCH  12  13
ENDBRANCH   7  12
ENDBRANCH   1   7
BRANCH   6  16
ATOM     16  N   UNL     1       5.845   4.995  17.228  0.00  0.00    +0.000 N 
BRANCH  16  17
ATOM     17  C   UNL     1       6.718   4.529  18.339  0.00  0.00    +0.000 C 
BRANCH  17  18
ATOM     18  C   UNL     1       7.633   5.645  18.892  0.00  0.00    +0.000 C 
BRANCH  18  19
ATOM     19  O   UNL     1       7.825   5.545  20.298  0.00  0.00    +0.000 OA
ATOM     20  H   UNL     1       7.057   5.985  20.703  0.00  0.00    +0.000 HD
ENDBRANCH  18  19
ENDBRANCH  17  18
ENDBRANCH  16  17
BRANCH  16  21
ATOM     21  C   UNL     1       5.685   4.021  16.101  0.00  0.00    +0.000 C 
BRANCH  21  22
ATOM     22  C   UNL     1       6.392   4.444  14.802  0.00  0.00    +0.000 C 
BRANCH  22  23
ATOM     23  O   UNL     1       7.427   5.387  15.079  0.00  0.00    +0.000 OA
ATOM     24  H   UNL     1       6.972   6.138  15.505  0.00  0.00    +0.000 HD
ENDBRANCH  22  23
ENDBRANCH  21  22
ENDBRANCH  16  21
ENDBRANCH   6  16
TORSDOF 14
ENDMDL
MODEL 5
REMARK VINA RESULT:      -5.6      0.974      5.200
REMARK  Name = 
REMARK  14 active torsions:
REMARK  status: ('A' for Active; 'I' for Inactive)
REMARK    1  A    between atoms: O_1  and  C_2
REMARK    2  A    between atoms: C_2  and  C_3
REMARK    3  A    between atoms: C_3  and  N_4
REMARK    4  A    between atoms: N_4  and  C_5
REMARK    5  A    between atoms: N_4  and  C_8
REMARK    6  A    between atoms: C_5  and  C_6
REMARK    7  A    between atoms: C_6  and  O_7
REMARK    8  A    between atoms: C_13  and  N_14
REMARK    9  A    between atoms: N_14  and  C_15
REMARK   10  A    between atoms: N_14  and  C_18
REMARK   11  A    between atoms: C_15  and  C_16
REMARK   12  A    between atoms: C_16  and  O_17
REMARK   13  A    between atoms: C_18  and  C_19
REMARK   14  A    between atoms: C_19  and  O_20
REMARK                            x       y       z     vdW  Elec       q    Type
REMARK                         _______ _______ _______ _____ _____    ______ ____
ROOT
ATOM      1  C   UNL     1       3.011   5.490  18.851  0.00  0.00    +0.000 A 
ATOM      2  C   UNL     1       2.059   6.475  19.260  0.00  0.00    +0.000 A 
ATOM      3  C   UNL     1       2.037   7.775  18.755  0.00  0.00    +0.000 A 
ATOM      4  C   UNL     1       2.988   8.154  17.837  0.00  0.00    +0.000 A 
ATOM      5  C   UNL     1       3.937   7.220  17.418  0.00  0.00    +0.000 A 
ATOM      6  C   UNL     1       3.968   5.874  17.849  0.00  0.00    +0.000 A 
ENDROOT
BRANCH   1   7
ATOM      7  N   UNL     1       2.939   4.196  19.439  0.00  0.00    +0.000 N 
BRANCH   7   8
ATOM      8  C   UNL     1       2.502   4.112  20.864  0.00  0.00    +0.000 C 
BRANCH   8   9
ATOM      9  C   UNL     1       1.295   3.188  21.066  0.00  0.00    +0.000 C 
BRANCH   9  10
ATOM     10  O   UNL     1       1.560   2.263  22.123  0.00  0.00    +0.000 OA
ATOM     11  H   UNL     1       2.453   1.910  21.966  0.00  0.00    +0.000 HD
ENDBRANCH   9  10
ENDBRANCH   8   9
ENDBRANCH   7   8
BRANCH   7  12
ATOM     12  C   UNL     1       2.290   3.184  18.566  0.00  0.00    +0.000 C 
BRANCH  12  13
ATOM     13  C   UNL     1       3.166   1.985  18.165  0.00  0.00    +0.000 C 
BRANCH  13  14
ATOM     14  O   UNL     1       4.384   1.909  18.902  0.00  0.00    +0.000 OA
ATOM     15  H   UNL     1       5.082   1.610  18.294  0.00  0.00    +0.000 HD
ENDBRANCH  13  14
ENDBRANCH  12  13
ENDBRANCH   7  12
ENDBRANCH   1   7
BRANCH   6  16
ATOM     16  N   UNL     1       4.989   5.066  17.242  0.00  0.00    +0.000 N 
BRANCH  16  17
ATOM     17  C   UNL     1       5.463   5.508  15.903  0.00  0.00    +0.000 C 
BRANCH  17  18
ATOM     18  C   UNL     1       5.373   4.393  14.836  0.00  0.00    +0.000 C 
BRANCH  18  19
ATOM     19  O   UNL     1       6.294   3.335  15.077  0.00  0.00    +0.000 OA
ATOM     20  H   UNL     1       6.859   3.290  14.286  0.00  0.00    +0.000 HD
ENDBRANCH  18  19
ENDBRANCH  17  18
ENDBRANCH  16  17
BRANCH  16  21
ATOM     21  C   UNL     1       6.076   4.708  18.209  0.00  0.00    +0.000 C 
BRANCH  21  22
ATOM     22  C   UNL     1       7.482   5.141  17.760  0.00  0.00    +0.000 C 
BRANCH  22  23
ATOM     23  O   UNL     1       8.233   4.014  17.308  0.00  0.00    +0.000 OA
ATOM     24  H   UNL     1       8.150   3.356  18.025  0.00  0.00    +0.000 HD
ENDBRANCH  22  23
ENDBRANCH  21  22
ENDBRANCH  16  21
ENDBRANCH   6  16
TORSDOF 14
ENDMDL
MODEL 6
REMARK VINA RESULT:      -5.6      2.538      4.815
REMARK  Name = 
REMARK  14 active torsions:
REMARK  status: ('A' for Active; 'I' for Inactive)
REMARK    1  A    between atoms: O_1  and  C_2
REMARK    2  A    between atoms: C_2  and  C_3
REMARK    3  A    between atoms: C_3  and  N_4
REMARK    4  A    between atoms: N_4  and  C_5
REMARK    5  A    between atoms: N_4  and  C_8
REMARK    6  A    between atoms: C_5  and  C_6
REMARK    7  A    between atoms: C_6  and  O_7
REMARK    8  A    between atoms: C_13  and  N_14
REMARK    9  A    between atoms: N_14  and  C_15
REMARK   10  A    between atoms: N_14  and  C_18
REMARK   11  A    between atoms: C_15  and  C_16
REMARK   12  A    between atoms: C_16  and  O_17
REMARK   13  A    between atoms: C_18  and  C_19
REMARK   14  A    between atoms: C_19  and  O_20
REMARK                            x       y       z     vdW  Elec       q    Type
REMARK                         _______ _______ _______ _____ _____    ______ ____
ROOT
ATOM      1  C   UNL     1       3.826   4.331  17.483  0.00  0.00    +0.000 A 
ATOM      2  C   UNL     1       4.765   3.705  16.605  0.00  0.00    +0.000 A 
ATOM      3  C   UNL     1       5.611   4.417  15.756  0.00  0.00    +0.000 A 
ATOM      4  C   UNL     1       5.533   5.790  15.728  0.00  0.00    +0.000 A 
ATOM      5  C   UNL     1       4.624   6.435  16.568  0.00  0.00    +0.000 A 
ATOM      6  C   UNL     1       3.787   5.768  17.493  0.00  0.00    +0.000 A 
ENDROOT
BRANCH   1   7
ATOM      7  N   UNL     1       3.010   3.501  18.303  0.00  0.00    +0.000 N 
BRANCH   7   8
ATOM      8  C   UNL     1       1.595   3.293  17.877  0.00  0.00    +0.000 C 
BRANCH   8   9
ATOM      9  C   UNL     1       0.859   2.252  18.730  0.00  0.00    +0.000 C 
BRANCH   9  10
ATOM     10  O   UNL     1       0.096   2.905  19.747  0.00  0.00    +0.000 OA
ATOM     11  H   UNL     1       0.640   3.646  20.069  0.00  0.00    +0.000 HD
ENDBRANCH   9  10
ENDBRANCH   8   9
ENDBRANCH   7   8
BRANCH   7  12
ATOM     12  C   UNL     1       3.683   2.248  18.733  0.00  0.00    +0.000 C 
BRANCH  12  13
ATOM     13  C   UNL     1       4.365   2.292  20.110  0.00  0.00    +0.000 C 
BRANCH  13  14
ATOM     14  O   UNL     1       5.355   1.280  20.278  0.00  0.00    +0.000 OA
ATOM     15  H   UNL     1       5.435   0.799  19.436  0.00  0.00    +0.000 HD
ENDBRANCH  13  14
ENDBRANCH  12  13
ENDBRANCH   7  12
ENDBRANCH   1   7
BRANCH   6  16
ATOM     16  N   UNL     1       2.976   6.628  18.307  0.00  0.00    +0.000 N 
BRANCH  16  17
ATOM     17  C   UNL     1       3.085   6.431  19.777  0.00  0.00    +0.000 C 
BRANCH  17  18
ATOM     18  C   UNL     1       1.756   5.973  20.422  0.00  0.00    +0.000 C 
BRANCH  18  19
ATOM     19  O   UNL     1       1.902   4.776  21.176  0.00  0.00    +0.000 OA
ATOM     20  H   UNL     1       1.316   4.124  20.753  0.00  0.00    +0.000 HD
ENDBRANCH  18  19
ENDBRANCH  17  18
ENDBRANCH  16  17
BRANCH  16  21
ATOM     21  C   UNL     1       3.037   8.056  17.856  0.00  0.00    +0.000 C 
BRANCH  21  22
ATOM     22  C   UNL     1       1.685   8.787  17.902  0.00  0.00    +0.000 C 
BRANCH  22  23
ATOM     23  O   UNL     1       1.818  10.120  17.410  0.00  0.00    +0.000 OA
ATOM     24  H   UNL     1       2.774  10.230  17.243  0.00  0.00    +0.000 HD
ENDBRANCH  22  23
ENDBRANCH  21  22
ENDBRANCH  16  21
ENDBRANCH   6  16
TORSDOF 14
ENDMDL
MODEL 7
REMARK VINA RESULT:      -5.6      1.363      5.374
REMARK  Name = 
REMARK  14 active torsions:
REMARK  status: ('A' for Active; 'I' for Inactive)
REMARK    1  A    between atoms: O_1  and  C_2
REMARK    2  A    between atoms: C_2  and  C_3
REMARK    3  A    between atoms: C_3  and  N_4
REMARK    4  A    between atoms: N_4  and  C_5
REMARK    5  A    between atoms: N_4  and  C_8
REMARK    6  A    between atoms: C_5  and  C_6
REMARK    7  A    between atoms: C_6  and  O_7
REMARK    8  A    between atoms: C_13  and  N_14
REMARK    9  A    between atoms: N_14  and  C_15
REMARK   10  A    between atoms: N_14  and  C_18
REMARK   11  A    between atoms: C_15  and  C_16
REMARK   12  A    between atoms: C_16  and  O_17
REMARK   13  A    between atoms: C_18  and  C_19
REMARK   14  A    between atoms: C_19  and  O_20
REMARK                            x       y       z     vdW  Elec       q    Type
REMARK                         _______ _______ _______ _____ _____    ______ ____
ROOT
ATOM      1  C   UNL     1       3.250   5.052  18.086  0.00  0.00    +0.000 A 
ATOM      2  C   UNL     1       2.289   5.981  18.593  0.00  0.00    +0.000 A 
ATOM      3  C   UNL     1       2.358   7.355  18.364  0.00  0.00    +0.000 A 
ATOM      4  C   UNL     1       3.410   7.863  17.639  0.00  0.00    +0.000 A 
ATOM      5  C   UNL     1       4.371   6.986  17.133  0.00  0.00    +0.000 A 
ATOM      6  C   UNL     1       4.318   5.581  17.281  0.00  0.00    +0.000 A 
ENDROOT
BRANCH   1   7
ATOM      7  N   UNL     1       3.080   3.672  18.387  0.00  0.00    +0.000 N 
BRANCH   7   8
ATOM      8  C   UNL     1       3.738   3.152  19.622  0.00  0.00    +0.000 C 
BRANCH   8   9
ATOM      9  C   UNL     1       4.503   1.843  19.386  0.00  0.00    +0.000 C 
BRANCH   9  10
ATOM     10  O   UNL     1       5.327   1.549  20.517  0.00  0.00    +0.000 OA
ATOM     11  H   UNL     1       6.228   1.836  20.285  0.00  0.00    +0.000 HD
ENDBRANCH   9  10
ENDBRANCH   8   9
ENDBRANCH   7   8
BRANCH   7  12
ATOM     12  C   UNL     1       1.682   3.197  18.224  0.00  0.00    +0.000 C 
BRANCH  12  13
ATOM     13  C   UNL     1       1.027   2.598  19.479  0.00  0.00    +0.000 C 
BRANCH  13  14
ATOM     14  O   UNL     1       0.306   3.558  20.249  0.00  0.00    +0.000 OA
ATOM     15  H   UNL     1       0.876   4.339  20.358  0.00  0.00    +0.000 HD
ENDBRANCH  13  14
ENDBRANCH  12  13
ENDBRANCH   7  12
ENDBRANCH   1   7
BRANCH   6  16
ATOM     16  N   UNL     1       5.373   4.862  16.624  0.00  0.00    +0.000 N 
BRANCH  16  17
ATOM     17  C   UNL     1       5.817   5.405  15.312  0.00  0.00    +0.000 C 
BRANCH  17  18
ATOM     18  C   UNL     1       7.074   4.692  14.762  0.00  0.00    +0.000 C 
BRANCH  18  19
ATOM     19  O   UNL     1       7.861   5.540  13.934  0.00  0.00    +0.000 OA
ATOM     20  H   UNL     1       8.199   4.973  13.218  0.00  0.00    +0.000 HD
ENDBRANCH  18  19
ENDBRANCH  17  18
ENDBRANCH  16  17
BRANCH  16  21
ATOM     21  C   UNL     1       6.482   4.500  17.564  0.00  0.00    +0.000 C 
BRANCH  21  22
ATOM     22  C   UNL     1       6.961   5.666  18.446  0.00  0.00    +0.000 C 
BRANCH  22  23
ATOM     23  O   UNL     1       6.838   5.334  19.828  0.00  0.00    +0.000 OA
ATOM     24  H   UNL     1       7.044   6.161  20.304  0.00  0.00    +0.000 HD
ENDBRANCH  22  23
ENDBRANCH  21  22
ENDBRANCH  16  21
ENDBRANCH   6  16
TORSDOF 14
ENDMDL
MODEL 8
REMARK VINA RESULT:      -5.5      1.186      1.263
REMARK  Name = 
REMARK  14 active torsions:
REMARK  status: ('A' for Active; 'I' for Inactive)
REMARK    1  A    between atoms: O_1  and  C_2
REMARK    2  A    between atoms: C_2  and  C_3
REMARK    3  A    between atoms: C_3  and  N_4
REMARK    4  A    between atoms: N_4  and  C_5
REMARK    5  A    between atoms: N_4  and  C_8
REMARK    6  A    between atoms: C_5  and  C_6
REMARK    7  A    between atoms: C_6  and  O_7
REMARK    8  A    between atoms: C_13  and  N_14
REMARK    9  A    between atoms: N_14  and  C_15
REMARK   10  A    between atoms: N_14  and  C_18
REMARK   11  A    between atoms: C_15  and  C_16
REMARK   12  A    between atoms: C_16  and  O_17
REMARK   13  A    between atoms: C_18  and  C_19
REMARK   14  A    between atoms: C_19  and  O_20
REMARK                            x       y       z     vdW  Elec       q    Type
REMARK                         _______ _______ _______ _____ _____    ______ ____
ROOT
ATOM      1  C   UNL     1       4.545   5.856  17.828  0.00  0.00    +0.000 A 
ATOM      2  C   UNL     1       4.509   7.232  17.442  0.00  0.00    +0.000 A 
ATOM      3  C   UNL     1       3.345   8.000  17.456  0.00  0.00    +0.000 A 
ATOM      4  C   UNL     1       2.159   7.414  17.831  0.00  0.00    +0.000 A 
ATOM      5  C   UNL     1       2.156   6.071  18.209  0.00  0.00    +0.000 A 
ATOM      6  C   UNL     1       3.314   5.262  18.274  0.00  0.00    +0.000 A 
ENDROOT
BRANCH   1   7
ATOM      7  N   UNL     1       5.791   5.170  17.770  0.00  0.00    +0.000 N 
BRANCH   7   8
ATOM      8  C   UNL     1       6.784   5.635  16.757  0.00  0.00    +0.000 C 
BRANCH   8   9
ATOM      9  C   UNL     1       6.939   4.660  15.582  0.00  0.00    +0.000 C 
BRANCH   9  10
ATOM     10  O   UNL     1       7.644   5.294  14.511  0.00  0.00    +0.000 OA
ATOM     11  H   UNL     1       8.592   5.209  14.714  0.00  0.00    +0.000 HD
ENDBRANCH   9  10
ENDBRANCH   8   9
ENDBRANCH   7   8
BRANCH   7  12
ATOM     12  C   UNL     1       6.391   4.917  19.105  0.00  0.00    +0.000 C 
BRANCH  12  13
ATOM     13  C   UNL     1       7.713   5.647  19.396  0.00  0.00    +0.000 C 
BRANCH  13  14
ATOM     14  O   UNL     1       8.223   5.385  20.701  0.00  0.00    +0.000 OA
ATOM     15  H   UNL     1       8.307   6.236  21.165  0.00  0.00    +0.000 HD
ENDBRANCH  13  14
ENDBRANCH  12  13
ENDBRANCH   7  12
ENDBRANCH   1   7
BRANCH   6  16
ATOM     16  N   UNL     1       3.095   3.927  18.754  0.00  0.00    +0.000 N 
BRANCH  16  17
ATOM     17  C   UNL     1       1.898   3.728  19.614  0.00  0.00    +0.000 C 
BRANCH  17  18
ATOM     18  C   UNL     1       2.224   3.803  21.123  0.00  0.00    +0.000 C 
BRANCH  18  19
ATOM     19  O   UNL     1       2.407   5.139  21.575  0.00  0.00    +0.000 OA
ATOM     20  H   UNL     1       1.522   5.545  21.566  0.00  0.00    +0.000 HD
ENDBRANCH  18  19
ENDBRANCH  17  18
ENDBRANCH  16  17
BRANCH  16  21
ATOM     21  C   UNL     1       3.272   2.903  17.674  0.00  0.00    +0.000 C 
BRANCH  21  22
ATOM     22  C   UNL     1       3.643   1.503  18.193  0.00  0.00    +0.000 C 
BRANCH  22  23
ATOM     23  O   UNL     1       4.613   1.595  19.236  0.00  0.00    +0.000 OA
ATOM     24  H   UNL     1       4.397   2.424  19.705  0.00  0.00    +0.000 HD
ENDBRANCH  22  23
ENDBRANCH  21  22
ENDBRANCH  16  21
ENDBRANCH   6  16
TORSDOF 14
ENDMDL
MODEL 9
REMARK VINA RESULT:      -5.5      0.837      5.040
REMARK  Name = 
REMARK  14 active torsions:
REMARK  status: ('A' for Active; 'I' for Inactive)
REMARK    1  A    between atoms: O_1  and  C_2
REMARK    2  A    between atoms: C_2  and  C_3
REMARK    3  A    between atoms: C_3  and  N_4
REMARK    4  A    between atoms: N_4  and  C_5
REMARK    5  A    between atoms: N_4  and  C_8
REMARK    6  A    between atoms: C_5  and  C_6
REMARK    7  A    between atoms: C_6  and  O_7
REMARK    8  A    between atoms: C_13  and  N_14
REMARK    9  A    between atoms: N_14  and  C_15
REMARK   10  A    between atoms: N_14  and  C_18
REMARK   11  A    between atoms: C_15  and  C_16
REMARK   12  A    between atoms: C_16  and  O_17
REMARK   13  A    between atoms: C_18  and  C_19
REMARK   14  A    between atoms: C_19  and  O_20
REMARK                            x       y       z     vdW  Elec       q    Type
REMARK                         _______ _______ _______ _____ _____    ______ ____
ROOT
ATOM      1  C   UNL     1       3.317   5.364  18.582  0.00  0.00    +0.000 A 
ATOM      2  C   UNL     1       2.192   6.230  18.745  0.00  0.00    +0.000 A 
ATOM      3  C   UNL     1       2.148   7.530  18.243  0.00  0.00    +0.000 A 
ATOM      4  C   UNL     1       3.243   8.030  17.578  0.00  0.00    +0.000 A 
ATOM      5  C   UNL     1       4.362   7.214  17.404  0.00  0.00    +0.000 A 
ATOM      6  C   UNL     1       4.438   5.870  17.837  0.00  0.00    +0.000 A 
ENDROOT
BRANCH   1   7
ATOM      7  N   UNL     1       3.251   4.057  19.141  0.00  0.00    +0.000 N 
BRANCH   7   8
ATOM      8  C   UNL     1       3.013   3.950  20.611  0.00  0.00    +0.000 C 
BRANCH   8   9
ATOM      9  C   UNL     1       1.574   3.546  20.957  0.00  0.00    +0.000 C 
BRANCH   9  10
ATOM     10  O   UNL     1       1.575   2.629  22.054  0.00  0.00    +0.000 OA
ATOM     11  H   UNL     1       2.248   1.956  21.852  0.00  0.00    +0.000 HD
ENDBRANCH   9  10
ENDBRANCH   8   9
ENDBRANCH   7   8
BRANCH   7  12
ATOM     12  C   UNL     1       2.426   3.112  18.345  0.00  0.00    +0.000 C 
BRANCH  12  13
ATOM     13  C   UNL     1       2.865   1.639  18.387  0.00  0.00    +0.000 C 
BRANCH  13  14
ATOM     14  O   UNL     1       4.211   1.442  17.959  0.00  0.00    +0.000 OA
ATOM     15  H   UNL     1       4.693   2.275  18.100  0.00  0.00    +0.000 HD
ENDBRANCH  13  14
ENDBRANCH  12  13
ENDBRANCH   7  12
ENDBRANCH   1   7
BRANCH   6  16
ATOM     16  N   UNL     1       5.657   5.191  17.496  0.00  0.00    +0.000 N 
BRANCH  16  17
ATOM     17  C   UNL     1       6.459   4.676  18.638  0.00  0.00    +0.000 C 
BRANCH  17  18
ATOM     18  C   UNL     1       7.527   5.682  19.123  0.00  0.00    +0.000 C 
BRANCH  18  19
ATOM     19  O   UNL     1       7.929   5.443  20.467  0.00  0.00    +0.000 OA
ATOM     20  H   UNL     1       7.953   4.475  20.568  0.00  0.00    +0.000 HD
ENDBRANCH  18  19
ENDBRANCH  17  18
ENDBRANCH  16  17
BRANCH  16  21
ATOM     21  C   UNL     1       5.468   4.221  16.370  0.00  0.00    +0.000 C 
BRANCH  21  22
ATOM     22  C   UNL     1       6.141   4.648  15.055  0.00  0.00    +0.000 C 
BRANCH  22  23
ATOM     23  O   UNL     1       7.318   5.412  15.319  0.00  0.00    +0.000 OA
ATOM     24  H   UNL     1       7.977   5.083  14.678  0.00  0.00    +0.000 HD
ENDBRANCH  22  23
ENDBRANCH  21  22
ENDBRANCH  16  21
ENDBRANCH   6  16
TORSDOF 14
ENDMDL
