MODEL 1
REMARK VINA RESULT:      -8.5      0.000      0.000
REMARK  Name = 
REMARK  12 active torsions:
REMARK  status: ('A' for Active; 'I' for Inactive)
REMARK    1  A    between atoms: C_1  and  C_2
REMARK    2  A    between atoms: C_2  and  C_3
REMARK    3  A    between atoms: C_2  and  C_4
REMARK    4  A    between atoms: C_2  and  N_5
REMARK    5  A    between atoms: N_5  and  S_6
REMARK    6  A    between atoms: S_6  and  C_9
REMARK    7  A    between atoms: C_12  and  N_13
REMARK    8  A    between atoms: C_14  and  C_16
REMARK    9  A    between atoms: C_16  and  C_17
REMARK   10  A    between atoms: C_16  and  N_24
REMARK   11  A    between atoms: C_17  and  C_18
REMARK   12  A    between atoms: C_25  and  C_27
REMARK                            x       y       z     vdW  Elec       q    Type
REMARK                         _______ _______ _______ _____ _____    ______ ____
ROOT
ATOM      1  N   UNL     1       0.803   8.811  20.286  0.00  0.00    +0.000 N 
ATOM      2  C   UNL     1       0.933   9.555  21.453  0.00  0.00    +0.000 C 
ATOM      3  O   UNL     1       1.731   9.338  22.368  0.00  0.00    +0.000 OA
ATOM      4  H   UNL     1       0.084   9.085  19.626  0.00  0.00    +0.000 HD
ENDROOT
BRANCH   1   8
ATOM      5  C   UNL     1       3.341   5.683  19.072  0.00  0.00    +0.000 A 
ATOM      6  C   UNL     1       2.627   5.553  20.259  0.00  0.00    +0.000 A 
ATOM      7  C   UNL     1       1.769   6.568  20.660  0.00  0.00    +0.000 A 
ATOM      8  C   UNL     1       1.626   7.733  19.897  0.00  0.00    +0.000 A 
ATOM      9  C   UNL     1       2.351   7.856  18.703  0.00  0.00    +0.000 A 
ATOM     10  C   UNL     1       3.216   6.837  18.292  0.00  0.00    +0.000 A 
BRANCH   5  11
ATOM     11  S   UNL     1       4.490   4.418  18.604  0.00  0.00    +0.000 S 
ATOM     12  O   UNL     1       4.534   4.359  17.165  0.00  0.00    +0.000 OA
ATOM     13  O   UNL     1       4.142   3.257  19.401  0.00  0.00    +0.000 OA
BRANCH  11  14
ATOM     14  N   UNL     1       5.965   4.993  19.216  0.00  0.00    +0.000 NA
ATOM     15  H   UNL     1       5.816   5.505  20.087  0.00  0.00    +0.000 HD
BRANCH  14  17
ATOM     16  C   UNL     1       6.579   6.731  17.539  0.00  0.00    +0.000 C 
ATOM     17  C   UNL     1       7.054   5.536  18.363  0.00  0.00    +0.000 C 
ATOM     18  C   UNL     1       7.654   4.437  17.477  0.00  0.00    +0.000 C 
ATOM     19  C   UNL     1       8.172   6.021  19.310  0.00  0.00    +0.000 C 
ENDBRANCH  14  17
ENDBRANCH  11  14
ENDBRANCH   5  11
ENDBRANCH   1   8
BRANCH   2  20
ATOM     20  C   UNL     1      -0.029  10.749  21.546  0.00  0.00    +0.000 C 
BRANCH  20  21
ATOM     21  N   UNL     1      -0.951  10.638  20.418  0.00  0.00    +0.000 N 
ATOM     22  C   UNL     1      -0.861  11.439  19.307  0.00  0.00    +0.000 C 
ATOM     23  O   UNL     1      -0.033  12.333  19.189  0.00  0.00    +0.000 OA
ATOM     24  H   UNL     1      -1.472   9.765  20.367  0.00  0.00    +0.000 HD
BRANCH  22  25
ATOM     25  C   UNL     1      -1.825  11.133  18.216  0.00  0.00    +0.000 A 
ATOM     26  C   UNL     1      -3.044  11.819  18.112  0.00  0.00    +0.000 A 
ATOM     27  C   UNL     1      -3.930  11.508  17.078  0.00  0.00    +0.000 A 
ATOM     28  C   UNL     1      -3.593  10.520  16.159  0.00  0.00    +0.000 A 
ATOM     29  F   UNL     1      -4.448  10.219  15.173  0.00  0.00    +0.000 F 
ATOM     30  C   UNL     1      -2.380   9.844  16.243  0.00  0.00    +0.000 A 
ATOM     31  C   UNL     1      -1.487  10.155  17.271  0.00  0.00    +0.000 A 
ENDBRANCH  22  25
ENDBRANCH  20  21
BRANCH  20  32
ATOM     32  C   UNL     1      -0.765  10.822  22.894  0.00  0.00    +0.000 C 
BRANCH  32  33
ATOM     33  C   UNL     1      -1.569  12.079  23.124  0.00  0.00    +0.000 A 
ATOM     34  C   UNL     1      -0.996  13.354  23.060  0.00  0.00    +0.000 A 
ATOM     35  C   UNL     1      -1.788  14.480  23.264  0.00  0.00    +0.000 A 
ATOM     36  C   UNL     1      -3.132  14.296  23.529  0.00  0.00    +0.000 A 
ATOM     37  N   UNL     1      -3.722  13.085  23.610  0.00  0.00    +0.000 NA
ATOM     38  C   UNL     1      -2.930  12.009  23.407  0.00  0.00    +0.000 A 
ENDBRANCH  32  33
ENDBRANCH  20  32
ENDBRANCH   2  20
TORSDOF 9
ENDMDL
MODEL 2
REMARK VINA RESULT:      -8.3      0.926      1.722
REMARK  Name = 
REMARK  12 active torsions:
REMARK  status: ('A' for Active; 'I' for Inactive)
REMARK    1  A    between atoms: C_1  and  C_2
REMARK    2  A    between atoms: C_2  and  C_3
REMARK    3  A    between atoms: C_2  and  C_4
REMARK    4  A    between atoms: C_2  and  N_5
REMARK    5  A    between atoms: N_5  and  S_6
REMARK    6  A    between atoms: S_6  and  C_9
REMARK    7  A    between atoms: C_12  and  N_13
REMARK    8  A    between atoms: C_14  and  C_16
REMARK    9  A    between atoms: C_16  and  C_17
REMARK   10  A    between atoms: C_16  and  N_24
REMARK   11  A    between atoms: C_17  and  C_18
REMARK   12  A    between atoms: C_25  and  C_27
REMARK                            x       y       z     vdW  Elec       q    Type
REMARK                         _______ _______ _______ _____ _____    ______ ____
ROOT
ATOM      1  N   UNL     1       0.911   8.800  20.128  0.00  0.00    +0.000 N 
ATOM      2  C   UNL     1       0.967   9.545  21.301  0.00  0.00    +0.000 C 
ATOM      3  O   UNL     1       1.777   9.396  22.218  0.00  0.00    +0.000 OA
ATOM      4  H   UNL     1       0.172   9.011  19.467  0.00  0.00    +0.000 HD
ENDROOT
BRANCH   1   8
ATOM      5  C   UNL     1       3.581   5.747  19.010  0.00  0.00    +0.000 A 
ATOM      6  C   UNL     1       3.447   6.862  18.189  0.00  0.00    +0.000 A 
ATOM      7  C   UNL     1       2.585   7.887  18.558  0.00  0.00    +0.000 A 
ATOM      8  C   UNL     1       1.833   7.806  19.736  0.00  0.00    +0.000 A 
ATOM      9  C   UNL     1       1.974   6.677  20.556  0.00  0.00    +0.000 A 
ATOM     10  C   UNL     1       2.840   5.642  20.191  0.00  0.00    +0.000 A 
BRANCH   5  11
ATOM     11  S   UNL     1       4.624   4.409  18.498  0.00  0.00    +0.000 S 
ATOM     12  O   UNL     1       3.812   3.225  18.375  0.00  0.00    +0.000 OA
ATOM     13  O   UNL     1       5.777   4.451  19.377  0.00  0.00    +0.000 OA
BRANCH  11  14
ATOM     14  N   UNL     1       5.170   4.911  16.970  0.00  0.00    +0.000 NA
ATOM     15  H   UNL     1       4.697   4.387  16.232  0.00  0.00    +0.000 HD
BRANCH  14  17
ATOM     16  C   UNL     1       6.894   5.114  15.184  0.00  0.00    +0.000 C 
ATOM     17  C   UNL     1       6.585   5.250  16.673  0.00  0.00    +0.000 C 
ATOM     18  C   UNL     1       7.540   4.411  17.531  0.00  0.00    +0.000 C 
ATOM     19  C   UNL     1       6.790   6.727  17.072  0.00  0.00    +0.000 C 
ENDBRANCH  14  17
ENDBRANCH  11  14
ENDBRANCH   5  11
ENDBRANCH   1   8
BRANCH   2  20
ATOM     20  C   UNL     1      -0.103  10.643  21.397  0.00  0.00    +0.000 C 
BRANCH  20  21
ATOM     21  N   UNL     1      -0.974  10.489  20.234  0.00  0.00    +0.000 N 
ATOM     22  C   UNL     1      -1.169  11.491  19.317  0.00  0.00    +0.000 C 
ATOM     23  O   UNL     1      -0.665  12.602  19.420  0.00  0.00    +0.000 OA
ATOM     24  H   UNL     1      -1.198   9.528  19.984  0.00  0.00    +0.000 HD
BRANCH  22  25
ATOM     25  C   UNL     1      -2.017  11.135  18.149  0.00  0.00    +0.000 A 
ATOM     26  C   UNL     1      -1.590  10.190  17.203  0.00  0.00    +0.000 A 
ATOM     27  C   UNL     1      -2.408   9.878  16.115  0.00  0.00    +0.000 A 
ATOM     28  C   UNL     1      -3.641  10.507  15.981  0.00  0.00    +0.000 A 
ATOM     29  F   UNL     1      -4.420  10.210  14.932  0.00  0.00    +0.000 F 
ATOM     30  C   UNL     1      -4.082  11.433  16.920  0.00  0.00    +0.000 A 
ATOM     31  C   UNL     1      -3.271  11.744  18.014  0.00  0.00    +0.000 A 
ENDBRANCH  22  25
ENDBRANCH  20  21
BRANCH  20  32
ATOM     32  C   UNL     1      -0.885  10.602  22.720  0.00  0.00    +0.000 C 
BRANCH  32  33
ATOM     33  C   UNL     1      -1.600  11.881  23.088  0.00  0.00    +0.000 A 
ATOM     34  C   UNL     1      -2.927  11.893  23.530  0.00  0.00    +0.000 A 
ATOM     35  C   UNL     1      -3.532  13.100  23.872  0.00  0.00    +0.000 A 
ATOM     36  C   UNL     1      -2.789  14.260  23.759  0.00  0.00    +0.000 A 
ATOM     37  N   UNL     1      -1.510  14.293  23.328  0.00  0.00    +0.000 NA
ATOM     38  C   UNL     1      -0.948  13.108  23.003  0.00  0.00    +0.000 A 
ENDBRANCH  32  33
ENDBRANCH  20  32
ENDBRANCH   2  20
TORSDOF 9
ENDMDL
MODEL 3
REMARK VINA RESULT:      -8.3      0.331      1.147
REMARK  Name = 
REMARK  12 active torsions:
REMARK  status: ('A' for Active; 'I' for Inactive)
REMARK    1  A    between atoms: C_1  and  C_2
REMARK    2  A    between atoms: C_2  and  C_3
REMARK    3  A    between atoms: C_2  and  C_4
REMARK    4  A    between atoms: C_2  and  N_5
REMARK    5  A    between atoms: N_5  and  S_6
REMARK    6  A    between atoms: S_6  and  C_9
REMARK    7  A    between atoms: C_12  and  N_13
REMARK    8  A    between atoms: C_14  and  C_16
REMARK    9  A    between atoms: C_16  and  C_17
REMARK   10  A    between atoms: C_16  and  N_24
REMARK   11  A    between atoms: C_17  and  C_18
REMARK   12  A    between atoms: C_25  and  C_27
REMARK                            x       y       z     vdW  Elec       q    Type
REMARK                         _______ _______ _______ _____ _____    ______ ____
ROOT
ATOM      1  N   UNL     1       0.896   8.929  20.006  0.00  0.00    +0.000 N 
ATOM      2  C   UNL     1       0.957   9.609  21.217  0.00  0.00    +0.000 C 
ATOM      3  O   UNL     1       1.735   9.374  22.144  0.00  0.00    +0.000 OA
ATOM      4  H   UNL     1       0.186   9.209  19.339  0.00  0.00    +0.000 HD
ENDROOT
BRANCH   1   8
ATOM      5  C   UNL     1       3.454   5.814  18.798  0.00  0.00    +0.000 A 
ATOM      6  C   UNL     1       3.329   6.939  17.989  0.00  0.00    +0.000 A 
ATOM      7  C   UNL     1       2.505   7.984  18.387  0.00  0.00    +0.000 A 
ATOM      8  C   UNL     1       1.781   7.914  19.583  0.00  0.00    +0.000 A 
ATOM      9  C   UNL     1       1.912   6.776  20.391  0.00  0.00    +0.000 A 
ATOM     10  C   UNL     1       2.741   5.720  19.997  0.00  0.00    +0.000 A 
BRANCH   5  11
ATOM     11  S   UNL     1       4.447   4.453  18.250  0.00  0.00    +0.000 S 
ATOM     12  O   UNL     1       4.612   4.562  16.823  0.00  0.00    +0.000 OA
ATOM     13  O   UNL     1       3.866   3.272  18.859  0.00  0.00    +0.000 OA
BRANCH  11  14
ATOM     14  N   UNL     1       5.928   4.716  19.037  0.00  0.00    +0.000 NA
ATOM     15  H   UNL     1       5.775   4.939  20.022  0.00  0.00    +0.000 HD
BRANCH  14  17
ATOM     16  C   UNL     1       8.109   5.843  19.459  0.00  0.00    +0.000 C 
ATOM     17  C   UNL     1       7.074   5.430  18.416  0.00  0.00    +0.000 C 
ATOM     18  C   UNL     1       6.588   6.629  17.592  0.00  0.00    +0.000 C 
ATOM     19  C   UNL     1       7.745   4.444  17.437  0.00  0.00    +0.000 C 
ENDBRANCH  14  17
ENDBRANCH  11  14
ENDBRANCH   5  11
ENDBRANCH   1   8
BRANCH   2  20
ATOM     20  C   UNL     1      -0.063  10.750  21.347  0.00  0.00    +0.000 C 
BRANCH  20  21
ATOM     21  N   UNL     1      -0.987  10.622  20.222  0.00  0.00    +0.000 N 
ATOM     22  C   UNL     1      -1.232  11.648  19.345  0.00  0.00    +0.000 C 
ATOM     23  O   UNL     1      -0.731  12.760  19.455  0.00  0.00    +0.000 OA
ATOM     24  H   UNL     1      -1.216   9.667  19.955  0.00  0.00    +0.000 HD
BRANCH  22  25
ATOM     25  C   UNL     1      -2.133  11.318  18.208  0.00  0.00    +0.000 A 
ATOM     26  C   UNL     1      -3.432  11.843  18.136  0.00  0.00    +0.000 A 
ATOM     27  C   UNL     1      -4.256  11.513  17.057  0.00  0.00    +0.000 A 
ATOM     28  C   UNL     1      -3.777  10.668  16.062  0.00  0.00    +0.000 A 
ATOM     29  F   UNL     1      -4.573  10.349  15.032  0.00  0.00    +0.000 F 
ATOM     30  C   UNL     1      -2.485  10.154  16.114  0.00  0.00    +0.000 A 
ATOM     31  C   UNL     1      -1.655  10.486  17.187  0.00  0.00    +0.000 A 
ENDBRANCH  22  25
ENDBRANCH  20  21
BRANCH  20  32
ATOM     32  C   UNL     1      -0.790  10.753  22.701  0.00  0.00    +0.000 C 
BRANCH  32  33
ATOM     33  C   UNL     1      -1.520  12.031  23.040  0.00  0.00    +0.000 A 
ATOM     34  C   UNL     1      -0.914  13.288  22.932  0.00  0.00    +0.000 A 
ATOM     35  C   UNL     1      -1.639  14.435  23.242  0.00  0.00    +0.000 A 
ATOM     36  C   UNL     1      -2.951  14.289  23.654  0.00  0.00    +0.000 A 
ATOM     37  N   UNL     1      -3.569  13.097  23.781  0.00  0.00    +0.000 NA
ATOM     38  C   UNL     1      -2.843  11.999  23.473  0.00  0.00    +0.000 A 
ENDBRANCH  32  33
ENDBRANCH  20  32
ENDBRANCH   2  20
TORSDOF 9
ENDMDL
MODEL 4
REMARK VINA RESULT:      -8.2      0.421      1.224
REMARK  Name = 
REMARK  12 active torsions:
REMARK  status: ('A' for Active; 'I' for Inactive)
REMARK    1  A    between atoms: C_1  and  C_2
REMARK    2  A    between atoms: C_2  and  C_3
REMARK    3  A    between atoms: C_2  and  C_4
REMARK    4  A    between atoms: C_2  and  N_5
REMARK    5  A    between atoms: N_5  and  S_6
REMARK    6  A    between atoms: S_6  and  C_9
REMARK    7  A    between atoms: C_12  and  N_13
REMARK    8  A    between atoms: C_14  and  C_16
REMARK    9  A    between atoms: C_16  and  C_17
REMARK   10  A    between atoms: C_16  and  N_24
REMARK   11  A    between atoms: C_17  and  C_18
REMARK   12  A    between atoms: C_25  and  C_27
REMARK                            x       y       z     vdW  Elec       q    Type
REMARK                         _______ _______ _______ _____ _____    ______ ____
ROOT
ATOM      1  N   UNL     1       0.754   9.250  20.077  0.00  0.00    +0.000 N 
ATOM      2  C   UNL     1       0.792   9.860  21.325  0.00  0.00    +0.000 C 
ATOM      3  O   UNL     1       1.542   9.562  22.257  0.00  0.00    +0.000 OA
ATOM      4  H   UNL     1       0.065   9.578  19.409  0.00  0.00    +0.000 HD
ENDROOT
BRANCH   1   8
ATOM      5  C   UNL     1       3.302   6.167  18.772  0.00  0.00    +0.000 A 
ATOM      6  C   UNL     1       3.129   7.288  17.966  0.00  0.00    +0.000 A 
ATOM      7  C   UNL     1       2.308   8.323  18.395  0.00  0.00    +0.000 A 
ATOM      8  C   UNL     1       1.634   8.246  19.620  0.00  0.00    +0.000 A 
ATOM      9  C   UNL     1       1.814   7.112  20.424  0.00  0.00    +0.000 A 
ATOM     10  C   UNL     1       2.640   6.066  19.999  0.00  0.00    +0.000 A 
BRANCH   5  11
ATOM     11  S   UNL     1       4.291   4.819  18.186  0.00  0.00    +0.000 S 
ATOM     12  O   UNL     1       4.395   4.925  16.753  0.00  0.00    +0.000 OA
ATOM     13  O   UNL     1       3.752   3.631  18.822  0.00  0.00    +0.000 OA
BRANCH  11  14
ATOM     14  N   UNL     1       5.799   5.105  18.910  0.00  0.00    +0.000 NA
ATOM     15  H   UNL     1       5.679   5.531  19.831  0.00  0.00    +0.000 HD
BRANCH  14  17
ATOM     16  C   UNL     1       6.702   6.871  17.404  0.00  0.00    +0.000 C 
ATOM     17  C   UNL     1       6.993   5.580  18.165  0.00  0.00    +0.000 C 
ATOM     18  C   UNL     1       7.531   4.483  17.238  0.00  0.00    +0.000 C 
ATOM     19  C   UNL     1       8.091   5.876  19.209  0.00  0.00    +0.000 C 
ENDBRANCH  14  17
ENDBRANCH  11  14
ENDBRANCH   5  11
ENDBRANCH   1   8
BRANCH   2  20
ATOM     20  C   UNL     1      -0.214  11.009  21.493  0.00  0.00    +0.000 C 
BRANCH  20  21
ATOM     21  N   UNL     1      -1.153  10.916  20.377  0.00  0.00    +0.000 N 
ATOM     22  C   UNL     1      -0.911  11.493  19.156  0.00  0.00    +0.000 C 
ATOM     23  O   UNL     1       0.085  12.165  18.917  0.00  0.00    +0.000 OA
ATOM     24  H   UNL     1      -1.845  10.174  20.454  0.00  0.00    +0.000 HD
BRANCH  22  25
ATOM     25  C   UNL     1      -1.931  11.226  18.107  0.00  0.00    +0.000 A 
ATOM     26  C   UNL     1      -1.624  10.452  16.978  0.00  0.00    +0.000 A 
ATOM     27  C   UNL     1      -2.602  10.220  16.008  0.00  0.00    +0.000 A 
ATOM     28  C   UNL     1      -3.874  10.758  16.174  0.00  0.00    +0.000 A 
ATOM     29  F   UNL     1      -4.807  10.539  15.238  0.00  0.00    +0.000 F 
ATOM     30  C   UNL     1      -4.194  11.514  17.297  0.00  0.00    +0.000 A 
ATOM     31  C   UNL     1      -3.222  11.743  18.273  0.00  0.00    +0.000 A 
ENDBRANCH  22  25
ENDBRANCH  20  21
BRANCH  20  32
ATOM     32  C   UNL     1      -0.925  10.989  22.856  0.00  0.00    +0.000 C 
BRANCH  32  33
ATOM     33  C   UNL     1      -1.741  12.218  23.177  0.00  0.00    +0.000 A 
ATOM     34  C   UNL     1      -1.171  13.493  23.256  0.00  0.00    +0.000 A 
ATOM     35  C   UNL     1      -1.974  14.594  23.539  0.00  0.00    +0.000 A 
ATOM     36  C   UNL     1      -3.326  14.385  23.737  0.00  0.00    +0.000 A 
ATOM     37  N   UNL     1      -3.914  13.172  23.680  0.00  0.00    +0.000 NA
ATOM     38  C   UNL     1      -3.112  12.120  23.403  0.00  0.00    +0.000 A 
ENDBRANCH  32  33
ENDBRANCH  20  32
ENDBRANCH   2  20
TORSDOF 9
ENDMDL
MODEL 5
REMARK VINA RESULT:      -8.1      1.312      1.833
REMARK  Name = 
REMARK  12 active torsions:
REMARK  status: ('A' for Active; 'I' for Inactive)
REMARK    1  A    between atoms: C_1  and  C_2
REMARK    2  A    between atoms: C_2  and  C_3
REMARK    3  A    between atoms: C_2  and  C_4
REMARK    4  A    between atoms: C_2  and  N_5
REMARK    5  A    between atoms: N_5  and  S_6
REMARK    6  A    between atoms: S_6  and  C_9
REMARK    7  A    between atoms: C_12  and  N_13
REMARK    8  A    between atoms: C_14  and  C_16
REMARK    9  A    between atoms: C_16  and  C_17
REMARK   10  A    between atoms: C_16  and  N_24
REMARK   11  A    between atoms: C_17  and  C_18
REMARK   12  A    between atoms: C_25  and  C_27
REMARK                            x       y       z     vdW  Elec       q    Type
REMARK                         _______ _______ _______ _____ _____    ______ ____
ROOT
ATOM      1  N   UNL     1       1.125   8.727  19.920  0.00  0.00    +0.000 N 
ATOM      2  C   UNL     1       0.971   9.231  21.207  0.00  0.00    +0.000 C 
ATOM      3  O   UNL     1       1.494   8.784  22.230  0.00  0.00    +0.000 OA
ATOM      4  H   UNL     1       0.613   9.177  19.170  0.00  0.00    +0.000 HD
ENDROOT
BRANCH   1   8
ATOM      5  C   UNL     1       3.773   5.679  18.739  0.00  0.00    +0.000 A 
ATOM      6  C   UNL     1       3.055   5.531  19.922  0.00  0.00    +0.000 A 
ATOM      7  C   UNL     1       2.161   6.520  20.312  0.00  0.00    +0.000 A 
ATOM      8  C   UNL     1       1.986   7.675  19.542  0.00  0.00    +0.000 A 
ATOM      9  C   UNL     1       2.714   7.816  18.352  0.00  0.00    +0.000 A 
ATOM     10  C   UNL     1       3.615   6.824  17.953  0.00  0.00    +0.000 A 
BRANCH   5  11
ATOM     11  S   UNL     1       4.966   4.450  18.285  0.00  0.00    +0.000 S 
ATOM     12  O   UNL     1       4.628   3.223  18.960  0.00  0.00    +0.000 OA
ATOM     13  O   UNL     1       6.262   5.079  18.456  0.00  0.00    +0.000 OA
BRANCH  11  14
ATOM     14  N   UNL     1       4.731   4.286  16.612  0.00  0.00    +0.000 NA
ATOM     15  H   UNL     1       4.345   3.366  16.393  0.00  0.00    +0.000 HD
BRANCH  14  17
ATOM     16  C   UNL     1       7.124   4.493  15.951  0.00  0.00    +0.000 C 
ATOM     17  C   UNL     1       5.675   4.814  15.593  0.00  0.00    +0.000 C 
ATOM     18  C   UNL     1       5.462   6.318  15.378  0.00  0.00    +0.000 C 
ATOM     19  C   UNL     1       5.343   4.110  14.260  0.00  0.00    +0.000 C 
ENDBRANCH  14  17
ENDBRANCH  11  14
ENDBRANCH   5  11
ENDBRANCH   1   8
BRANCH   2  20
ATOM     20  C   UNL     1       0.057  10.463  21.293  0.00  0.00    +0.000 C 
BRANCH  20  21
ATOM     21  N   UNL     1      -0.874  10.378  20.169  0.00  0.00    +0.000 N 
ATOM     22  C   UNL     1      -1.003  11.379  19.239  0.00  0.00    +0.000 C 
ATOM     23  O   UNL     1      -0.385  12.434  19.297  0.00  0.00    +0.000 OA
ATOM     24  H   UNL     1      -1.204   9.442  19.949  0.00  0.00    +0.000 HD
BRANCH  22  25
ATOM     25  C   UNL     1      -1.932  11.091  18.114  0.00  0.00    +0.000 A 
ATOM     26  C   UNL     1      -3.133  11.802  17.964  0.00  0.00    +0.000 A 
ATOM     27  C   UNL     1      -3.987  11.508  16.899  0.00  0.00    +0.000 A 
ATOM     28  C   UNL     1      -3.635  10.512  15.993  0.00  0.00    +0.000 A 
ATOM     29  F   UNL     1      -4.460  10.229  14.976  0.00  0.00    +0.000 F 
ATOM     30  C   UNL     1      -2.440   9.812  16.121  0.00  0.00    +0.000 A 
ATOM     31  C   UNL     1      -1.580  10.107  17.181  0.00  0.00    +0.000 A 
ENDBRANCH  22  25
ENDBRANCH  20  21
BRANCH  20  32
ATOM     32  C   UNL     1      -0.669  10.577  22.643  0.00  0.00    +0.000 C 
BRANCH  32  33
ATOM     33  C   UNL     1      -1.371  11.891  22.890  0.00  0.00    +0.000 A 
ATOM     34  C   UNL     1      -2.691  11.958  23.349  0.00  0.00    +0.000 A 
ATOM     35  C   UNL     1      -3.283  13.197  23.576  0.00  0.00    +0.000 A 
ATOM     36  C   UNL     1      -2.535  14.334  23.335  0.00  0.00    +0.000 A 
ATOM     37  N   UNL     1      -1.264  14.315  22.884  0.00  0.00    +0.000 NA
ATOM     38  C   UNL     1      -0.713  13.099  22.672  0.00  0.00    +0.000 A 
ENDBRANCH  32  33
ENDBRANCH  20  32
ENDBRANCH   2  20
TORSDOF 9
ENDMDL
MODEL 6
REMARK VINA RESULT:      -8.1      3.452      5.321
REMARK  Name = 
REMARK  12 active torsions:
REMARK  status: ('A' for Active; 'I' for Inactive)
REMARK    1  A    between atoms: C_1  and  C_2
REMARK    2  A    between atoms: C_2  and  C_3
REMARK    3  A    between atoms: C_2  and  C_4
REMARK    4  A    between atoms: C_2  and  N_5
REMARK    5  A    between atoms: N_5  and  S_6
REMARK    6  A    between atoms: S_6  and  C_9
REMARK    7  A    between atoms: C_12  and  N_13
REMARK    8  A    between atoms: C_14  and  C_16
REMARK    9  A    between atoms: C_16  and  C_17
REMARK   10  A    between atoms: C_16  and  N_24
REMARK   11  A    between atoms: C_17  and  C_18
REMARK   12  A    between atoms: C_25  and  C_27
REMARK                            x       y       z     vdW  Elec       q    Type
REMARK                         _______ _______ _______ _____ _____    ______ ____
ROOT
ATOM      1  N   UNL     1       0.689  10.997  19.260  0.00  0.00    +0.000 N 
ATOM      2  C   UNL     1      -0.668  11.267  19.122  0.00  0.00    +0.000 C 
ATOM      3  O   UNL     1      -1.544  10.452  18.822  0.00  0.00    +0.000 OA
ATOM      4  H   UNL     1       1.305  11.770  19.485  0.00  0.00    +0.000 HD
ENDROOT
BRANCH   1   8
ATOM      5  C   UNL     1       2.393   7.155  19.096  0.00  0.00    +0.000 A 
ATOM      6  C   UNL     1       2.450   7.969  17.969  0.00  0.00    +0.000 A 
ATOM      7  C   UNL     1       1.910   9.248  18.017  0.00  0.00    +0.000 A 
ATOM      8  C   UNL     1       1.291   9.724  19.178  0.00  0.00    +0.000 A 
ATOM      9  C   UNL     1       1.238   8.896  20.308  0.00  0.00    +0.000 A 
ATOM     10  C   UNL     1       1.780   7.607  20.268  0.00  0.00    +0.000 A 
BRANCH   5  11
ATOM     11  S   UNL     1       3.016   5.498  19.006  0.00  0.00    +0.000 S 
ATOM     12  O   UNL     1       4.345   5.485  19.562  0.00  0.00    +0.000 OA
ATOM     13  O   UNL     1       2.757   5.055  17.649  0.00  0.00    +0.000 OA
BRANCH  11  14
ATOM     14  N   UNL     1       1.951   4.632  20.003  0.00  0.00    +0.000 NA
ATOM     15  H   UNL     1       1.855   5.093  20.910  0.00  0.00    +0.000 HD
BRANCH  14  17
ATOM     16  C   UNL     1       3.275   2.530  19.826  0.00  0.00    +0.000 C 
ATOM     17  C   UNL     1       1.900   3.149  20.061  0.00  0.00    +0.000 C 
ATOM     18  C   UNL     1       0.855   2.599  19.081  0.00  0.00    +0.000 C 
ATOM     19  C   UNL     1       1.438   2.766  21.483  0.00  0.00    +0.000 C 
ENDBRANCH  14  17
ENDBRANCH  11  14
ENDBRANCH   5  11
ENDBRANCH   1   8
BRANCH   2  20
ATOM     20  C   UNL     1      -1.047  12.732  19.388  0.00  0.00    +0.000 C 
BRANCH  20  21
ATOM     21  N   UNL     1      -2.195  12.715  20.292  0.00  0.00    +0.000 N 
ATOM     22  C   UNL     1      -2.069  12.517  21.644  0.00  0.00    +0.000 C 
ATOM     23  O   UNL     1      -0.997  12.298  22.194  0.00  0.00    +0.000 OA
ATOM     24  H   UNL     1      -3.044  13.137  19.923  0.00  0.00    +0.000 HD
BRANCH  22  25
ATOM     25  C   UNL     1      -3.330  12.618  22.426  0.00  0.00    +0.000 A 
ATOM     26  C   UNL     1      -3.344  12.394  23.811  0.00  0.00    +0.000 A 
ATOM     27  C   UNL     1      -4.544  12.493  24.519  0.00  0.00    +0.000 A 
ATOM     28  C   UNL     1      -5.715  12.816  23.842  0.00  0.00    +0.000 A 
ATOM     29  F   UNL     1      -6.866  12.903  24.523  0.00  0.00    +0.000 F 
ATOM     30  C   UNL     1      -5.711  13.056  22.471  0.00  0.00    +0.000 A 
ATOM     31  C   UNL     1      -4.513  12.964  21.760  0.00  0.00    +0.000 A 
ENDBRANCH  22  25
ENDBRANCH  20  21
BRANCH  20  32
ATOM     32  C   UNL     1       0.121  13.561  19.946  0.00  0.00    +0.000 C 
BRANCH  32  33
ATOM     33  C   UNL     1       0.346  14.894  19.274  0.00  0.00    +0.000 A 
ATOM     34  C   UNL     1      -0.694  15.804  19.054  0.00  0.00    +0.000 A 
ATOM     35  C   UNL     1      -0.427  17.027  18.445  0.00  0.00    +0.000 A 
ATOM     36  C   UNL     1       0.875  17.302  18.072  0.00  0.00    +0.000 A 
ATOM     37  N   UNL     1       1.905  16.450  18.257  0.00  0.00    +0.000 NA
ATOM     38  C   UNL     1       1.618  15.270  18.851  0.00  0.00    +0.000 A 
ENDBRANCH  32  33
ENDBRANCH  20  32
ENDBRANCH   2  20
TORSDOF 9
ENDMDL
MODEL 7
REMARK VINA RESULT:      -8.0      0.986      1.436
REMARK  Name = 
REMARK  12 active torsions:
REMARK  status: ('A' for Active; 'I' for Inactive)
REMARK    1  A    between atoms: C_1  and  C_2
REMARK    2  A    between atoms: C_2  and  C_3
REMARK    3  A    between atoms: C_2  and  C_4
REMARK    4  A    between atoms: C_2  and  N_5
REMARK    5  A    between atoms: N_5  and  S_6
REMARK    6  A    between atoms: S_6  and  C_9
REMARK    7  A    between atoms: C_12  and  N_13
REMARK    8  A    between atoms: C_14  and  C_16
REMARK    9  A    between atoms: C_16  and  C_17
REMARK   10  A    between atoms: C_16  and  N_24
REMARK   11  A    between atoms: C_17  and  C_18
REMARK   12  A    between atoms: C_25  and  C_27
REMARK                            x       y       z     vdW  Elec       q    Type
REMARK                         _______ _______ _______ _____ _____    ______ ____
ROOT
ATOM      1  N   UNL     1       0.873   8.646  20.287  0.00  0.00    +0.000 N 
ATOM      2  C   UNL     1       0.985   9.447  21.418  0.00  0.00    +0.000 C 
ATOM      3  O   UNL     1       1.808   9.312  22.325  0.00  0.00    +0.000 OA
ATOM      4  H   UNL     1       0.129   8.853  19.630  0.00  0.00    +0.000 HD
ENDROOT
BRANCH   1   8
ATOM      5  C   UNL     1       3.388   5.433  19.257  0.00  0.00    +0.000 A 
ATOM      6  C   UNL     1       3.411   6.587  18.480  0.00  0.00    +0.000 A 
ATOM      7  C   UNL     1       2.602   7.663  18.822  0.00  0.00    +0.000 A 
ATOM      8  C   UNL     1       1.746   7.597  19.927  0.00  0.00    +0.000 A 
ATOM      9  C   UNL     1       1.729   6.430  20.704  0.00  0.00    +0.000 A 
ATOM     10  C   UNL     1       2.541   5.342  20.366  0.00  0.00    +0.000 A 
BRANCH   5  11
ATOM     11  S   UNL     1       4.365   4.037  18.773  0.00  0.00    +0.000 S 
ATOM     12  O   UNL     1       3.665   2.839  19.162  0.00  0.00    +0.000 OA
ATOM     13  O   UNL     1       5.709   4.317  19.243  0.00  0.00    +0.000 OA
BRANCH  11  14
ATOM     14  N   UNL     1       4.413   4.169  17.082  0.00  0.00    +0.000 NA
ATOM     15  H   UNL     1       3.939   3.376  16.647  0.00  0.00    +0.000 HD
BRANCH  14  17
ATOM     16  C   UNL     1       5.387   6.099  15.843  0.00  0.00    +0.000 C 
ATOM     17  C   UNL     1       5.593   4.667  16.329  0.00  0.00    +0.000 C 
ATOM     18  C   UNL     1       5.944   3.720  15.174  0.00  0.00    +0.000 C 
ATOM     19  C   UNL     1       6.789   4.659  17.304  0.00  0.00    +0.000 C 
ENDBRANCH  14  17
ENDBRANCH  11  14
ENDBRANCH   5  11
ENDBRANCH   1   8
BRANCH   2  20
ATOM     20  C   UNL     1      -0.039  10.590  21.479  0.00  0.00    +0.000 C 
BRANCH  20  21
ATOM     21  N   UNL     1      -0.911  10.441  20.316  0.00  0.00    +0.000 N 
ATOM     22  C   UNL     1      -1.211  11.484  19.477  0.00  0.00    +0.000 C 
ATOM     23  O   UNL     1      -0.810  12.627  19.657  0.00  0.00    +0.000 OA
ATOM     24  H   UNL     1      -1.050   9.484  19.997  0.00  0.00    +0.000 HD
BRANCH  22  25
ATOM     25  C   UNL     1      -2.043  11.137  18.294  0.00  0.00    +0.000 A 
ATOM     26  C   UNL     1      -3.288  11.745  18.078  0.00  0.00    +0.000 A 
ATOM     27  C   UNL     1      -4.048  11.396  16.959  0.00  0.00    +0.000 A 
ATOM     28  C   UNL     1      -3.559  10.449  16.066  0.00  0.00    +0.000 A 
ATOM     29  F   UNL     1      -4.293  10.112  14.997  0.00  0.00    +0.000 F 
ATOM     30  C   UNL     1      -2.317   9.851  16.260  0.00  0.00    +0.000 A 
ATOM     31  C   UNL     1      -1.551  10.200  17.375  0.00  0.00    +0.000 A 
ENDBRANCH  22  25
ENDBRANCH  20  21
BRANCH  20  32
ATOM     32  C   UNL     1      -0.828  10.619  22.798  0.00  0.00    +0.000 C 
BRANCH  32  33
ATOM     33  C   UNL     1      -1.545  11.914  23.095  0.00  0.00    +0.000 A 
ATOM     34  C   UNL     1      -0.907  13.157  23.010  0.00  0.00    +0.000 A 
ATOM     35  C   UNL     1      -1.621  14.321  23.278  0.00  0.00    +0.000 A 
ATOM     36  C   UNL     1      -2.954  14.207  23.627  0.00  0.00    +0.000 A 
ATOM     37  N   UNL     1      -3.604  13.028  23.730  0.00  0.00    +0.000 NA
ATOM     38  C   UNL     1      -2.887  11.914  23.463  0.00  0.00    +0.000 A 
ENDBRANCH  32  33
ENDBRANCH  20  32
ENDBRANCH   2  20
TORSDOF 9
ENDMDL
MODEL 8
REMARK VINA RESULT:      -8.0      0.946      1.355
REMARK  Name = 
REMARK  12 active torsions:
REMARK  status: ('A' for Active; 'I' for Inactive)
REMARK    1  A    between atoms: C_1  and  C_2
REMARK    2  A    between atoms: C_2  and  C_3
REMARK    3  A    between atoms: C_2  and  C_4
REMARK    4  A    between atoms: C_2  and  N_5
REMARK    5  A    between atoms: N_5  and  S_6
REMARK    6  A    between atoms: S_6  and  C_9
REMARK    7  A    between atoms: C_12  and  N_13
REMARK    8  A    between atoms: C_14  and  C_16
REMARK    9  A    between atoms: C_16  and  C_17
REMARK   10  A    between atoms: C_16  and  N_24
REMARK   11  A    between atoms: C_17  and  C_18
REMARK   12  A    between atoms: C_25  and  C_27
REMARK                            x       y       z     vdW  Elec       q    Type
REMARK                         _______ _______ _______ _____ _____    ______ ____
ROOT
ATOM      1  N   UNL     1       0.858   8.943  19.964  0.00  0.00    +0.000 N 
ATOM      2  C   UNL     1       0.860   9.747  21.098  0.00  0.00    +0.000 C 
ATOM      3  O   UNL     1       1.594   9.617  22.080  0.00  0.00    +0.000 OA
ATOM      4  H   UNL     1       0.179   9.147  19.239  0.00  0.00    +0.000 HD
ENDROOT
BRANCH   1   8
ATOM      5  C   UNL     1       3.643   5.911  19.096  0.00  0.00    +0.000 A 
ATOM      6  C   UNL     1       2.866   5.807  20.246  0.00  0.00    +0.000 A 
ATOM      7  C   UNL     1       1.928   6.791  20.533  0.00  0.00    +0.000 A 
ATOM      8  C   UNL     1       1.765   7.897  19.691  0.00  0.00    +0.000 A 
ATOM      9  C   UNL     1       2.553   7.993  18.535  0.00  0.00    +0.000 A 
ATOM     10  C   UNL     1       3.500   7.007  18.240  0.00  0.00    +0.000 A 
BRANCH   5  11
ATOM     11  S   UNL     1       4.890   4.694  18.775  0.00  0.00    +0.000 S 
ATOM     12  O   UNL     1       4.279   3.391  18.855  0.00  0.00    +0.000 OA
ATOM     13  O   UNL     1       6.017   5.056  19.613  0.00  0.00    +0.000 OA
BRANCH  11  14
ATOM     14  N   UNL     1       5.354   5.030  17.178  0.00  0.00    +0.000 NA
ATOM     15  H   UNL     1       4.884   4.398  16.527  0.00  0.00    +0.000 HD
BRANCH  14  17
ATOM     16  C   UNL     1       7.061   6.844  17.153  0.00  0.00    +0.000 C 
ATOM     17  C   UNL     1       6.738   5.398  16.784  0.00  0.00    +0.000 C 
ATOM     18  C   UNL     1       6.973   5.126  15.293  0.00  0.00    +0.000 C 
ATOM     19  C   UNL     1       7.694   4.477  17.572  0.00  0.00    +0.000 C 
ENDBRANCH  14  17
ENDBRANCH  11  14
ENDBRANCH   5  11
ENDBRANCH   1   8
BRANCH   2  20
ATOM     20  C   UNL     1      -0.169  10.887  21.060  0.00  0.00    +0.000 C 
BRANCH  20  21
ATOM     21  N   UNL     1      -1.030  10.642  19.905  0.00  0.00    +0.000 N 
ATOM     22  C   UNL     1      -1.332  11.616  18.987  0.00  0.00    +0.000 C 
ATOM     23  O   UNL     1      -0.941  12.773  19.082  0.00  0.00    +0.000 OA
ATOM     24  H   UNL     1      -1.158   9.663  19.659  0.00  0.00    +0.000 HD
BRANCH  22  25
ATOM     25  C   UNL     1      -2.150  11.173  17.827  0.00  0.00    +0.000 A 
ATOM     26  C   UNL     1      -1.692  10.173  16.956  0.00  0.00    +0.000 A 
ATOM     27  C   UNL     1      -2.481   9.779  15.873  0.00  0.00    +0.000 A 
ATOM     28  C   UNL     1      -3.718  10.381  15.671  0.00  0.00    +0.000 A 
ATOM     29  F   UNL     1      -4.470  10.006  14.628  0.00  0.00    +0.000 F 
ATOM     30  C   UNL     1      -4.191  11.362  16.538  0.00  0.00    +0.000 A 
ATOM     31  C   UNL     1      -3.408  11.756  17.625  0.00  0.00    +0.000 A 
ENDBRANCH  22  25
ENDBRANCH  20  21
BRANCH  20  32
ATOM     32  C   UNL     1      -0.969  11.016  22.366  0.00  0.00    +0.000 C 
BRANCH  32  33
ATOM     33  C   UNL     1      -1.636  12.353  22.586  0.00  0.00    +0.000 A 
ATOM     34  C   UNL     1      -1.016  13.390  23.292  0.00  0.00    +0.000 A 
ATOM     35  C   UNL     1      -1.671  14.608  23.451  0.00  0.00    +0.000 A 
ATOM     36  C   UNL     1      -2.929  14.752  22.897  0.00  0.00    +0.000 A 
ATOM     37  N   UNL     1      -3.566  13.776  22.217  0.00  0.00    +0.000 NA
ATOM     38  C   UNL     1      -2.908  12.604  22.078  0.00  0.00    +0.000 A 
ENDBRANCH  32  33
ENDBRANCH  20  32
ENDBRANCH   2  20
TORSDOF 9
ENDMDL
MODEL 9
REMARK VINA RESULT:      -7.9      3.301      5.008
REMARK  Name = 
REMARK  12 active torsions:
REMARK  status: ('A' for Active; 'I' for Inactive)
REMARK    1  A    between atoms: C_1  and  C_2
REMARK    2  A    between atoms: C_2  and  C_3
REMARK    3  A    between atoms: C_2  and  C_4
REMARK    4  A    between atoms: C_2  and  N_5
REMARK    5  A    between atoms: N_5  and  S_6
REMARK    6  A    between atoms: S_6  and  C_9
REMARK    7  A    between atoms: C_12  and  N_13
REMARK    8  A    between atoms: C_14  and  C_16
REMARK    9  A    between atoms: C_16  and  C_17
REMARK   10  A    between atoms: C_16  and  N_24
REMARK   11  A    between atoms: C_17  and  C_18
REMARK   12  A    between atoms: C_25  and  C_27
REMARK                            x       y       z     vdW  Elec       q    Type
REMARK                         _______ _______ _______ _____ _____    ______ ____
ROOT
ATOM      1  N   UNL     1       0.581  10.983  19.343  0.00  0.00    +0.000 N 
ATOM      2  C   UNL     1      -0.723  11.329  19.006  0.00  0.00    +0.000 C 
ATOM      3  O   UNL     1      -1.579  10.572  18.543  0.00  0.00    +0.000 OA
ATOM      4  H   UNL     1       1.191  11.714  19.690  0.00  0.00    +0.000 HD
ENDROOT
BRANCH   1   8
ATOM      5  C   UNL     1       2.295   7.146  19.154  0.00  0.00    +0.000 A 
ATOM      6  C   UNL     1       1.745   7.582  20.355  0.00  0.00    +0.000 A 
ATOM      7  C   UNL     1       1.157   8.838  20.425  0.00  0.00    +0.000 A 
ATOM      8  C   UNL     1       1.126   9.682  19.309  0.00  0.00    +0.000 A 
ATOM      9  C   UNL     1       1.684   9.234  18.103  0.00  0.00    +0.000 A 
ATOM     10  C   UNL     1       2.277   7.970  18.025  0.00  0.00    +0.000 A 
BRANCH   5  11
ATOM     11  S   UNL     1       3.111   5.574  19.090  0.00  0.00    +0.000 S 
ATOM     12  O   UNL     1       4.462   5.748  19.559  0.00  0.00    +0.000 OA
ATOM     13  O   UNL     1       2.828   5.038  17.772  0.00  0.00    +0.000 OA
BRANCH  11  14
ATOM     14  N   UNL     1       2.222   4.635  20.189  0.00  0.00    +0.000 NA
ATOM     15  H   UNL     1       2.283   5.030  21.129  0.00  0.00    +0.000 HD
BRANCH  14  17
ATOM     16  C   UNL     1       3.529   2.551  19.798  0.00  0.00    +0.000 C 
ATOM     17  C   UNL     1       2.170   3.150  20.149  0.00  0.00    +0.000 C 
ATOM     18  C   UNL     1       1.071   2.668  19.194  0.00  0.00    +0.000 C 
ATOM     19  C   UNL     1       1.786   2.672  21.566  0.00  0.00    +0.000 C 
ENDBRANCH  14  17
ENDBRANCH  11  14
ENDBRANCH   5  11
ENDBRANCH   1   8
BRANCH   2  20
ATOM     20  C   UNL     1      -1.066  12.804  19.264  0.00  0.00    +0.000 C 
BRANCH  20  21
ATOM     21  N   UNL     1      -2.194  12.820  20.194  0.00  0.00    +0.000 N 
ATOM     22  C   UNL     1      -2.095  12.365  21.484  0.00  0.00    +0.000 C 
ATOM     23  O   UNL     1      -1.073  11.873  21.947  0.00  0.00    +0.000 OA
ATOM     24  H   UNL     1      -2.960  13.438  19.936  0.00  0.00    +0.000 HD
BRANCH  22  25
ATOM     25  C   UNL     1      -3.314  12.535  22.319  0.00  0.00    +0.000 A 
ATOM     26  C   UNL     1      -3.254  12.441  23.718  0.00  0.00    +0.000 A 
ATOM     27  C   UNL     1      -4.416  12.604  24.476  0.00  0.00    +0.000 A 
ATOM     28  C   UNL     1      -5.623  12.859  23.834  0.00  0.00    +0.000 A 
ATOM     29  F   UNL     1      -6.737  13.007  24.564  0.00  0.00    +0.000 F 
ATOM     30  C   UNL     1      -5.692  12.971  22.449  0.00  0.00    +0.000 A 
ATOM     31  C   UNL     1      -4.532  12.816  21.687  0.00  0.00    +0.000 A 
ENDBRANCH  22  25
ENDBRANCH  20  21
BRANCH  20  32
ATOM     32  C   UNL     1       0.130  13.616  19.786  0.00  0.00    +0.000 C 
BRANCH  32  33
ATOM     33  C   UNL     1      -0.048  15.115  19.767  0.00  0.00    +0.000 A 
ATOM     34  C   UNL     1      -0.368  15.814  18.598  0.00  0.00    +0.000 A 
ATOM     35  C   UNL     1      -0.537  17.195  18.642  0.00  0.00    +0.000 A 
ATOM     36  C   UNL     1      -0.379  17.836  19.856  0.00  0.00    +0.000 A 
ATOM     37  N   UNL     1      -0.062  17.202  21.004  0.00  0.00    +0.000 NA
ATOM     38  C   UNL     1       0.096  15.861  20.934  0.00  0.00    +0.000 A 
ENDBRANCH  32  33
ENDBRANCH  20  32
ENDBRANCH   2  20
TORSDOF 9
ENDMDL
