MODEL 1
REMARK VINA RESULT:      -7.3      0.000      0.000
REMARK  Name = 
REMARK  10 active torsions:
REMARK  status: ('A' for Active; 'I' for Inactive)
REMARK    1  A    between atoms: C_2  and  O_3
REMARK    2  A    between atoms: C_2  and  C_4
REMARK    3  A    between atoms: C_4  and  C_5
REMARK    4  A    between atoms: C_5  and  N_6
REMARK    5  A    between atoms: C_7  and  C_9
REMARK    6  A    between atoms: C_13  and  C_14
REMARK    7  A    between atoms: N_16  and  C_17
REMARK    8  A    between atoms: C_17  and  C_18
REMARK    9  A    between atoms: C_18  and  C_19
REMARK   10  A    between atoms: C_19  and  O_21
REMARK                            x       y       z     vdW  Elec       q    Type
REMARK                         _______ _______ _______ _____ _____    ______ ____
ROOT
ATOM      1  C   UNL     1       4.950   4.307  17.487  0.00  0.00    +0.000 A 
ATOM      2  C   UNL     1       5.978   4.527  18.405  0.00  0.00    +0.000 A 
ATOM      3  C   UNL     1       7.260   4.762  17.929  0.00  0.00    +0.000 A 
ATOM      4  C   UNL     1       7.476   4.766  16.557  0.00  0.00    +0.000 A 
ATOM      5  C   UNL     1       6.398   4.529  15.704  0.00  0.00    +0.000 A 
ATOM      6  N   UNL     1       5.118   4.298  16.130  0.00  0.00    +0.000 NA
ENDROOT
BRANCH   1   8
ATOM      7  N   UNL     1       3.181   4.896  19.074  0.00  0.00    +0.000 N 
ATOM      8  C   UNL     1       3.566   4.082  18.029  0.00  0.00    +0.000 C 
ATOM      9  O   UNL     1       2.836   3.214  17.560  0.00  0.00    +0.000 OA
ATOM     10  H   UNL     1       3.843   5.599  19.388  0.00  0.00    +0.000 HD
BRANCH   7  11
ATOM     11  C   UNL     1       1.865   4.796  19.683  0.00  0.00    +0.000 C 
BRANCH  11  12
ATOM     12  C   UNL     1       1.942   4.377  21.147  0.00  0.00    +0.000 C 
BRANCH  12  14
ATOM     13  O   UNL     1       1.374   2.364  22.362  0.00  0.00    +0.000 OA
ATOM     14  C   UNL     1       1.601   2.917  21.294  0.00  0.00    +0.000 C 
BRANCH  14  15
ATOM     15  O   UNL     1       1.628   2.236  20.126  0.00  0.00    +0.000 OA
ATOM     16  H   UNL     1       1.368   2.764  19.345  0.00  0.00    +0.000 HD
ENDBRANCH  14  15
ENDBRANCH  12  14
ENDBRANCH  11  12
ENDBRANCH   7  11
ENDBRANCH   1   8
BRANCH   5  17
ATOM     17  C   UNL     1       6.663   4.512  14.223  0.00  0.00    +0.000 C 
ATOM     18  O   UNL     1       7.423   5.324  13.707  0.00  0.00    +0.000 OA
ATOM     19  N   UNL     1       6.012   3.532  13.499  0.00  0.00    +0.000 N 
ATOM     20  H   UNL     1       5.398   2.906  14.011  0.00  0.00    +0.000 HD
BRANCH  19  21
ATOM     21  C   UNL     1       6.149   3.417  12.057  0.00  0.00    +0.000 C 
BRANCH  21  22
ATOM     22  C   UNL     1       5.417   2.198  11.506  0.00  0.00    +0.000 C 
BRANCH  22  23
ATOM     23  C   UNL     1       6.395   1.089  11.203  0.00  0.00    +0.000 C 
ATOM     24  O   UNL     1       6.080  -0.072  10.992  0.00  0.00    +0.000 OA
BRANCH  23  25
ATOM     25  O   UNL     1       7.686   1.489  11.246  0.00  0.00    +0.000 OA
ATOM     26  H   UNL     1       7.817   2.410  11.540  0.00  0.00    +0.000 HD
ENDBRANCH  23  25
ENDBRANCH  22  23
ENDBRANCH  21  22
ENDBRANCH  19  21
ENDBRANCH   5  17
TORSDOF 10
ENDMDL
MODEL 2
REMARK VINA RESULT:      -7.3      1.067      1.130
REMARK  Name = 
REMARK  10 active torsions:
REMARK  status: ('A' for Active; 'I' for Inactive)
REMARK    1  A    between atoms: C_2  and  O_3
REMARK    2  A    between atoms: C_2  and  C_4
REMARK    3  A    between atoms: C_4  and  C_5
REMARK    4  A    between atoms: C_5  and  N_6
REMARK    5  A    between atoms: C_7  and  C_9
REMARK    6  A    between atoms: C_13  and  C_14
REMARK    7  A    between atoms: N_16  and  C_17
REMARK    8  A    between atoms: C_17  and  C_18
REMARK    9  A    between atoms: C_18  and  C_19
REMARK   10  A    between atoms: C_19  and  O_21
REMARK                            x       y       z     vdW  Elec       q    Type
REMARK                         _______ _______ _______ _____ _____    ______ ____
ROOT
ATOM      1  C   UNL     1       4.423   3.904  17.348  0.00  0.00    +0.000 A 
ATOM      2  C   UNL     1       5.194   4.297  18.443  0.00  0.00    +0.000 A 
ATOM      3  C   UNL     1       6.483   4.760  18.220  0.00  0.00    +0.000 A 
ATOM      4  C   UNL     1       6.962   4.813  16.918  0.00  0.00    +0.000 A 
ATOM      5  C   UNL     1       6.133   4.395  15.878  0.00  0.00    +0.000 A 
ATOM      6  N   UNL     1       4.855   3.936  16.051  0.00  0.00    +0.000 NA
ENDROOT
BRANCH   1   8
ATOM      7  N   UNL     1       2.656   3.320  18.938  0.00  0.00    +0.000 N 
ATOM      8  C   UNL     1       3.020   3.433  17.613  0.00  0.00    +0.000 C 
ATOM      9  O   UNL     1       2.258   3.162  16.689  0.00  0.00    +0.000 OA
ATOM     10  H   UNL     1       3.345   3.582  19.637  0.00  0.00    +0.000 HD
BRANCH   7  11
ATOM     11  C   UNL     1       1.326   2.890  19.337  0.00  0.00    +0.000 C 
BRANCH  11  12
ATOM     12  C   UNL     1       0.863   3.574  20.619  0.00  0.00    +0.000 C 
BRANCH  12  14
ATOM     13  O   UNL     1       2.541   3.032  22.275  0.00  0.00    +0.000 OA
ATOM     14  C   UNL     1       2.038   3.853  21.519  0.00  0.00    +0.000 C 
BRANCH  14  15
ATOM     15  O   UNL     1       2.465   5.135  21.469  0.00  0.00    +0.000 OA
ATOM     16  H   UNL     1       1.962   5.704  20.853  0.00  0.00    +0.000 HD
ENDBRANCH  14  15
ENDBRANCH  12  14
ENDBRANCH  11  12
ENDBRANCH   7  11
ENDBRANCH   1   8
BRANCH   5  17
ATOM     17  C   UNL     1       6.684   4.437  14.478  0.00  0.00    +0.000 C 
ATOM     18  O   UNL     1       7.579   5.217  14.174  0.00  0.00    +0.000 OA
ATOM     19  N   UNL     1       6.131   3.546  13.579  0.00  0.00    +0.000 N 
ATOM     20  H   UNL     1       5.391   2.941  13.919  0.00  0.00    +0.000 HD
BRANCH  19  21
ATOM     21  C   UNL     1       6.543   3.498  12.186  0.00  0.00    +0.000 C 
BRANCH  21  22
ATOM     22  C   UNL     1       5.720   2.502  11.378  0.00  0.00    +0.000 C 
BRANCH  22  23
ATOM     23  C   UNL     1       6.490   1.219  11.180  0.00  0.00    +0.000 C 
ATOM     24  O   UNL     1       5.978   0.122  11.014  0.00  0.00    +0.000 OA
BRANCH  23  25
ATOM     25  O   UNL     1       7.830   1.382  11.265  0.00  0.00    +0.000 OA
ATOM     26  H   UNL     1       8.353   0.636  10.918  0.00  0.00    +0.000 HD
ENDBRANCH  23  25
ENDBRANCH  22  23
ENDBRANCH  21  22
ENDBRANCH  19  21
ENDBRANCH   5  17
TORSDOF 10
ENDMDL
MODEL 3
REMARK VINA RESULT:      -7.2      1.371      8.075
REMARK  Name = 
REMARK  10 active torsions:
REMARK  status: ('A' for Active; 'I' for Inactive)
REMARK    1  A    between atoms: C_2  and  O_3
REMARK    2  A    between atoms: C_2  and  C_4
REMARK    3  A    between atoms: C_4  and  C_5
REMARK    4  A    between atoms: C_5  and  N_6
REMARK    5  A    between atoms: C_7  and  C_9
REMARK    6  A    between atoms: C_13  and  C_14
REMARK    7  A    between atoms: N_16  and  C_17
REMARK    8  A    between atoms: C_17  and  C_18
REMARK    9  A    between atoms: C_18  and  C_19
REMARK   10  A    between atoms: C_19  and  O_21
REMARK                            x       y       z     vdW  Elec       q    Type
REMARK                         _______ _______ _______ _____ _____    ______ ____
ROOT
ATOM      1  C   UNL     1       5.429   5.010  15.762  0.00  0.00    +0.000 A 
ATOM      2  C   UNL     1       5.514   6.290  16.313  0.00  0.00    +0.000 A 
ATOM      3  C   UNL     1       4.772   6.578  17.450  0.00  0.00    +0.000 A 
ATOM      4  C   UNL     1       3.971   5.586  17.998  0.00  0.00    +0.000 A 
ATOM      5  C   UNL     1       3.933   4.334  17.384  0.00  0.00    +0.000 A 
ATOM      6  N   UNL     1       4.650   4.005  16.265  0.00  0.00    +0.000 NA
ENDROOT
BRANCH   1   8
ATOM      7  N   UNL     1       5.707   3.864  13.617  0.00  0.00    +0.000 N 
ATOM      8  C   UNL     1       6.264   4.716  14.547  0.00  0.00    +0.000 C 
ATOM      9  O   UNL     1       7.380   5.209  14.411  0.00  0.00    +0.000 OA
ATOM     10  H   UNL     1       4.772   3.515  13.802  0.00  0.00    +0.000 HD
BRANCH   7  11
ATOM     11  C   UNL     1       6.399   3.506  12.389  0.00  0.00    +0.000 C 
BRANCH  11  12
ATOM     12  C   UNL     1       5.590   2.530  11.541  0.00  0.00    +0.000 C 
BRANCH  12  14
ATOM     13  O   UNL     1       5.961   0.184  11.081  0.00  0.00    +0.000 OA
ATOM     14  C   UNL     1       6.414   1.313  11.210  0.00  0.00    +0.000 C 
BRANCH  14  15
ATOM     15  O   UNL     1       7.741   1.566  11.126  0.00  0.00    +0.000 OA
ATOM     16  H   UNL     1       8.168   1.775  11.981  0.00  0.00    +0.000 HD
ENDBRANCH  14  15
ENDBRANCH  12  14
ENDBRANCH  11  12
ENDBRANCH   7  11
ENDBRANCH   1   8
BRANCH   5  17
ATOM     17  C   UNL     1       3.036   3.283  17.981  0.00  0.00    +0.000 C 
ATOM     18  O   UNL     1       3.268   2.090  17.822  0.00  0.00    +0.000 OA
ATOM     19  N   UNL     1       1.961   3.746  18.714  0.00  0.00    +0.000 N 
ATOM     20  H   UNL     1       1.846   4.752  18.787  0.00  0.00    +0.000 HD
BRANCH  19  21
ATOM     21  C   UNL     1       0.995   2.846  19.321  0.00  0.00    +0.000 C 
BRANCH  21  22
ATOM     22  C   UNL     1       0.827   3.104  20.813  0.00  0.00    +0.000 C 
BRANCH  22  23
ATOM     23  C   UNL     1       2.154   3.455  21.440  0.00  0.00    +0.000 C 
ATOM     24  O   UNL     1       2.909   2.648  21.960  0.00  0.00    +0.000 OA
BRANCH  23  25
ATOM     25  O   UNL     1       2.416   4.782  21.428  0.00  0.00    +0.000 OA
ATOM     26  H   UNL     1       2.279   5.231  22.283  0.00  0.00    +0.000 HD
ENDBRANCH  23  25
ENDBRANCH  22  23
ENDBRANCH  21  22
ENDBRANCH  19  21
ENDBRANCH   5  17
TORSDOF 10
ENDMDL
MODEL 4
REMARK VINA RESULT:      -7.1      1.308      7.796
REMARK  Name = 
REMARK  10 active torsions:
REMARK  status: ('A' for Active; 'I' for Inactive)
REMARK    1  A    between atoms: C_2  and  O_3
REMARK    2  A    between atoms: C_2  and  C_4
REMARK    3  A    between atoms: C_4  and  C_5
REMARK    4  A    between atoms: C_5  and  N_6
REMARK    5  A    between atoms: C_7  and  C_9
REMARK    6  A    between atoms: C_13  and  C_14
REMARK    7  A    between atoms: N_16  and  C_17
REMARK    8  A    between atoms: C_17  and  C_18
REMARK    9  A    between atoms: C_18  and  C_19
REMARK   10  A    between atoms: C_19  and  O_21
REMARK                            x       y       z     vdW  Elec       q    Type
REMARK                         _______ _______ _______ _____ _____    ______ ____
ROOT
ATOM      1  C   UNL     1       6.594   5.015  16.100  0.00  0.00    +0.000 A 
ATOM      2  C   UNL     1       7.209   6.059  16.792  0.00  0.00    +0.000 A 
ATOM      3  C   UNL     1       6.930   6.221  18.143  0.00  0.00    +0.000 A 
ATOM      4  C   UNL     1       6.049   5.341  18.756  0.00  0.00    +0.000 A 
ATOM      5  C   UNL     1       5.468   4.327  17.994  0.00  0.00    +0.000 A 
ATOM      6  N   UNL     1       5.717   4.129  16.662  0.00  0.00    +0.000 NA
ENDROOT
BRANCH   1   8
ATOM      7  N   UNL     1       6.166   3.942  13.942  0.00  0.00    +0.000 N 
ATOM      8  C   UNL     1       6.934   4.845  14.646  0.00  0.00    +0.000 C 
ATOM      9  O   UNL     1       7.853   5.478  14.133  0.00  0.00    +0.000 OA
ATOM     10  H   UNL     1       5.416   3.475  14.442  0.00  0.00    +0.000 HD
BRANCH   7  11
ATOM     11  C   UNL     1       6.378   3.691  12.525  0.00  0.00    +0.000 C 
BRANCH  11  12
ATOM     12  C   UNL     1       5.458   2.596  11.995  0.00  0.00    +0.000 C 
BRANCH  12  14
ATOM     13  O   UNL     1       5.831   0.360  11.151  0.00  0.00    +0.000 OA
ATOM     14  C   UNL     1       6.267   1.478  11.390  0.00  0.00    +0.000 C 
BRANCH  14  15
ATOM     15  O   UNL     1       7.564   1.800  11.185  0.00  0.00    +0.000 OA
ATOM     16  H   UNL     1       8.100   1.859  12.002  0.00  0.00    +0.000 HD
ENDBRANCH  14  15
ENDBRANCH  12  14
ENDBRANCH  11  12
ENDBRANCH   7  11
ENDBRANCH   1   8
BRANCH   5  17
ATOM     17  C   UNL     1       4.495   3.403  18.675  0.00  0.00    +0.000 C 
ATOM     18  O   UNL     1       4.813   2.782  19.682  0.00  0.00    +0.000 OA
ATOM     19  N   UNL     1       3.240   3.313  18.105  0.00  0.00    +0.000 N 
ATOM     20  H   UNL     1       3.069   3.861  17.268  0.00  0.00    +0.000 HD
BRANCH  19  21
ATOM     21  C   UNL     1       2.211   2.436  18.637  0.00  0.00    +0.000 C 
BRANCH  21  22
ATOM     22  C   UNL     1       1.148   3.203  19.416  0.00  0.00    +0.000 C 
BRANCH  22  23
ATOM     23  C   UNL     1       1.545   3.328  20.866  0.00  0.00    +0.000 C 
ATOM     24  O   UNL     1       1.128   2.610  21.762  0.00  0.00    +0.000 OA
BRANCH  23  25
ATOM     25  O   UNL     1       2.379   4.366  21.105  0.00  0.00    +0.000 OA
ATOM     26  H   UNL     1       1.940   5.170  21.442  0.00  0.00    +0.000 HD
ENDBRANCH  23  25
ENDBRANCH  22  23
ENDBRANCH  21  22
ENDBRANCH  19  21
ENDBRANCH   5  17
TORSDOF 10
ENDMDL
MODEL 5
REMARK VINA RESULT:      -6.9      1.667      8.066
REMARK  Name = 
REMARK  10 active torsions:
REMARK  status: ('A' for Active; 'I' for Inactive)
REMARK    1  A    between atoms: C_2  and  O_3
REMARK    2  A    between atoms: C_2  and  C_4
REMARK    3  A    between atoms: C_4  and  C_5
REMARK    4  A    between atoms: C_5  and  N_6
REMARK    5  A    between atoms: C_7  and  C_9
REMARK    6  A    between atoms: C_13  and  C_14
REMARK    7  A    between atoms: N_16  and  C_17
REMARK    8  A    between atoms: C_17  and  C_18
REMARK    9  A    between atoms: C_18  and  C_19
REMARK   10  A    between atoms: C_19  and  O_21
REMARK                            x       y       z     vdW  Elec       q    Type
REMARK                         _______ _______ _______ _____ _____    ______ ____
ROOT
ATOM      1  C   UNL     1       5.639   5.288  15.758  0.00  0.00    +0.000 A 
ATOM      2  C   UNL     1       5.014   6.534  15.685  0.00  0.00    +0.000 A 
ATOM      3  C   UNL     1       4.314   6.996  16.791  0.00  0.00    +0.000 A 
ATOM      4  C   UNL     1       4.258   6.202  17.929  0.00  0.00    +0.000 A 
ATOM      5  C   UNL     1       4.902   4.965  17.922  0.00  0.00    +0.000 A 
ATOM      6  N   UNL     1       5.606   4.473  16.856  0.00  0.00    +0.000 NA
ENDROOT
BRANCH   1   8
ATOM      7  N   UNL     1       5.730   4.028  13.661  0.00  0.00    +0.000 N 
ATOM      8  C   UNL     1       6.413   4.823  14.557  0.00  0.00    +0.000 C 
ATOM      9  O   UNL     1       7.590   5.137  14.402  0.00  0.00    +0.000 OA
ATOM     10  H   UNL     1       4.754   3.832  13.860  0.00  0.00    +0.000 HD
BRANCH   7  11
ATOM     11  C   UNL     1       6.353   3.522  12.450  0.00  0.00    +0.000 C 
BRANCH  11  12
ATOM     12  C   UNL     1       5.515   2.435  11.786  0.00  0.00    +0.000 C 
BRANCH  12  14
ATOM     13  O   UNL     1       6.020   0.217  10.964  0.00  0.00    +0.000 OA
ATOM     14  C   UNL     1       6.401   1.346  11.240  0.00  0.00    +0.000 C 
BRANCH  14  15
ATOM     15  O   UNL     1       7.700   1.710  11.136  0.00  0.00    +0.000 OA
ATOM     16  H   UNL     1       7.962   2.024  10.247  0.00  0.00    +0.000 HD
ENDBRANCH  14  15
ENDBRANCH  12  14
ENDBRANCH  11  12
ENDBRANCH   7  11
ENDBRANCH   1   8
BRANCH   5  17
ATOM     17  C   UNL     1       4.803   4.112  19.158  0.00  0.00    +0.000 C 
ATOM     18  O   UNL     1       5.731   4.048  19.956  0.00  0.00    +0.000 OA
ATOM     19  N   UNL     1       3.616   3.428  19.333  0.00  0.00    +0.000 N 
ATOM     20  H   UNL     1       2.906   3.538  18.616  0.00  0.00    +0.000 HD
BRANCH  19  21
ATOM     21  C   UNL     1       3.394   2.543  20.463  0.00  0.00    +0.000 C 
BRANCH  21  22
ATOM     22  C   UNL     1       2.341   3.087  21.421  0.00  0.00    +0.000 C 
BRANCH  22  23
ATOM     23  C   UNL     1       1.556   4.197  20.765  0.00  0.00    +0.000 C 
ATOM     24  O   UNL     1       1.859   5.379  20.810  0.00  0.00    +0.000 OA
BRANCH  23  25
ATOM     25  O   UNL     1       0.427   3.765  20.157  0.00  0.00    +0.000 OA
ATOM     26  H   UNL     1      -0.324   3.605  20.760  0.00  0.00    +0.000 HD
ENDBRANCH  23  25
ENDBRANCH  22  23
ENDBRANCH  21  22
ENDBRANCH  19  21
ENDBRANCH   5  17
TORSDOF 10
ENDMDL
MODEL 6
REMARK VINA RESULT:      -6.9      1.268      7.927
REMARK  Name = 
REMARK  10 active torsions:
REMARK  status: ('A' for Active; 'I' for Inactive)
REMARK    1  A    between atoms: C_2  and  O_3
REMARK    2  A    between atoms: C_2  and  C_4
REMARK    3  A    between atoms: C_4  and  C_5
REMARK    4  A    between atoms: C_5  and  N_6
REMARK    5  A    between atoms: C_7  and  C_9
REMARK    6  A    between atoms: C_13  and  C_14
REMARK    7  A    between atoms: N_16  and  C_17
REMARK    8  A    between atoms: C_17  and  C_18
REMARK    9  A    between atoms: C_18  and  C_19
REMARK   10  A    between atoms: C_19  and  O_21
REMARK                            x       y       z     vdW  Elec       q    Type
REMARK                         _______ _______ _______ _____ _____    ______ ____
ROOT
ATOM      1  C   UNL     1       6.402   4.573  16.167  0.00  0.00    +0.000 A 
ATOM      2  C   UNL     1       7.126   5.394  17.033  0.00  0.00    +0.000 A 
ATOM      3  C   UNL     1       6.796   5.400  18.381  0.00  0.00    +0.000 A 
ATOM      4  C   UNL     1       5.757   4.591  18.821  0.00  0.00    +0.000 A 
ATOM      5  C   UNL     1       5.076   3.804  17.893  0.00  0.00    +0.000 A 
ATOM      6  N   UNL     1       5.370   3.765  16.557  0.00  0.00    +0.000 NA
ENDROOT
BRANCH   1   8
ATOM      7  N   UNL     1       6.132   3.667  13.909  0.00  0.00    +0.000 N 
ATOM      8  C   UNL     1       6.797   4.565  14.717  0.00  0.00    +0.000 C 
ATOM      9  O   UNL     1       7.672   5.317  14.296  0.00  0.00    +0.000 OA
ATOM     10  H   UNL     1       5.411   3.096  14.339  0.00  0.00    +0.000 HD
BRANCH   7  11
ATOM     11  C   UNL     1       6.405   3.565  12.485  0.00  0.00    +0.000 C 
BRANCH  11  12
ATOM     12  C   UNL     1       5.505   2.541  11.802  0.00  0.00    +0.000 C 
BRANCH  12  14
ATOM     13  O   UNL     1       5.876   0.236  11.165  0.00  0.00    +0.000 OA
ATOM     14  C   UNL     1       6.317   1.368  11.317  0.00  0.00    +0.000 C 
BRANCH  14  15
ATOM     15  O   UNL     1       7.622   1.662  11.116  0.00  0.00    +0.000 OA
ATOM     16  H   UNL     1       7.790   2.252  10.354  0.00  0.00    +0.000 HD
ENDBRANCH  14  15
ENDBRANCH  12  14
ENDBRANCH  11  12
ENDBRANCH   7  11
ENDBRANCH   1   8
BRANCH   5  17
ATOM     17  C   UNL     1       3.935   2.956  18.390  0.00  0.00    +0.000 C 
ATOM     18  O   UNL     1       3.370   2.161  17.648  0.00  0.00    +0.000 OA
ATOM     19  N   UNL     1       3.585   3.124  19.715  0.00  0.00    +0.000 N 
ATOM     20  H   UNL     1       4.107   3.810  20.251  0.00  0.00    +0.000 HD
BRANCH  19  21
ATOM     21  C   UNL     1       2.483   2.396  20.321  0.00  0.00    +0.000 C 
BRANCH  21  22
ATOM     22  C   UNL     1       1.447   3.329  20.937  0.00  0.00    +0.000 C 
BRANCH  22  23
ATOM     23  C   UNL     1       1.681   4.749  20.482  0.00  0.00    +0.000 C 
ATOM     24  O   UNL     1       1.334   5.195  19.399  0.00  0.00    +0.000 OA
BRANCH  23  25
ATOM     25  O   UNL     1       2.378   5.488  21.375  0.00  0.00    +0.000 OA
ATOM     26  H   UNL     1       1.881   6.234  21.762  0.00  0.00    +0.000 HD
ENDBRANCH  23  25
ENDBRANCH  22  23
ENDBRANCH  21  22
ENDBRANCH  19  21
ENDBRANCH   5  17
TORSDOF 10
ENDMDL
MODEL 7
REMARK VINA RESULT:      -6.9      1.556      1.793
REMARK  Name = 
REMARK  10 active torsions:
REMARK  status: ('A' for Active; 'I' for Inactive)
REMARK    1  A    between atoms: C_2  and  O_3
REMARK    2  A    between atoms: C_2  and  C_4
REMARK    3  A    between atoms: C_4  and  C_5
REMARK    4  A    between atoms: C_5  and  N_6
REMARK    5  A    between atoms: C_7  and  C_9
REMARK    6  A    between atoms: C_13  and  C_14
REMARK    7  A    between atoms: N_16  and  C_17
REMARK    8  A    between atoms: C_17  and  C_18
REMARK    9  A    between atoms: C_18  and  C_19
REMARK   10  A    between atoms: C_19  and  O_21
REMARK                            x       y       z     vdW  Elec       q    Type
REMARK                         _______ _______ _______ _____ _____    ______ ____
ROOT
ATOM      1  C   UNL     1       4.855   3.846  18.263  0.00  0.00    +0.000 A 
ATOM      2  C   UNL     1       5.476   4.605  19.256  0.00  0.00    +0.000 A 
ATOM      3  C   UNL     1       6.541   5.423  18.904  0.00  0.00    +0.000 A 
ATOM      4  C   UNL     1       6.952   5.456  17.578  0.00  0.00    +0.000 A 
ATOM      5  C   UNL     1       6.286   4.661  16.646  0.00  0.00    +0.000 A 
ATOM      6  N   UNL     1       5.230   3.844  16.948  0.00  0.00    +0.000 NA
ENDROOT
BRANCH   1   8
ATOM      7  N   UNL     1       2.465   3.623  18.740  0.00  0.00    +0.000 N 
ATOM      8  C   UNL     1       3.687   2.990  18.666  0.00  0.00    +0.000 C 
ATOM      9  O   UNL     1       3.835   1.797  18.919  0.00  0.00    +0.000 OA
ATOM     10  H   UNL     1       2.432   4.608  18.498  0.00  0.00    +0.000 HD
BRANCH   7  11
ATOM     11  C   UNL     1       1.250   2.910  19.104  0.00  0.00    +0.000 C 
BRANCH  11  12
ATOM     12  C   UNL     1       0.833   3.188  20.544  0.00  0.00    +0.000 C 
BRANCH  12  14
ATOM     13  O   UNL     1       2.365   4.826  21.452  0.00  0.00    +0.000 OA
ATOM     14  C   UNL     1       2.015   3.658  21.352  0.00  0.00    +0.000 C 
BRANCH  14  15
ATOM     15  O   UNL     1       2.713   2.650  21.923  0.00  0.00    +0.000 OA
ATOM     16  H   UNL     1       2.990   1.947  21.302  0.00  0.00    +0.000 HD
ENDBRANCH  14  15
ENDBRANCH  12  14
ENDBRANCH  11  12
ENDBRANCH   7  11
ENDBRANCH   1   8
BRANCH   5  17
ATOM     17  C   UNL     1       6.767   4.693  15.220  0.00  0.00    +0.000 C 
ATOM     18  O   UNL     1       7.546   5.558  14.836  0.00  0.00    +0.000 OA
ATOM     19  N   UNL     1       6.290   3.695  14.394  0.00  0.00    +0.000 N 
ATOM     20  H   UNL     1       5.645   3.024  14.799  0.00  0.00    +0.000 HD
BRANCH  19  21
ATOM     21  C   UNL     1       6.646   3.621  12.987  0.00  0.00    +0.000 C 
BRANCH  21  22
ATOM     22  C   UNL     1       5.468   3.957  12.078  0.00  0.00    +0.000 C 
BRANCH  22  23
ATOM     23  C   UNL     1       4.912   2.701  11.452  0.00  0.00    +0.000 C 
ATOM     24  O   UNL     1       5.523   1.649  11.351  0.00  0.00    +0.000 OA
BRANCH  23  25
ATOM     25  O   UNL     1       3.668   2.864  10.946  0.00  0.00    +0.000 OA
ATOM     26  H   UNL     1       3.025   2.183  11.220  0.00  0.00    +0.000 HD
ENDBRANCH  23  25
ENDBRANCH  22  23
ENDBRANCH  21  22
ENDBRANCH  19  21
ENDBRANCH   5  17
TORSDOF 10
ENDMDL
MODEL 8
REMARK VINA RESULT:      -6.8      0.965      1.079
REMARK  Name = 
REMARK  10 active torsions:
REMARK  status: ('A' for Active; 'I' for Inactive)
REMARK    1  A    between atoms: C_2  and  O_3
REMARK    2  A    between atoms: C_2  and  C_4
REMARK    3  A    between atoms: C_4  and  C_5
REMARK    4  A    between atoms: C_5  and  N_6
REMARK    5  A    between atoms: C_7  and  C_9
REMARK    6  A    between atoms: C_13  and  C_14
REMARK    7  A    between atoms: N_16  and  C_17
REMARK    8  A    between atoms: C_17  and  C_18
REMARK    9  A    between atoms: C_18  and  C_19
REMARK   10  A    between atoms: C_19  and  O_21
REMARK                            x       y       z     vdW  Elec       q    Type
REMARK                         _______ _______ _______ _____ _____    ______ ____
ROOT
ATOM      1  C   UNL     1       4.688   4.258  17.403  0.00  0.00    +0.000 A 
ATOM      2  C   UNL     1       5.538   4.378  18.504  0.00  0.00    +0.000 A 
ATOM      3  C   UNL     1       6.882   4.649  18.284  0.00  0.00    +0.000 A 
ATOM      4  C   UNL     1       7.333   4.790  16.979  0.00  0.00    +0.000 A 
ATOM      5  C   UNL     1       6.423   4.647  15.932  0.00  0.00    +0.000 A 
ATOM      6  N   UNL     1       5.091   4.384  16.102  0.00  0.00    +0.000 NA
ENDROOT
BRANCH   1   8
ATOM      7  N   UNL     1       2.707   4.566  18.808  0.00  0.00    +0.000 N 
ATOM      8  C   UNL     1       3.233   3.992  17.670  0.00  0.00    +0.000 C 
ATOM      9  O   UNL     1       2.569   3.293  16.909  0.00  0.00    +0.000 OA
ATOM     10  H   UNL     1       3.325   5.142  19.370  0.00  0.00    +0.000 HD
BRANCH   7  11
ATOM     11  C   UNL     1       1.311   4.401  19.177  0.00  0.00    +0.000 C 
BRANCH  11  12
ATOM     12  C   UNL     1       1.155   3.753  20.549  0.00  0.00    +0.000 C 
BRANCH  12  14
ATOM     13  O   UNL     1       2.986   2.578  21.607  0.00  0.00    +0.000 OA
ATOM     14  C   UNL     1       2.148   2.633  20.717  0.00  0.00    +0.000 C 
BRANCH  14  15
ATOM     15  O   UNL     1       2.077   1.698  19.742  0.00  0.00    +0.000 OA
ATOM     16  H   UNL     1       1.866   0.798  20.061  0.00  0.00    +0.000 HD
ENDBRANCH  14  15
ENDBRANCH  12  14
ENDBRANCH  11  12
ENDBRANCH   7  11
ENDBRANCH   1   8
BRANCH   5  17
ATOM     17  C   UNL     1       6.942   4.777  14.525  0.00  0.00    +0.000 C 
ATOM     18  O   UNL     1       7.848   5.558  14.255  0.00  0.00    +0.000 OA
ATOM     19  N   UNL     1       6.348   3.964  13.579  0.00  0.00    +0.000 N 
ATOM     20  H   UNL     1       5.602   3.352  13.895  0.00  0.00    +0.000 HD
BRANCH  19  21
ATOM     21  C   UNL     1       6.727   4.006  12.177  0.00  0.00    +0.000 C 
BRANCH  21  22
ATOM     22  C   UNL     1       7.073   2.625  11.634  0.00  0.00    +0.000 C 
BRANCH  22  23
ATOM     23  C   UNL     1       5.819   1.814  11.416  0.00  0.00    +0.000 C 
ATOM     24  O   UNL     1       4.697   2.288  11.322  0.00  0.00    +0.000 OA
BRANCH  23  25
ATOM     25  O   UNL     1       6.042   0.480  11.394  0.00  0.00    +0.000 OA
ATOM     26  H   UNL     1       5.394  -0.049  11.895  0.00  0.00    +0.000 HD
ENDBRANCH  23  25
ENDBRANCH  22  23
ENDBRANCH  21  22
ENDBRANCH  19  21
ENDBRANCH   5  17
TORSDOF 10
ENDMDL
MODEL 9
REMARK VINA RESULT:      -6.8      1.232      7.655
REMARK  Name = 
REMARK  10 active torsions:
REMARK  status: ('A' for Active; 'I' for Inactive)
REMARK    1  A    between atoms: C_2  and  O_3
REMARK    2  A    between atoms: C_2  and  C_4
REMARK    3  A    between atoms: C_4  and  C_5
REMARK    4  A    between atoms: C_5  and  N_6
REMARK    5  A    between atoms: C_7  and  C_9
REMARK    6  A    between atoms: C_13  and  C_14
REMARK    7  A    between atoms: N_16  and  C_17
REMARK    8  A    between atoms: C_17  and  C_18
REMARK    9  A    between atoms: C_18  and  C_19
REMARK   10  A    between atoms: C_19  and  O_21
REMARK                            x       y       z     vdW  Elec       q    Type
REMARK                         _______ _______ _______ _____ _____    ______ ____
ROOT
ATOM      1  C   UNL     1       6.312   5.120  15.905  0.00  0.00    +0.000 A 
ATOM      2  C   UNL     1       7.274   5.536  16.827  0.00  0.00    +0.000 A 
ATOM      3  C   UNL     1       6.890   5.747  18.144  0.00  0.00    +0.000 A 
ATOM      4  C   UNL     1       5.563   5.540  18.497  0.00  0.00    +0.000 A 
ATOM      5  C   UNL     1       4.660   5.132  17.516  0.00  0.00    +0.000 A 
ATOM      6  N   UNL     1       4.995   4.909  16.208  0.00  0.00    +0.000 NA
ENDROOT
BRANCH   1   8
ATOM      7  N   UNL     1       6.027   3.951  13.773  0.00  0.00    +0.000 N 
ATOM      8  C   UNL     1       6.760   4.872  14.491  0.00  0.00    +0.000 C 
ATOM      9  O   UNL     1       7.730   5.461  14.023  0.00  0.00    +0.000 OA
ATOM     10  H   UNL     1       5.230   3.525  14.234  0.00  0.00    +0.000 HD
BRANCH   7  11
ATOM     11  C   UNL     1       6.342   3.627  12.391  0.00  0.00    +0.000 C 
BRANCH  11  12
ATOM     12  C   UNL     1       5.452   2.515  11.847  0.00  0.00    +0.000 C 
BRANCH  12  14
ATOM     13  O   UNL     1       5.875   0.240  11.139  0.00  0.00    +0.000 OA
ATOM     14  C   UNL     1       6.290   1.375  11.330  0.00  0.00    +0.000 C 
BRANCH  14  15
ATOM     15  O   UNL     1       7.590   1.702  11.147  0.00  0.00    +0.000 OA
ATOM     16  H   UNL     1       8.187   0.936  11.031  0.00  0.00    +0.000 HD
ENDBRANCH  14  15
ENDBRANCH  12  14
ENDBRANCH  11  12
ENDBRANCH   7  11
ENDBRANCH   1   8
BRANCH   5  17
ATOM     17  C   UNL     1       3.222   4.941  17.918  0.00  0.00    +0.000 C 
ATOM     18  O   UNL     1       2.560   5.873  18.359  0.00  0.00    +0.000 OA
ATOM     19  N   UNL     1       2.706   3.671  17.749  0.00  0.00    +0.000 N 
ATOM     20  H   UNL     1       3.331   2.961  17.381  0.00  0.00    +0.000 HD
BRANCH  19  21
ATOM     21  C   UNL     1       1.344   3.334  18.124  0.00  0.00    +0.000 C 
BRANCH  21  22
ATOM     22  C   UNL     1       1.289   2.157  19.092  0.00  0.00    +0.000 C 
BRANCH  22  23
ATOM     23  C   UNL     1       1.803   2.567  20.450  0.00  0.00    +0.000 C 
ATOM     24  O   UNL     1       1.095   2.921  21.380  0.00  0.00    +0.000 OA
BRANCH  23  25
ATOM     25  O   UNL     1       3.153   2.565  20.532  0.00  0.00    +0.000 OA
ATOM     26  H   UNL     1       3.561   1.679  20.502  0.00  0.00    +0.000 HD
ENDBRANCH  23  25
ENDBRANCH  22  23
ENDBRANCH  21  22
ENDBRANCH  19  21
ENDBRANCH   5  17
TORSDOF 10
ENDMDL
