MODEL 1
REMARK VINA RESULT:      -8.3      0.000      0.000
REMARK  Name = 
REMARK  6 active torsions:
REMARK  status: ('A' for Active; 'I' for Inactive)
REMARK    1  A    between atoms: C_1  and  O_2
REMARK    2  A    between atoms: O_2  and  C_3
REMARK    3  A    between atoms: C_7  and  C_8
REMARK    4  A    between atoms: C_8  and  C_9
REMARK    5  A    between atoms: C_9  and  C_10
REMARK    6  A    between atoms: C_22  and  C_24
REMARK                            x       y       z     vdW  Elec       q    Type
REMARK                         _______ _______ _______ _____ _____    ______ ____
ROOT
ATOM      1  C   UNL     1       2.498   6.964  19.585  0.00  0.00    +0.000 C 
ATOM      2  C   UNL     1       2.220   7.709  18.273  0.00  0.00    +0.000 C 
ATOM      3  C   UNL     1       3.527   7.858  17.518  0.00  0.00    +0.000 C 
ATOM      4  C   UNL     1       4.316   6.580  17.471  0.00  0.00    +0.000 A 
ATOM      5  N   UNL     1       5.300   6.569  16.547  0.00  0.00    +0.000 NA
ATOM      6  C   UNL     1       6.080   5.492  16.510  0.00  0.00    +0.000 A 
ATOM      7  N   UNL     1       7.045   5.446  15.529  0.00  0.00    +0.000 N 
ATOM      8  N   UNL     1       6.023   4.489  17.384  0.00  0.00    +0.000 NA
ATOM      9  C   UNL     1       5.052   4.530  18.321  0.00  0.00    +0.000 A 
ATOM     10  N   UNL     1       5.243   3.595  19.328  0.00  0.00    +0.000 N 
ATOM     11  C   UNL     1       4.079   5.529  18.357  0.00  0.00    +0.000 A 
ATOM     12  N   UNL     1       2.921   5.564  19.224  0.00  0.00    +0.000 N 
ATOM     13  C   UNL     1       2.090   4.460  19.469  0.00  0.00    +0.000 C 
ATOM     14  O   UNL     1       1.188   4.494  20.313  0.00  0.00    +0.000 OA
ATOM     15  H   UNL     1       7.272   6.386  15.228  0.00  0.00    +0.000 HD
ATOM     16  H   UNL     1       7.811   4.864  15.827  0.00  0.00    +0.000 HD
ATOM     17  H   UNL     1       5.978   2.953  19.041  0.00  0.00    +0.000 HD
ATOM     18  H   UNL     1       4.453   3.144  19.752  0.00  0.00    +0.000 HD
ENDROOT
BRANCH  13  19
ATOM     19  C   UNL     1       2.252   3.180  18.648  0.00  0.00    +0.000 C 
ATOM     20 CL   UNL     1       0.739   2.241  18.681  0.00  0.00    +0.000 Cl
ENDBRANCH  13  19
BRANCH   1  21
ATOM     21  C   UNL     1       1.334   7.171  20.585  0.00  0.00    +0.000 C 
BRANCH  21  22
ATOM     22  C   UNL     1       1.614   8.220  21.688  0.00  0.00    +0.000 C 
BRANCH  22  27
ATOM     23  C   UNL     1      -0.706  11.115  20.765  0.00  0.00    +0.000 A 
ATOM     24  C   UNL     1      -1.293  11.381  22.003  0.00  0.00    +0.000 A 
ATOM     25  C   UNL     1      -0.978  10.608  23.119  0.00  0.00    +0.000 A 
ATOM     26  C   UNL     1      -0.057   9.569  23.007  0.00  0.00    +0.000 A 
ATOM     27  C   UNL     1       0.559   9.297  21.779  0.00  0.00    +0.000 A 
ATOM     28  C   UNL     1       0.212  10.068  20.653  0.00  0.00    +0.000 A 
BRANCH  23  30
ATOM     29  C   UNL     1      -0.976  11.479  18.428  0.00  0.00    +0.000 C 
ATOM     30  O   UNL     1      -1.098  11.958  19.760  0.00  0.00    +0.000 OA
ENDBRANCH  23  30
ENDBRANCH  22  27
ENDBRANCH  21  22
ENDBRANCH   1  21
TORSDOF 5
ENDMDL
MODEL 2
REMARK VINA RESULT:      -8.2      0.896      1.583
REMARK  Name = 
REMARK  6 active torsions:
REMARK  status: ('A' for Active; 'I' for Inactive)
REMARK    1  A    between atoms: C_1  and  O_2
REMARK    2  A    between atoms: O_2  and  C_3
REMARK    3  A    between atoms: C_7  and  C_8
REMARK    4  A    between atoms: C_8  and  C_9
REMARK    5  A    between atoms: C_9  and  C_10
REMARK    6  A    between atoms: C_22  and  C_24
REMARK                            x       y       z     vdW  Elec       q    Type
REMARK                         _______ _______ _______ _____ _____    ______ ____
ROOT
ATOM      1  C   UNL     1       2.535   6.944  19.545  0.00  0.00    +0.000 C 
ATOM      2  C   UNL     1       2.256   7.677  18.227  0.00  0.00    +0.000 C 
ATOM      3  C   UNL     1       3.565   7.827  17.474  0.00  0.00    +0.000 C 
ATOM      4  C   UNL     1       4.361   6.554  17.439  0.00  0.00    +0.000 A 
ATOM      5  N   UNL     1       5.348   6.541  16.518  0.00  0.00    +0.000 NA
ATOM      6  C   UNL     1       6.133   5.468  16.491  0.00  0.00    +0.000 A 
ATOM      7  N   UNL     1       7.102   5.420  15.513  0.00  0.00    +0.000 N 
ATOM      8  N   UNL     1       6.080   4.471  17.374  0.00  0.00    +0.000 NA
ATOM      9  C   UNL     1       5.105   4.515  18.307  0.00  0.00    +0.000 A 
ATOM     10  N   UNL     1       5.298   3.588  19.322  0.00  0.00    +0.000 N 
ATOM     11  C   UNL     1       4.128   5.508  18.332  0.00  0.00    +0.000 A 
ATOM     12  N   UNL     1       2.966   5.543  19.196  0.00  0.00    +0.000 N 
ATOM     13  C   UNL     1       2.141   4.438  19.447  0.00  0.00    +0.000 C 
ATOM     14  O   UNL     1       1.237   4.472  20.288  0.00  0.00    +0.000 OA
ATOM     15  H   UNL     1       7.325   6.358  15.206  0.00  0.00    +0.000 HD
ATOM     16  H   UNL     1       7.870   4.844  15.819  0.00  0.00    +0.000 HD
ATOM     17  H   UNL     1       6.038   2.948  19.041  0.00  0.00    +0.000 HD
ATOM     18  H   UNL     1       4.510   3.136  19.747  0.00  0.00    +0.000 HD
ENDROOT
BRANCH  13  19
ATOM     19  C   UNL     1       2.312   3.151  18.637  0.00  0.00    +0.000 C 
ATOM     20 CL   UNL     1       0.803   2.206  18.671  0.00  0.00    +0.000 Cl
ENDBRANCH  13  19
BRANCH   1  21
ATOM     21  C   UNL     1       1.367   7.153  20.541  0.00  0.00    +0.000 C 
BRANCH  21  22
ATOM     22  C   UNL     1       1.620   8.246  21.606  0.00  0.00    +0.000 C 
BRANCH  22  27
ATOM     23  C   UNL     1      -0.971  10.927  22.453  0.00  0.00    +0.000 A 
ATOM     24  C   UNL     1      -1.130  11.536  21.208  0.00  0.00    +0.000 A 
ATOM     25  C   UNL     1      -0.378  11.117  20.111  0.00  0.00    +0.000 A 
ATOM     26  C   UNL     1       0.530  10.070  20.251  0.00  0.00    +0.000 A 
ATOM     27  C   UNL     1       0.691   9.431  21.486  0.00  0.00    +0.000 A 
ATOM     28  C   UNL     1      -0.055   9.881  22.593  0.00  0.00    +0.000 A 
BRANCH  23  30
ATOM     29  C   UNL     1      -2.878  12.233  23.025  0.00  0.00    +0.000 C 
ATOM     30  O   UNL     1      -1.779  11.430  23.436  0.00  0.00    +0.000 OA
ENDBRANCH  23  30
ENDBRANCH  22  27
ENDBRANCH  21  22
ENDBRANCH   1  21
TORSDOF 5
ENDMDL
MODEL 3
REMARK VINA RESULT:      -8.0      0.873      1.320
REMARK  Name = 
REMARK  6 active torsions:
REMARK  status: ('A' for Active; 'I' for Inactive)
REMARK    1  A    between atoms: C_1  and  O_2
REMARK    2  A    between atoms: O_2  and  C_3
REMARK    3  A    between atoms: C_7  and  C_8
REMARK    4  A    between atoms: C_8  and  C_9
REMARK    5  A    between atoms: C_9  and  C_10
REMARK    6  A    between atoms: C_22  and  C_24
REMARK                            x       y       z     vdW  Elec       q    Type
REMARK                         _______ _______ _______ _____ _____    ______ ____
ROOT
ATOM      1  C   UNL     1       3.000   7.168  19.165  0.00  0.00    +0.000 C 
ATOM      2  C   UNL     1       2.791   7.804  17.785  0.00  0.00    +0.000 C 
ATOM      3  C   UNL     1       4.109   7.769  17.035  0.00  0.00    +0.000 C 
ATOM      4  C   UNL     1       4.788   6.432  17.121  0.00  0.00    +0.000 A 
ATOM      5  N   UNL     1       5.772   6.250  16.215  0.00  0.00    +0.000 NA
ATOM      6  C   UNL     1       6.458   5.113  16.290  0.00  0.00    +0.000 A 
ATOM      7  N   UNL     1       7.421   4.893  15.331  0.00  0.00    +0.000 N 
ATOM      8  N   UNL     1       6.314   4.208  17.256  0.00  0.00    +0.000 NA
ATOM      9  C   UNL     1       5.345   4.420  18.172  0.00  0.00    +0.000 A 
ATOM     10  N   UNL     1       5.452   3.573  19.267  0.00  0.00    +0.000 N 
ATOM     11  C   UNL     1       4.460   5.495  18.100  0.00  0.00    +0.000 A 
ATOM     12  N   UNL     1       3.304   5.709  18.945  0.00  0.00    +0.000 N 
ATOM     13  C   UNL     1       2.383   4.708  19.284  0.00  0.00    +0.000 C 
ATOM     14  O   UNL     1       1.483   4.897  20.110  0.00  0.00    +0.000 OA
ATOM     15  H   UNL     1       7.728   5.777  14.945  0.00  0.00    +0.000 HD
ATOM     16  H   UNL     1       8.134   4.281  15.693  0.00  0.00    +0.000 HD
ATOM     17  H   UNL     1       6.132   2.847  19.051  0.00  0.00    +0.000 HD
ATOM     18  H   UNL     1       4.626   3.233  19.722  0.00  0.00    +0.000 HD
ENDROOT
BRANCH  13  19
ATOM     19  C   UNL     1       2.440   3.345  18.592  0.00  0.00    +0.000 C 
ATOM     20 CL   UNL     1       0.851   2.547  18.688  0.00  0.00    +0.000 Cl
ENDBRANCH  13  19
BRANCH   1  21
ATOM     21  C   UNL     1       1.852   7.567  20.126  0.00  0.00    +0.000 C 
BRANCH  21  22
ATOM     22  C   UNL     1       1.157   8.903  19.774  0.00  0.00    +0.000 C 
BRANCH  22  27
ATOM     23  C   UNL     1      -1.058  11.246  21.830  0.00  0.00    +0.000 A 
ATOM     24  C   UNL     1      -0.918  10.686  23.101  0.00  0.00    +0.000 A 
ATOM     25  C   UNL     1      -0.151   9.537  23.290  0.00  0.00    +0.000 A 
ATOM     26  C   UNL     1       0.497   8.948  22.207  0.00  0.00    +0.000 A 
ATOM     27  C   UNL     1       0.386   9.505  20.926  0.00  0.00    +0.000 A 
ATOM     28  C   UNL     1      -0.413  10.649  20.744  0.00  0.00    +0.000 A 
BRANCH  23  30
ATOM     29  C   UNL     1      -2.921  12.447  22.700  0.00  0.00    +0.000 C 
ATOM     30  O   UNL     1      -1.829  12.376  21.792  0.00  0.00    +0.000 OA
ENDBRANCH  23  30
ENDBRANCH  22  27
ENDBRANCH  21  22
ENDBRANCH   1  21
TORSDOF 5
ENDMDL
MODEL 4
REMARK VINA RESULT:      -7.8      4.210      8.119
REMARK  Name = 
REMARK  6 active torsions:
REMARK  status: ('A' for Active; 'I' for Inactive)
REMARK    1  A    between atoms: C_1  and  O_2
REMARK    2  A    between atoms: O_2  and  C_3
REMARK    3  A    between atoms: C_7  and  C_8
REMARK    4  A    between atoms: C_8  and  C_9
REMARK    5  A    between atoms: C_9  and  C_10
REMARK    6  A    between atoms: C_22  and  C_24
REMARK                            x       y       z     vdW  Elec       q    Type
REMARK                         _______ _______ _______ _____ _____    ______ ____
ROOT
ATOM      1  C   UNL     1       1.218   8.716  20.936  0.00  0.00    +0.000 C 
ATOM      2  C   UNL     1       0.011   8.254  21.764  0.00  0.00    +0.000 C 
ATOM      3  C   UNL     1      -0.267   9.294  22.832  0.00  0.00    +0.000 C 
ATOM      4  C   UNL     1      -0.254  10.696  22.292  0.00  0.00    +0.000 A 
ATOM      5  N   UNL     1      -0.815  11.612  23.110  0.00  0.00    +0.000 NA
ATOM      6  C   UNL     1      -0.766  12.881  22.717  0.00  0.00    +0.000 A 
ATOM      7  N   UNL     1      -1.391  13.813  23.516  0.00  0.00    +0.000 N 
ATOM      8  N   UNL     1      -0.113  13.313  21.640  0.00  0.00    +0.000 NA
ATOM      9  C   UNL     1       0.468  12.387  20.848  0.00  0.00    +0.000 A 
ATOM     10  N   UNL     1       1.333  12.947  19.918  0.00  0.00    +0.000 N 
ATOM     11  C   UNL     1       0.346  11.016  21.074  0.00  0.00    +0.000 A 
ATOM     12  N   UNL     1       0.802   9.960  20.195  0.00  0.00    +0.000 N 
ATOM     13  C   UNL     1       0.608   9.956  18.806  0.00  0.00    +0.000 C 
ATOM     14  O   UNL     1       1.122   9.104  18.075  0.00  0.00    +0.000 OA
ATOM     15  H   UNL     1      -1.462  13.460  24.462  0.00  0.00    +0.000 HD
ATOM     16  H   UNL     1      -0.958  14.715  23.396  0.00  0.00    +0.000 HD
ATOM     17  H   UNL     1       1.198  13.956  19.915  0.00  0.00    +0.000 HD
ATOM     18  H   UNL     1       1.417  12.546  19.003  0.00  0.00    +0.000 HD
ENDROOT
BRANCH  13  19
ATOM     19  C   UNL     1      -0.302  10.999  18.155  0.00  0.00    +0.000 C 
ATOM     20 CL   UNL     1      -1.854  10.253  17.701  0.00  0.00    +0.000 Cl
ENDBRANCH  13  19
BRANCH   1  21
ATOM     21  C   UNL     1       1.823   7.529  20.147  0.00  0.00    +0.000 C 
BRANCH  21  22
ATOM     22  C   UNL     1       1.780   6.175  20.894  0.00  0.00    +0.000 C 
BRANCH  22  27
ATOM     23  C   UNL     1       2.646   3.857  17.980  0.00  0.00    +0.000 A 
ATOM     24  C   UNL     1       1.745   2.814  18.201  0.00  0.00    +0.000 A 
ATOM     25  C   UNL     1       0.893   2.834  19.305  0.00  0.00    +0.000 A 
ATOM     26  C   UNL     1       0.927   3.910  20.188  0.00  0.00    +0.000 A 
ATOM     27  C   UNL     1       1.809   4.976  19.974  0.00  0.00    +0.000 A 
ATOM     28  C   UNL     1       2.683   4.932  18.871  0.00  0.00    +0.000 A 
BRANCH  23  30
ATOM     29  C   UNL     1       4.608   4.477  16.782  0.00  0.00    +0.000 C 
ATOM     30  O   UNL     1       3.412   3.712  16.855  0.00  0.00    +0.000 OA
ENDBRANCH  23  30
ENDBRANCH  22  27
ENDBRANCH  21  22
ENDBRANCH   1  21
TORSDOF 5
ENDMDL
MODEL 5
REMARK VINA RESULT:      -7.6      2.782      4.239
REMARK  Name = 
REMARK  6 active torsions:
REMARK  status: ('A' for Active; 'I' for Inactive)
REMARK    1  A    between atoms: C_1  and  O_2
REMARK    2  A    between atoms: O_2  and  C_3
REMARK    3  A    between atoms: C_7  and  C_8
REMARK    4  A    between atoms: C_8  and  C_9
REMARK    5  A    between atoms: C_9  and  C_10
REMARK    6  A    between atoms: C_22  and  C_24
REMARK                            x       y       z     vdW  Elec       q    Type
REMARK                         _______ _______ _______ _____ _____    ______ ____
ROOT
ATOM      1  C   UNL     1       2.078   7.178  18.498  0.00  0.00    +0.000 C 
ATOM      2  C   UNL     1       2.191   7.603  19.968  0.00  0.00    +0.000 C 
ATOM      3  C   UNL     1       1.595   6.508  20.832  0.00  0.00    +0.000 C 
ATOM      4  C   UNL     1       2.067   5.138  20.436  0.00  0.00    +0.000 A 
ATOM      5  N   UNL     1       1.838   4.182  21.362  0.00  0.00    +0.000 NA
ATOM      6  C   UNL     1       2.168   2.936  21.037  0.00  0.00    +0.000 A 
ATOM      7  N   UNL     1       1.996   1.966  21.999  0.00  0.00    +0.000 N 
ATOM      8  N   UNL     1       2.599   2.559  19.834  0.00  0.00    +0.000 NA
ATOM      9  C   UNL     1       2.795   3.523  18.910  0.00  0.00    +0.000 A 
ATOM     10  N   UNL     1       2.983   3.009  17.635  0.00  0.00    +0.000 N 
ATOM     11  C   UNL     1       2.634   4.880  19.188  0.00  0.00    +0.000 A 
ATOM     12  N   UNL     1       2.970   5.979  18.308  0.00  0.00    +0.000 N 
ATOM     13  C   UNL     1       4.162   6.060  17.573  0.00  0.00    +0.000 C 
ATOM     14  O   UNL     1       4.356   6.948  16.736  0.00  0.00    +0.000 OA
ATOM     15  H   UNL     1       1.297   2.267  22.667  0.00  0.00    +0.000 HD
ATOM     16  H   UNL     1       1.853   1.070  21.563  0.00  0.00    +0.000 HD
ATOM     17  H   UNL     1       3.118   2.002  17.707  0.00  0.00    +0.000 HD
ATOM     18  H   UNL     1       3.614   3.459  16.999  0.00  0.00    +0.000 HD
ENDROOT
BRANCH  13  19
ATOM     19  C   UNL     1       5.291   5.061  17.827  0.00  0.00    +0.000 C 
ATOM     20 CL   UNL     1       6.128   5.463  19.347  0.00  0.00    +0.000 Cl
ENDBRANCH  13  19
BRANCH   1  21
ATOM     21  C   UNL     1       2.244   8.403  17.564  0.00  0.00    +0.000 C 
BRANCH  21  22
ATOM     22  C   UNL     1       1.974   9.767  18.242  0.00  0.00    +0.000 C 
BRANCH  22  27
ATOM     23  C   UNL     1      -1.757  10.062  17.461  0.00  0.00    +0.000 A 
ATOM     24  C   UNL     1      -2.184  10.853  18.529  0.00  0.00    +0.000 A 
ATOM     25  C   UNL     1      -1.287  11.253  19.519  0.00  0.00    +0.000 A 
ATOM     26  C   UNL     1       0.051  10.878  19.436  0.00  0.00    +0.000 A 
ATOM     27  C   UNL     1       0.505  10.101  18.363  0.00  0.00    +0.000 A 
ATOM     28  C   UNL     1      -0.415   9.680  17.384  0.00  0.00    +0.000 A 
BRANCH  23  30
ATOM     29  C   UNL     1      -2.895  10.620  15.445  0.00  0.00    +0.000 C 
ATOM     30  O   UNL     1      -2.739   9.752  16.560  0.00  0.00    +0.000 OA
ENDBRANCH  23  30
ENDBRANCH  22  27
ENDBRANCH  21  22
ENDBRANCH   1  21
TORSDOF 5
ENDMDL
MODEL 6
REMARK VINA RESULT:      -7.6      4.325      8.393
REMARK  Name = 
REMARK  6 active torsions:
REMARK  status: ('A' for Active; 'I' for Inactive)
REMARK    1  A    between atoms: C_1  and  O_2
REMARK    2  A    between atoms: O_2  and  C_3
REMARK    3  A    between atoms: C_7  and  C_8
REMARK    4  A    between atoms: C_8  and  C_9
REMARK    5  A    between atoms: C_9  and  C_10
REMARK    6  A    between atoms: C_22  and  C_24
REMARK                            x       y       z     vdW  Elec       q    Type
REMARK                         _______ _______ _______ _____ _____    ______ ____
ROOT
ATOM      1  C   UNL     1       1.243   9.035  20.524  0.00  0.00    +0.000 C 
ATOM      2  C   UNL     1       0.283   8.396  21.535  0.00  0.00    +0.000 C 
ATOM      3  C   UNL     1       0.051   9.378  22.667  0.00  0.00    +0.000 C 
ATOM      4  C   UNL     1      -0.236  10.768  22.176  0.00  0.00    +0.000 A 
ATOM      5  N   UNL     1      -0.769  11.588  23.107  0.00  0.00    +0.000 NA
ATOM      6  C   UNL     1      -0.976  12.852  22.751  0.00  0.00    +0.000 A 
ATOM      7  N   UNL     1      -1.578  13.677  23.674  0.00  0.00    +0.000 N 
ATOM      8  N   UNL     1      -0.594  13.381  21.590  0.00  0.00    +0.000 NA
ATOM      9  C   UNL     1      -0.035  12.554  20.680  0.00  0.00    +0.000 A 
ATOM     10  N   UNL     1       0.562  13.241  19.632  0.00  0.00    +0.000 N 
ATOM     11  C   UNL     1       0.086  11.180  20.883  0.00  0.00    +0.000 A 
ATOM     12  N   UNL     1       0.527  10.207  19.905  0.00  0.00    +0.000 N 
ATOM     13  C   UNL     1       0.092  10.181  18.572  0.00  0.00    +0.000 C 
ATOM     14  O   UNL     1       0.587   9.417  17.737  0.00  0.00    +0.000 OA
ATOM     15  H   UNL     1      -1.428  13.313  24.607  0.00  0.00    +0.000 HD
ATOM     16  H   UNL     1      -1.309  14.634  23.509  0.00  0.00    +0.000 HD
ATOM     17  H   UNL     1       0.283  14.219  19.683  0.00  0.00    +0.000 HD
ATOM     18  H   UNL     1       0.539  12.860  18.704  0.00  0.00    +0.000 HD
ENDROOT
BRANCH  13  19
ATOM     19  C   UNL     1      -1.060  11.080  18.122  0.00  0.00    +0.000 C 
ATOM     20 CL   UNL     1      -2.553  10.123  17.967  0.00  0.00    +0.000 Cl
ENDBRANCH  13  19
BRANCH   1  21
ATOM     21  C   UNL     1       1.865   7.954  19.605  0.00  0.00    +0.000 C 
BRANCH  21  22
ATOM     22  C   UNL     1       1.986   6.555  20.254  0.00  0.00    +0.000 C 
BRANCH  22  27
ATOM     23  C   UNL     1       4.850   4.555  18.699  0.00  0.00    +0.000 A 
ATOM     24  C   UNL     1       4.159   3.822  17.732  0.00  0.00    +0.000 A 
ATOM     25  C   UNL     1       2.776   3.938  17.608  0.00  0.00    +0.000 A 
ATOM     26  C   UNL     1       2.073   4.802  18.443  0.00  0.00    +0.000 A 
ATOM     27  C   UNL     1       2.748   5.561  19.407  0.00  0.00    +0.000 A 
ATOM     28  C   UNL     1       4.142   5.416  19.541  0.00  0.00    +0.000 A 
BRANCH  23  30
ATOM     29  C   UNL     1       7.023   5.453  19.071  0.00  0.00    +0.000 C 
ATOM     30  O   UNL     1       6.204   4.352  18.702  0.00  0.00    +0.000 OA
ENDBRANCH  23  30
ENDBRANCH  22  27
ENDBRANCH  21  22
ENDBRANCH   1  21
TORSDOF 5
ENDMDL
MODEL 7
REMARK VINA RESULT:      -7.6      4.325      8.329
REMARK  Name = 
REMARK  6 active torsions:
REMARK  status: ('A' for Active; 'I' for Inactive)
REMARK    1  A    between atoms: C_1  and  O_2
REMARK    2  A    between atoms: O_2  and  C_3
REMARK    3  A    between atoms: C_7  and  C_8
REMARK    4  A    between atoms: C_8  and  C_9
REMARK    5  A    between atoms: C_9  and  C_10
REMARK    6  A    between atoms: C_22  and  C_24
REMARK                            x       y       z     vdW  Elec       q    Type
REMARK                         _______ _______ _______ _____ _____    ______ ____
ROOT
ATOM      1  C   UNL     1       1.051   9.465  19.983  0.00  0.00    +0.000 C 
ATOM      2  C   UNL     1       0.543   8.697  21.210  0.00  0.00    +0.000 C 
ATOM      3  C   UNL     1       0.421   9.668  22.368  0.00  0.00    +0.000 C 
ATOM      4  C   UNL     1      -0.264  10.947  21.981  0.00  0.00    +0.000 A 
ATOM      5  N   UNL     1      -0.690  11.688  23.026  0.00  0.00    +0.000 NA
ATOM      6  C   UNL     1      -1.239  12.867  22.745  0.00  0.00    +0.000 A 
ATOM      7  N   UNL     1      -1.733  13.600  23.801  0.00  0.00    +0.000 N 
ATOM      8  N   UNL     1      -1.293  13.403  21.527  0.00  0.00    +0.000 NA
ATOM      9  C   UNL     1      -0.836  12.661  20.497  0.00  0.00    +0.000 A 
ATOM     10  N   UNL     1      -0.691  13.400  19.331  0.00  0.00    +0.000 N 
ATOM     11  C   UNL     1      -0.386  11.350  20.651  0.00  0.00    +0.000 A 
ATOM     12  N   UNL     1      -0.028  10.438  19.585  0.00  0.00    +0.000 N 
ATOM     13  C   UNL     1      -0.784  10.259  18.418  0.00  0.00    +0.000 C 
ATOM     14  O   UNL     1      -0.380   9.570  17.475  0.00  0.00    +0.000 OA
ATOM     15  H   UNL     1      -1.271  13.320  24.658  0.00  0.00    +0.000 HD
ATOM     16  H   UNL     1      -1.719  14.582  23.575  0.00  0.00    +0.000 HD
ATOM     17  H   UNL     1      -1.141  14.304  19.461  0.00  0.00    +0.000 HD
ATOM     18  H   UNL     1      -0.879  12.978  18.441  0.00  0.00    +0.000 HD
ENDROOT
BRANCH  13  19
ATOM     19  C   UNL     1      -2.174  10.887  18.298  0.00  0.00    +0.000 C 
ATOM     20 CL   UNL     1      -3.300   9.731  17.546  0.00  0.00    +0.000 Cl
ENDBRANCH  13  19
BRANCH   1  21
ATOM     21  C   UNL     1       1.617   8.485  18.924  0.00  0.00    +0.000 C 
BRANCH  21  22
ATOM     22  C   UNL     1       2.565   7.403  19.494  0.00  0.00    +0.000 C 
BRANCH  22  27
ATOM     23  C   UNL     1       1.300   3.836  20.033  0.00  0.00    +0.000 A 
ATOM     24  C   UNL     1       1.377   3.334  18.733  0.00  0.00    +0.000 A 
ATOM     25  C   UNL     1       1.792   4.150  17.681  0.00  0.00    +0.000 A 
ATOM     26  C   UNL     1       2.149   5.473  17.927  0.00  0.00    +0.000 A 
ATOM     27  C   UNL     1       2.098   5.991  19.227  0.00  0.00    +0.000 A 
ATOM     28  C   UNL     1       1.653   5.166  20.277  0.00  0.00    +0.000 A 
BRANCH  23  30
ATOM     29  C   UNL     1       1.865   2.449  21.885  0.00  0.00    +0.000 C 
ATOM     30  O   UNL     1       0.888   2.924  20.968  0.00  0.00    +0.000 OA
ENDBRANCH  23  30
ENDBRANCH  22  27
ENDBRANCH  21  22
ENDBRANCH   1  21
TORSDOF 5
ENDMDL
MODEL 8
REMARK VINA RESULT:      -7.5      4.243      8.208
REMARK  Name = 
REMARK  6 active torsions:
REMARK  status: ('A' for Active; 'I' for Inactive)
REMARK    1  A    between atoms: C_1  and  O_2
REMARK    2  A    between atoms: O_2  and  C_3
REMARK    3  A    between atoms: C_7  and  C_8
REMARK    4  A    between atoms: C_8  and  C_9
REMARK    5  A    between atoms: C_9  and  C_10
REMARK    6  A    between atoms: C_22  and  C_24
REMARK                            x       y       z     vdW  Elec       q    Type
REMARK                         _______ _______ _______ _____ _____    ______ ____
ROOT
ATOM      1  C   UNL     1       1.199   8.636  21.197  0.00  0.00    +0.000 C 
ATOM      2  C   UNL     1      -0.109   8.228  21.887  0.00  0.00    +0.000 C 
ATOM      3  C   UNL     1      -0.467   9.290  22.909  0.00  0.00    +0.000 C 
ATOM      4  C   UNL     1      -0.342  10.684  22.361  0.00  0.00    +0.000 A 
ATOM      5  N   UNL     1      -0.957  11.629  23.104  0.00  0.00    +0.000 NA
ATOM      6  C   UNL     1      -0.818  12.891  22.708  0.00  0.00    +0.000 A 
ATOM      7  N   UNL     1      -1.494  13.855  23.423  0.00  0.00    +0.000 N 
ATOM      8  N   UNL     1      -0.032  13.286  21.707  0.00  0.00    +0.000 NA
ATOM      9  C   UNL     1       0.599  12.330  20.993  0.00  0.00    +0.000 A 
ATOM     10  N   UNL     1       1.583  12.847  20.163  0.00  0.00    +0.000 N 
ATOM     11  C   UNL     1       0.403  10.967  21.216  0.00  0.00    +0.000 A 
ATOM     12  N   UNL     1       0.915   9.885  20.403  0.00  0.00    +0.000 N 
ATOM     13  C   UNL     1       0.878   9.870  19.001  0.00  0.00    +0.000 C 
ATOM     14  O   UNL     1       1.439   8.991  18.340  0.00  0.00    +0.000 OA
ATOM     15  H   UNL     1      -1.683  13.516  24.358  0.00  0.00    +0.000 HD
ATOM     16  H   UNL     1      -1.017  14.739  23.345  0.00  0.00    +0.000 HD
ATOM     17  H   UNL     1       1.486  13.860  20.135  0.00  0.00    +0.000 HD
ATOM     18  H   UNL     1       1.754  12.432  19.266  0.00  0.00    +0.000 HD
ENDROOT
BRANCH  13  19
ATOM     19  C   UNL     1       0.086  10.937  18.243  0.00  0.00    +0.000 C 
ATOM     20 CL   UNL     1      -1.638  10.493  18.193  0.00  0.00    +0.000 Cl
ENDBRANCH  13  19
BRANCH   1  21
ATOM     21  C   UNL     1       1.844   7.418  20.491  0.00  0.00    +0.000 C 
BRANCH  21  22
ATOM     22  C   UNL     1       1.059   6.095  20.650  0.00  0.00    +0.000 C 
BRANCH  22  27
ATOM     23  C   UNL     1       3.974   3.836  19.641  0.00  0.00    +0.000 A 
ATOM     24  C   UNL     1       3.336   2.596  19.594  0.00  0.00    +0.000 A 
ATOM     25  C   UNL     1       1.987   2.478  19.926  0.00  0.00    +0.000 A 
ATOM     26  C   UNL     1       1.261   3.608  20.293  0.00  0.00    +0.000 A 
ATOM     27  C   UNL     1       1.876   4.865  20.328  0.00  0.00    +0.000 A 
ATOM     28  C   UNL     1       3.245   4.968  20.016  0.00  0.00    +0.000 A 
BRANCH  23  30
ATOM     29  C   UNL     1       5.904   5.049  18.953  0.00  0.00    +0.000 C 
ATOM     30  O   UNL     1       5.294   3.807  19.281  0.00  0.00    +0.000 OA
ENDBRANCH  23  30
ENDBRANCH  22  27
ENDBRANCH  21  22
ENDBRANCH   1  21
TORSDOF 5
ENDMDL
MODEL 9
REMARK VINA RESULT:      -7.5      3.988      8.508
REMARK  Name = 
REMARK  6 active torsions:
REMARK  status: ('A' for Active; 'I' for Inactive)
REMARK    1  A    between atoms: C_1  and  O_2
REMARK    2  A    between atoms: O_2  and  C_3
REMARK    3  A    between atoms: C_7  and  C_8
REMARK    4  A    between atoms: C_8  and  C_9
REMARK    5  A    between atoms: C_9  and  C_10
REMARK    6  A    between atoms: C_22  and  C_24
REMARK                            x       y       z     vdW  Elec       q    Type
REMARK                         _______ _______ _______ _____ _____    ______ ____
ROOT
ATOM      1  C   UNL     1       5.043   4.949  17.692  0.00  0.00    +0.000 C 
ATOM      2  C   UNL     1       4.575   3.585  17.167  0.00  0.00    +0.000 C 
ATOM      3  C   UNL     1       4.104   2.752  18.344  0.00  0.00    +0.000 C 
ATOM      4  C   UNL     1       3.205   3.518  19.272  0.00  0.00    +0.000 A 
ATOM      5  N   UNL     1       2.505   2.746  20.130  0.00  0.00    +0.000 NA
ATOM      6  C   UNL     1       1.747   3.374  21.025  0.00  0.00    +0.000 A 
ATOM      7  N   UNL     1       0.982   2.593  21.862  0.00  0.00    +0.000 N 
ATOM      8  N   UNL     1       1.721   4.695  21.198  0.00  0.00    +0.000 NA
ATOM      9  C   UNL     1       2.451   5.451  20.351  0.00  0.00    +0.000 A 
ATOM     10  N   UNL     1       2.567   6.767  20.776  0.00  0.00    +0.000 N 
ATOM     11  C   UNL     1       3.157   4.912  19.275  0.00  0.00    +0.000 A 
ATOM     12  N   UNL     1       3.832   5.660  18.235  0.00  0.00    +0.000 N 
ATOM     13  C   UNL     1       3.279   6.771  17.582  0.00  0.00    +0.000 C 
ATOM     14  O   UNL     1       3.933   7.460  16.792  0.00  0.00    +0.000 OA
ATOM     15  H   UNL     1       1.389   1.669  21.935  0.00  0.00    +0.000 HD
ATOM     16  H   UNL     1       0.806   3.084  22.724  0.00  0.00    +0.000 HD
ATOM     17  H   UNL     1       1.916   6.919  21.544  0.00  0.00    +0.000 HD
ATOM     18  H   UNL     1       2.584   7.512  20.105  0.00  0.00    +0.000 HD
ENDROOT
BRANCH  13  19
ATOM     19  C   UNL     1       1.809   7.136  17.798  0.00  0.00    +0.000 C 
ATOM     20 CL   UNL     1       1.618   8.906  17.804  0.00  0.00    +0.000 Cl
ENDBRANCH  13  19
BRANCH   1  21
ATOM     21  C   UNL     1       5.933   5.659  16.642  0.00  0.00    +0.000 C 
BRANCH  21  22
ATOM     22  C   UNL     1       7.061   4.777  16.055  0.00  0.00    +0.000 C 
BRANCH  22  27
ATOM     23  C   UNL     1       6.172   3.565  12.540  0.00  0.00    +0.000 A 
ATOM     24  C   UNL     1       7.038   4.343  11.771  0.00  0.00    +0.000 A 
ATOM     25  C   UNL     1       7.873   5.283  12.374  0.00  0.00    +0.000 A 
ATOM     26  C   UNL     1       7.858   5.439  13.757  0.00  0.00    +0.000 A 
ATOM     27  C   UNL     1       7.011   4.655  14.550  0.00  0.00    +0.000 A 
ATOM     28  C   UNL     1       6.153   3.728  13.928  0.00  0.00    +0.000 A 
BRANCH  23  30
ATOM     29  C   UNL     1       4.168   3.139  11.327  0.00  0.00    +0.000 C 
ATOM     30  O   UNL     1       5.419   2.677  11.820  0.00  0.00    +0.000 OA
ENDBRANCH  23  30
ENDBRANCH  22  27
ENDBRANCH  21  22
ENDBRANCH   1  21
TORSDOF 5
ENDMDL
