MODEL 1
REMARK VINA RESULT:      -8.2      0.000      0.000
REMARK  Name = 
REMARK  7 active torsions:
REMARK  status: ('A' for Active; 'I' for Inactive)
REMARK    1  A    between atoms: C_2  and  O_3
REMARK    2  A    between atoms: C_2  and  C_4
REMARK    3  A    between atoms: C_6  and  C_7
REMARK    4  A    between atoms: C_7  and  C_8
REMARK    5  A    between atoms: C_8  and  N_9
REMARK    6  A    between atoms: N_9  and  S_10
REMARK    7  A    between atoms: S_10  and  C_13
REMARK                            x       y       z     vdW  Elec       q    Type
REMARK                         _______ _______ _______ _____ _____    ______ ____
ROOT
ATOM      1  C   UNL     1       4.953   5.152  18.663  0.00  0.00    +0.000 A 
ATOM      2  C   UNL     1       4.377   6.419  18.225  0.00  0.00    +0.000 A 
ATOM      3  C   UNL     1       3.060   6.276  17.998  0.00  0.00    +0.000 A 
ATOM      4  C   UNL     1       2.736   4.879  18.315  0.00  0.00    +0.000 A 
ATOM      5  C   UNL     1       1.515   4.336  18.246  0.00  0.00    +0.000 A 
ATOM      6  C   UNL     1       1.107   2.980  18.550  0.00  0.00    +0.000 A 
ATOM      7  C   UNL     1       1.842   1.937  18.942  0.00  0.00    +0.000 A 
ATOM      8  C   UNL     1       3.257   1.856  19.181  0.00  0.00    +0.000 A 
ATOM      9  C   UNL     1       4.181   2.819  19.097  0.00  0.00    +0.000 A 
ATOM     10  C   UNL     1       3.987   4.200  18.722  0.00  0.00    +0.000 A 
ENDROOT
BRANCH   1  12
ATOM     11  O   UNL     1       6.982   5.410  19.916  0.00  0.00    +0.000 OA
ATOM     12  C   UNL     1       6.398   4.968  18.940  0.00  0.00    +0.000 C 
BRANCH  12  13
ATOM     13  O   UNL     1       7.041   4.240  17.998  0.00  0.00    +0.000 OA
ATOM     14  H   UNL     1       6.725   3.326  17.900  0.00  0.00    +0.000 HD
ENDBRANCH  12  13
ENDBRANCH   1  12
BRANCH   3  15
ATOM     15  C   UNL     1       2.131   7.371  17.566  0.00  0.00    +0.000 C 
BRANCH  15  16
ATOM     16  C   UNL     1       2.537   8.778  18.019  0.00  0.00    +0.000 C 
BRANCH  16  17
ATOM     17  N   UNL     1       1.559   9.803  17.599  0.00  0.00    +0.000 NA
ATOM     18  H   UNL     1       0.841   9.513  16.932  0.00  0.00    +0.000 HD
BRANCH  17  19
ATOM     19  S   UNL     1       0.827  10.690  18.846  0.00  0.00    +0.000 S 
ATOM     20  O   UNL     1       0.915   9.869  20.032  0.00  0.00    +0.000 OA
ATOM     21  O   UNL     1       1.364  12.033  18.805  0.00  0.00    +0.000 OA
BRANCH  19  22
ATOM     22  C   UNL     1      -0.876  10.736  18.351  0.00  0.00    +0.000 A 
ATOM     23  C   UNL     1      -1.326   9.853  17.366  0.00  0.00    +0.000 A 
ATOM     24  C   UNL     1      -2.670   9.875  16.989  0.00  0.00    +0.000 A 
ATOM     25  C   UNL     1      -3.554  10.768  17.600  0.00  0.00    +0.000 A 
ATOM     26  C   UNL     1      -3.102  11.635  18.596  0.00  0.00    +0.000 A 
ATOM     27  C   UNL     1      -1.760  11.620  18.978  0.00  0.00    +0.000 A 
ENDBRANCH  19  22
ENDBRANCH  17  19
ENDBRANCH  16  17
ENDBRANCH  15  16
ENDBRANCH   3  15
TORSDOF 7
ENDMDL
MODEL 2
REMARK VINA RESULT:      -8.1      2.215      2.794
REMARK  Name = 
REMARK  7 active torsions:
REMARK  status: ('A' for Active; 'I' for Inactive)
REMARK    1  A    between atoms: C_2  and  O_3
REMARK    2  A    between atoms: C_2  and  C_4
REMARK    3  A    between atoms: C_6  and  C_7
REMARK    4  A    between atoms: C_7  and  C_8
REMARK    5  A    between atoms: C_8  and  N_9
REMARK    6  A    between atoms: N_9  and  S_10
REMARK    7  A    between atoms: S_10  and  C_13
REMARK                            x       y       z     vdW  Elec       q    Type
REMARK                         _______ _______ _______ _____ _____    ______ ____
ROOT
ATOM      1  C   UNL     1       4.517   5.444  16.986  0.00  0.00    +0.000 A 
ATOM      2  C   UNL     1       4.146   6.792  17.403  0.00  0.00    +0.000 A 
ATOM      3  C   UNL     1       3.037   6.755  18.161  0.00  0.00    +0.000 A 
ATOM      4  C   UNL     1       2.664   5.339  18.278  0.00  0.00    +0.000 A 
ATOM      5  C   UNL     1       1.626   4.870  18.980  0.00  0.00    +0.000 A 
ATOM      6  C   UNL     1       1.197   3.498  19.158  0.00  0.00    +0.000 A 
ATOM      7  C   UNL     1       1.706   2.374  18.650  0.00  0.00    +0.000 A 
ATOM      8  C   UNL     1       2.834   2.195  17.777  0.00  0.00    +0.000 A 
ATOM      9  C   UNL     1       3.670   3.115  17.284  0.00  0.00    +0.000 A 
ATOM     10  C   UNL     1       3.638   4.543  17.496  0.00  0.00    +0.000 A 
ENDROOT
BRANCH   1  12
ATOM     11  O   UNL     1       5.860   5.688  15.014  0.00  0.00    +0.000 OA
ATOM     12  C   UNL     1       5.665   5.155  16.094  0.00  0.00    +0.000 C 
BRANCH  12  13
ATOM     13  O   UNL     1       6.516   4.227  16.591  0.00  0.00    +0.000 OA
ATOM     14  H   UNL     1       7.077   3.789  15.928  0.00  0.00    +0.000 HD
ENDBRANCH  12  13
ENDBRANCH   1  12
BRANCH   3  15
ATOM     15  C   UNL     1       2.378   7.944  18.793  0.00  0.00    +0.000 C 
BRANCH  15  16
ATOM     16  C   UNL     1       1.610   8.848  17.821  0.00  0.00    +0.000 C 
BRANCH  16  17
ATOM     17  N   UNL     1       1.456  10.222  18.342  0.00  0.00    +0.000 NA
ATOM     18  H   UNL     1       1.966  10.963  17.855  0.00  0.00    +0.000 HD
BRANCH  17  19
ATOM     19  S   UNL     1      -0.136  10.741  18.620  0.00  0.00    +0.000 S 
ATOM     20  O   UNL     1      -0.145  12.166  18.381  0.00  0.00    +0.000 OA
ATOM     21  O   UNL     1      -1.021   9.842  17.912  0.00  0.00    +0.000 OA
BRANCH  19  22
ATOM     22  C   UNL     1      -0.334  10.489  20.364  0.00  0.00    +0.000 A 
ATOM     23  C   UNL     1      -0.171   9.206  20.894  0.00  0.00    +0.000 A 
ATOM     24  C   UNL     1      -0.308   9.010  22.269  0.00  0.00    +0.000 A 
ATOM     25  C   UNL     1      -0.597  10.091  23.105  0.00  0.00    +0.000 A 
ATOM     26  C   UNL     1      -0.741  11.373  22.573  0.00  0.00    +0.000 A 
ATOM     27  C   UNL     1      -0.607  11.578  21.198  0.00  0.00    +0.000 A 
ENDBRANCH  19  22
ENDBRANCH  17  19
ENDBRANCH  16  17
ENDBRANCH  15  16
ENDBRANCH   3  15
TORSDOF 7
ENDMDL
MODEL 3
REMARK VINA RESULT:      -8.0      1.468      1.917
REMARK  Name = 
REMARK  7 active torsions:
REMARK  status: ('A' for Active; 'I' for Inactive)
REMARK    1  A    between atoms: C_2  and  O_3
REMARK    2  A    between atoms: C_2  and  C_4
REMARK    3  A    between atoms: C_6  and  C_7
REMARK    4  A    between atoms: C_7  and  C_8
REMARK    5  A    between atoms: C_8  and  N_9
REMARK    6  A    between atoms: N_9  and  S_10
REMARK    7  A    between atoms: S_10  and  C_13
REMARK                            x       y       z     vdW  Elec       q    Type
REMARK                         _______ _______ _______ _____ _____    ______ ____
ROOT
ATOM      1  C   UNL     1       4.607   5.890  16.926  0.00  0.00    +0.000 A 
ATOM      2  C   UNL     1       4.041   7.157  17.377  0.00  0.00    +0.000 A 
ATOM      3  C   UNL     1       2.960   6.934  18.145  0.00  0.00    +0.000 A 
ATOM      4  C   UNL     1       2.810   5.476  18.234  0.00  0.00    +0.000 A 
ATOM      5  C   UNL     1       1.865   4.839  18.935  0.00  0.00    +0.000 A 
ATOM      6  C   UNL     1       1.653   3.415  19.085  0.00  0.00    +0.000 A 
ATOM      7  C   UNL     1       2.321   2.393  18.547  0.00  0.00    +0.000 A 
ATOM      8  C   UNL     1       3.452   2.407  17.659  0.00  0.00    +0.000 A 
ATOM      9  C   UNL     1       4.130   3.454  17.179  0.00  0.00    +0.000 A 
ATOM     10  C   UNL     1       3.883   4.855  17.423  0.00  0.00    +0.000 A 
ENDROOT
BRANCH   1  12
ATOM     11  O   UNL     1       6.914   6.123  16.310  0.00  0.00    +0.000 OA
ATOM     12  C   UNL     1       5.775   5.800  16.016  0.00  0.00    +0.000 C 
BRANCH  12  13
ATOM     13  O   UNL     1       5.470   5.307  14.794  0.00  0.00    +0.000 OA
ATOM     14  H   UNL     1       6.098   4.649  14.449  0.00  0.00    +0.000 HD
ENDBRANCH  12  13
ENDBRANCH   1  12
BRANCH   3  15
ATOM     15  C   UNL     1       2.136   7.996  18.811  0.00  0.00    +0.000 C 
BRANCH  15  16
ATOM     16  C   UNL     1       2.009   9.304  18.021  0.00  0.00    +0.000 C 
BRANCH  16  17
ATOM     17  N   UNL     1       0.608   9.602  17.658  0.00  0.00    +0.000 NA
ATOM     18  H   UNL     1       0.016   8.809  17.401  0.00  0.00    +0.000 HD
BRANCH  17  19
ATOM     19  S   UNL     1      -0.244  10.599  18.735  0.00  0.00    +0.000 S 
ATOM     20  O   UNL     1      -0.413   9.832  19.949  0.00  0.00    +0.000 OA
ATOM     21  O   UNL     1       0.395  11.897  18.734  0.00  0.00    +0.000 OA
BRANCH  19  22
ATOM     22  C   UNL     1      -1.836  10.741  17.966  0.00  0.00    +0.000 A 
ATOM     23  C   UNL     1      -2.808  11.557  18.550  0.00  0.00    +0.000 A 
ATOM     24  C   UNL     1      -4.055  11.684  17.935  0.00  0.00    +0.000 A 
ATOM     25  C   UNL     1      -4.321  11.007  16.743  0.00  0.00    +0.000 A 
ATOM     26  C   UNL     1      -3.340  10.206  16.155  0.00  0.00    +0.000 A 
ATOM     27  C   UNL     1      -2.091  10.072  16.764  0.00  0.00    +0.000 A 
ENDBRANCH  19  22
ENDBRANCH  17  19
ENDBRANCH  16  17
ENDBRANCH  15  16
ENDBRANCH   3  15
TORSDOF 7
ENDMDL
MODEL 4
REMARK VINA RESULT:      -8.0      0.292      1.011
REMARK  Name = 
REMARK  7 active torsions:
REMARK  status: ('A' for Active; 'I' for Inactive)
REMARK    1  A    between atoms: C_2  and  O_3
REMARK    2  A    between atoms: C_2  and  C_4
REMARK    3  A    between atoms: C_6  and  C_7
REMARK    4  A    between atoms: C_7  and  C_8
REMARK    5  A    between atoms: C_8  and  N_9
REMARK    6  A    between atoms: N_9  and  S_10
REMARK    7  A    between atoms: S_10  and  C_13
REMARK                            x       y       z     vdW  Elec       q    Type
REMARK                         _______ _______ _______ _____ _____    ______ ____
ROOT
ATOM      1  C   UNL     1       4.953   5.129  18.282  0.00  0.00    +0.000 A 
ATOM      2  C   UNL     1       4.352   6.421  17.971  0.00  0.00    +0.000 A 
ATOM      3  C   UNL     1       3.017   6.299  17.869  0.00  0.00    +0.000 A 
ATOM      4  C   UNL     1       2.710   4.890  18.143  0.00  0.00    +0.000 A 
ATOM      5  C   UNL     1       1.481   4.359  18.169  0.00  0.00    +0.000 A 
ATOM      6  C   UNL     1       1.090   2.992  18.440  0.00  0.00    +0.000 A 
ATOM      7  C   UNL     1       1.848   1.925  18.702  0.00  0.00    +0.000 A 
ATOM      8  C   UNL     1       3.278   1.822  18.794  0.00  0.00    +0.000 A 
ATOM      9  C   UNL     1       4.201   2.782  18.668  0.00  0.00    +0.000 A 
ATOM     10  C   UNL     1       3.987   4.182  18.388  0.00  0.00    +0.000 A 
ENDROOT
BRANCH   1  12
ATOM     11  O   UNL     1       7.095   5.277  19.354  0.00  0.00    +0.000 OA
ATOM     12  C   UNL     1       6.416   4.921  18.403  0.00  0.00    +0.000 C 
BRANCH  12  13
ATOM     13  O   UNL     1       6.961   4.277  17.345  0.00  0.00    +0.000 OA
ATOM     14  H   UNL     1       6.606   3.386  17.181  0.00  0.00    +0.000 HD
ENDBRANCH  12  13
ENDBRANCH   1  12
BRANCH   3  15
ATOM     15  C   UNL     1       2.063   7.422  17.589  0.00  0.00    +0.000 C 
BRANCH  15  16
ATOM     16  C   UNL     1       2.523   8.798  18.084  0.00  0.00    +0.000 C 
BRANCH  16  17
ATOM     17  N   UNL     1       1.625   9.881  17.632  0.00  0.00    +0.000 NA
ATOM     18  H   UNL     1       0.913   9.636  16.941  0.00  0.00    +0.000 HD
BRANCH  17  19
ATOM     19  S   UNL     1       0.907  10.813  18.856  0.00  0.00    +0.000 S 
ATOM     20  O   UNL     1       1.065  10.062  20.081  0.00  0.00    +0.000 OA
ATOM     21  O   UNL     1       1.396  12.168  18.722  0.00  0.00    +0.000 OA
BRANCH  19  22
ATOM     22  C   UNL     1      -0.812  10.775  18.423  0.00  0.00    +0.000 A 
ATOM     23  C   UNL     1      -1.672  11.743  18.949  0.00  0.00    +0.000 A 
ATOM     24  C   UNL     1      -3.022  11.725  18.595  0.00  0.00    +0.000 A 
ATOM     25  C   UNL     1      -3.502  10.754  17.714  0.00  0.00    +0.000 A 
ATOM     26  C   UNL     1      -2.635   9.800  17.177  0.00  0.00    +0.000 A 
ATOM     27  C   UNL     1      -1.284   9.809  17.528  0.00  0.00    +0.000 A 
ENDBRANCH  19  22
ENDBRANCH  17  19
ENDBRANCH  16  17
ENDBRANCH  15  16
ENDBRANCH   3  15
TORSDOF 7
ENDMDL
MODEL 5
REMARK VINA RESULT:      -8.0      2.235      2.866
REMARK  Name = 
REMARK  7 active torsions:
REMARK  status: ('A' for Active; 'I' for Inactive)
REMARK    1  A    between atoms: C_2  and  O_3
REMARK    2  A    between atoms: C_2  and  C_4
REMARK    3  A    between atoms: C_6  and  C_7
REMARK    4  A    between atoms: C_7  and  C_8
REMARK    5  A    between atoms: C_8  and  N_9
REMARK    6  A    between atoms: N_9  and  S_10
REMARK    7  A    between atoms: S_10  and  C_13
REMARK                            x       y       z     vdW  Elec       q    Type
REMARK                         _______ _______ _______ _____ _____    ______ ____
ROOT
ATOM      1  C   UNL     1       4.459   5.485  17.000  0.00  0.00    +0.000 A 
ATOM      2  C   UNL     1       4.061   6.830  17.403  0.00  0.00    +0.000 A 
ATOM      3  C   UNL     1       2.960   6.777  18.173  0.00  0.00    +0.000 A 
ATOM      4  C   UNL     1       2.622   5.354  18.312  0.00  0.00    +0.000 A 
ATOM      5  C   UNL     1       1.602   4.871  19.030  0.00  0.00    +0.000 A 
ATOM      6  C   UNL     1       1.207   3.492  19.229  0.00  0.00    +0.000 A 
ATOM      7  C   UNL     1       1.737   2.373  18.730  0.00  0.00    +0.000 A 
ATOM      8  C   UNL     1       2.861   2.209  17.849  0.00  0.00    +0.000 A 
ATOM      9  C   UNL     1       3.670   3.142  17.336  0.00  0.00    +0.000 A 
ATOM     10  C   UNL     1       3.606   4.571  17.529  0.00  0.00    +0.000 A 
ENDROOT
BRANCH   1  12
ATOM     11  O   UNL     1       5.804   5.773  15.034  0.00  0.00    +0.000 OA
ATOM     12  C   UNL     1       5.605   5.212  16.100  0.00  0.00    +0.000 C 
BRANCH  12  13
ATOM     13  O   UNL     1       6.448   4.265  16.571  0.00  0.00    +0.000 OA
ATOM     14  H   UNL     1       6.410   3.412  16.103  0.00  0.00    +0.000 HD
ENDBRANCH  12  13
ENDBRANCH   1  12
BRANCH   3  15
ATOM     15  C   UNL     1       2.280   7.959  18.796  0.00  0.00    +0.000 C 
BRANCH  15  16
ATOM     16  C   UNL     1       1.914   9.082  17.818  0.00  0.00    +0.000 C 
BRANCH  16  17
ATOM     17  N   UNL     1       0.565   9.626  18.074  0.00  0.00    +0.000 NA
ATOM     18  H   UNL     1      -0.112   8.999  18.514  0.00  0.00    +0.000 HD
BRANCH  17  19
ATOM     19  S   UNL     1       0.503  11.134  18.849  0.00  0.00    +0.000 S 
ATOM     20  O   UNL     1       1.863  11.621  18.896  0.00  0.00    +0.000 OA
ATOM     21  O   UNL     1      -0.562  11.900  18.239  0.00  0.00    +0.000 OA
BRANCH  19  22
ATOM     22  C   UNL     1       0.030  10.708  20.504  0.00  0.00    +0.000 A 
ATOM     23  C   UNL     1      -0.416  11.711  21.369  0.00  0.00    +0.000 A 
ATOM     24  C   UNL     1      -0.806  11.375  22.666  0.00  0.00    +0.000 A 
ATOM     25  C   UNL     1      -0.758  10.044  23.089  0.00  0.00    +0.000 A 
ATOM     26  C   UNL     1      -0.328   9.044  22.215  0.00  0.00    +0.000 A 
ATOM     27  C   UNL     1       0.065   9.372  20.917  0.00  0.00    +0.000 A 
ENDBRANCH  19  22
ENDBRANCH  17  19
ENDBRANCH  16  17
ENDBRANCH  15  16
ENDBRANCH   3  15
TORSDOF 7
ENDMDL
MODEL 6
REMARK VINA RESULT:      -8.0      4.381      7.458
REMARK  Name = 
REMARK  7 active torsions:
REMARK  status: ('A' for Active; 'I' for Inactive)
REMARK    1  A    between atoms: C_2  and  O_3
REMARK    2  A    between atoms: C_2  and  C_4
REMARK    3  A    between atoms: C_6  and  C_7
REMARK    4  A    between atoms: C_7  and  C_8
REMARK    5  A    between atoms: C_8  and  N_9
REMARK    6  A    between atoms: N_9  and  S_10
REMARK    7  A    between atoms: S_10  and  C_13
REMARK                            x       y       z     vdW  Elec       q    Type
REMARK                         _______ _______ _______ _____ _____    ______ ____
ROOT
ATOM      1  C   UNL     1       2.280   3.998  20.072  0.00  0.00    +0.000 A 
ATOM      2  C   UNL     1       2.860   3.342  18.904  0.00  0.00    +0.000 A 
ATOM      3  C   UNL     1       3.102   4.245  17.938  0.00  0.00    +0.000 A 
ATOM      4  C   UNL     1       2.696   5.548  18.479  0.00  0.00    +0.000 A 
ATOM      5  C   UNL     1       2.802   6.717  17.836  0.00  0.00    +0.000 A 
ATOM      6  C   UNL     1       2.439   8.041  18.297  0.00  0.00    +0.000 A 
ATOM      7  C   UNL     1       1.889   8.420  19.453  0.00  0.00    +0.000 A 
ATOM      8  C   UNL     1       1.497   7.622  20.582  0.00  0.00    +0.000 A 
ATOM      9  C   UNL     1       1.617   6.302  20.762  0.00  0.00    +0.000 A 
ATOM     10  C   UNL     1       2.164   5.331  19.844  0.00  0.00    +0.000 A 
ENDROOT
BRANCH   1  12
ATOM     11  O   UNL     1       2.529   3.118  22.289  0.00  0.00    +0.000 OA
ATOM     12  C   UNL     1       1.850   3.264  21.286  0.00  0.00    +0.000 C 
BRANCH  12  13
ATOM     13  O   UNL     1       0.598   2.758  21.196  0.00  0.00    +0.000 OA
ATOM     14  H   UNL     1      -0.102   3.329  21.555  0.00  0.00    +0.000 HD
ENDBRANCH  12  13
ENDBRANCH   1  12
BRANCH   3  15
ATOM     15  C   UNL     1       3.722   3.943  16.606  0.00  0.00    +0.000 C 
BRANCH  15  16
ATOM     16  C   UNL     1       5.199   3.534  16.660  0.00  0.00    +0.000 C 
BRANCH  16  17
ATOM     17  N   UNL     1       5.896   3.794  15.384  0.00  0.00    +0.000 NA
ATOM     18  H   UNL     1       5.424   3.496  14.528  0.00  0.00    +0.000 HD
BRANCH  17  19
ATOM     19  S   UNL     1       6.489   5.369  15.165  0.00  0.00    +0.000 S 
ATOM     20  O   UNL     1       7.586   5.262  14.230  0.00  0.00    +0.000 OA
ATOM     21  O   UNL     1       5.358   6.236  14.920  0.00  0.00    +0.000 OA
BRANCH  19  22
ATOM     22  C   UNL     1       7.177   5.755  16.754  0.00  0.00    +0.000 A 
ATOM     23  C   UNL     1       7.364   7.093  17.112  0.00  0.00    +0.000 A 
ATOM     24  C   UNL     1       7.887   7.399  18.369  0.00  0.00    +0.000 A 
ATOM     25  C   UNL     1       8.211   6.374  19.261  0.00  0.00    +0.000 A 
ATOM     26  C   UNL     1       8.005   5.041  18.905  0.00  0.00    +0.000 A 
ATOM     27  C   UNL     1       7.484   4.726  17.650  0.00  0.00    +0.000 A 
ENDBRANCH  19  22
ENDBRANCH  17  19
ENDBRANCH  16  17
ENDBRANCH  15  16
ENDBRANCH   3  15
TORSDOF 7
ENDMDL
MODEL 7
REMARK VINA RESULT:      -8.0      1.292      1.466
REMARK  Name = 
REMARK  7 active torsions:
REMARK  status: ('A' for Active; 'I' for Inactive)
REMARK    1  A    between atoms: C_2  and  O_3
REMARK    2  A    between atoms: C_2  and  C_4
REMARK    3  A    between atoms: C_6  and  C_7
REMARK    4  A    between atoms: C_7  and  C_8
REMARK    5  A    between atoms: C_8  and  N_9
REMARK    6  A    between atoms: N_9  and  S_10
REMARK    7  A    between atoms: S_10  and  C_13
REMARK                            x       y       z     vdW  Elec       q    Type
REMARK                         _______ _______ _______ _____ _____    ______ ____
ROOT
ATOM      1  C   UNL     1       4.534   5.416  17.195  0.00  0.00    +0.000 A 
ATOM      2  C   UNL     1       4.135   6.764  17.586  0.00  0.00    +0.000 A 
ATOM      3  C   UNL     1       2.999   6.722  18.303  0.00  0.00    +0.000 A 
ATOM      4  C   UNL     1       2.636   5.304  18.418  0.00  0.00    +0.000 A 
ATOM      5  C   UNL     1       1.577   4.830  19.084  0.00  0.00    +0.000 A 
ATOM      6  C   UNL     1       1.155   3.455  19.257  0.00  0.00    +0.000 A 
ATOM      7  C   UNL     1       1.693   2.332  18.777  0.00  0.00    +0.000 A 
ATOM      8  C   UNL     1       2.855   2.158  17.949  0.00  0.00    +0.000 A 
ATOM      9  C   UNL     1       3.700   3.082  17.480  0.00  0.00    +0.000 A 
ATOM     10  C   UNL     1       3.646   4.511  17.678  0.00  0.00    +0.000 A 
ENDROOT
BRANCH   1  12
ATOM     11  O   UNL     1       6.775   4.680  16.757  0.00  0.00    +0.000 OA
ATOM     12  C   UNL     1       5.718   5.133  16.348  0.00  0.00    +0.000 C 
BRANCH  12  13
ATOM     13  O   UNL     1       5.527   5.416  15.039  0.00  0.00    +0.000 OA
ATOM     14  H   UNL     1       4.732   5.943  14.845  0.00  0.00    +0.000 HD
ENDBRANCH  12  13
ENDBRANCH   1  12
BRANCH   3  15
ATOM     15  C   UNL     1       2.306   7.910  18.900  0.00  0.00    +0.000 C 
BRANCH  15  16
ATOM     16  C   UNL     1       2.042   9.061  17.922  0.00  0.00    +0.000 C 
BRANCH  16  17
ATOM     17  N   UNL     1       0.598   9.305  17.727  0.00  0.00    +0.000 NA
ATOM     18  H   UNL     1      -0.013   8.486  17.712  0.00  0.00    +0.000 HD
BRANCH  17  19
ATOM     19  S   UNL     1      -0.098  10.494  18.718  0.00  0.00    +0.000 S 
ATOM     20  O   UNL     1      -0.278   9.885  20.016  0.00  0.00    +0.000 OA
ATOM     21  O   UNL     1       0.662  11.713  18.545  0.00  0.00    +0.000 OA
BRANCH  19  22
ATOM     22  C   UNL     1      -1.706  10.713  18.002  0.00  0.00    +0.000 A 
ATOM     23  C   UNL     1      -2.029  10.034  16.824  0.00  0.00    +0.000 A 
ATOM     24  C   UNL     1      -3.301  10.191  16.270  0.00  0.00    +0.000 A 
ATOM     25  C   UNL     1      -4.241  11.013  16.895  0.00  0.00    +0.000 A 
ATOM     26  C   UNL     1      -3.918  11.675  18.081  0.00  0.00    +0.000 A 
ATOM     27  C   UNL     1      -2.649  11.525  18.641  0.00  0.00    +0.000 A 
ENDBRANCH  19  22
ENDBRANCH  17  19
ENDBRANCH  16  17
ENDBRANCH  15  16
ENDBRANCH   3  15
TORSDOF 7
ENDMDL
MODEL 8
REMARK VINA RESULT:      -7.9      2.530      3.321
REMARK  Name = 
REMARK  7 active torsions:
REMARK  status: ('A' for Active; 'I' for Inactive)
REMARK    1  A    between atoms: C_2  and  O_3
REMARK    2  A    between atoms: C_2  and  C_4
REMARK    3  A    between atoms: C_6  and  C_7
REMARK    4  A    between atoms: C_7  and  C_8
REMARK    5  A    between atoms: C_8  and  N_9
REMARK    6  A    between atoms: N_9  and  S_10
REMARK    7  A    between atoms: S_10  and  C_13
REMARK                            x       y       z     vdW  Elec       q    Type
REMARK                         _______ _______ _______ _____ _____    ______ ____
ROOT
ATOM      1  C   UNL     1       2.138   4.687  20.394  0.00  0.00    +0.000 A 
ATOM      2  C   UNL     1       1.610   6.020  20.661  0.00  0.00    +0.000 A 
ATOM      3  C   UNL     1       2.109   6.903  19.779  0.00  0.00    +0.000 A 
ATOM      4  C   UNL     1       2.980   6.138  18.878  0.00  0.00    +0.000 A 
ATOM      5  C   UNL     1       3.650   6.646  17.837  0.00  0.00    +0.000 A 
ATOM      6  C   UNL     1       4.516   5.965  16.896  0.00  0.00    +0.000 A 
ATOM      7  C   UNL     1       4.881   4.682  16.849  0.00  0.00    +0.000 A 
ATOM      8  C   UNL     1       4.518   3.597  17.719  0.00  0.00    +0.000 A 
ATOM      9  C   UNL     1       3.699   3.605  18.776  0.00  0.00    +0.000 A 
ATOM     10  C   UNL     1       2.974   4.726  19.325  0.00  0.00    +0.000 A 
ENDROOT
BRANCH   1  12
ATOM     11  O   UNL     1       2.505   3.098  22.153  0.00  0.00    +0.000 OA
ATOM     12  C   UNL     1       1.820   3.504  21.229  0.00  0.00    +0.000 C 
BRANCH  12  13
ATOM     13  O   UNL     1       0.665   2.891  20.879  0.00  0.00    +0.000 OA
ATOM     14  H   UNL     1       0.430   2.964  19.938  0.00  0.00    +0.000 HD
ENDBRANCH  12  13
ENDBRANCH   1  12
BRANCH   3  15
ATOM     15  C   UNL     1       1.769   8.362  19.726  0.00  0.00    +0.000 C 
BRANCH  15  16
ATOM     16  C   UNL     1       1.137   8.925  21.004  0.00  0.00    +0.000 C 
BRANCH  16  17
ATOM     17  N   UNL     1      -0.264   9.346  20.795  0.00  0.00    +0.000 NA
ATOM     18  H   UNL     1      -0.937   9.097  21.522  0.00  0.00    +0.000 HD
BRANCH  17  19
ATOM     19  S   UNL     1      -0.496  10.971  20.362  0.00  0.00    +0.000 S 
ATOM     20  O   UNL     1      -1.289  11.561  21.416  0.00  0.00    +0.000 OA
ATOM     21  O   UNL     1       0.789  11.513  19.977  0.00  0.00    +0.000 OA
BRANCH  19  22
ATOM     22  C   UNL     1      -1.525  10.852  18.922  0.00  0.00    +0.000 A 
ATOM     23  C   UNL     1      -2.676  11.639  18.836  0.00  0.00    +0.000 A 
ATOM     24  C   UNL     1      -3.477  11.560  17.695  0.00  0.00    +0.000 A 
ATOM     25  C   UNL     1      -3.121  10.706  16.648  0.00  0.00    +0.000 A 
ATOM     26  C   UNL     1      -1.961   9.935  16.732  0.00  0.00    +0.000 A 
ATOM     27  C   UNL     1      -1.156  10.007  17.870  0.00  0.00    +0.000 A 
ENDBRANCH  19  22
ENDBRANCH  17  19
ENDBRANCH  16  17
ENDBRANCH  15  16
ENDBRANCH   3  15
TORSDOF 7
ENDMDL
MODEL 9
REMARK VINA RESULT:      -7.9      4.605      7.418
REMARK  Name = 
REMARK  7 active torsions:
REMARK  status: ('A' for Active; 'I' for Inactive)
REMARK    1  A    between atoms: C_2  and  O_3
REMARK    2  A    between atoms: C_2  and  C_4
REMARK    3  A    between atoms: C_6  and  C_7
REMARK    4  A    between atoms: C_7  and  C_8
REMARK    5  A    between atoms: C_8  and  N_9
REMARK    6  A    between atoms: N_9  and  S_10
REMARK    7  A    between atoms: S_10  and  C_13
REMARK                            x       y       z     vdW  Elec       q    Type
REMARK                         _______ _______ _______ _____ _____    ______ ____
ROOT
ATOM      1  C   UNL     1       2.609   3.538  20.088  0.00  0.00    +0.000 A 
ATOM      2  C   UNL     1       3.356   2.683  19.172  0.00  0.00    +0.000 A 
ATOM      3  C   UNL     1       3.836   3.408  18.147  0.00  0.00    +0.000 A 
ATOM      4  C   UNL     1       3.421   4.795  18.393  0.00  0.00    +0.000 A 
ATOM      5  C   UNL     1       3.724   5.841  17.615  0.00  0.00    +0.000 A 
ATOM      6  C   UNL     1       3.368   7.234  17.789  0.00  0.00    +0.000 A 
ATOM      7  C   UNL     1       2.634   7.813  18.741  0.00  0.00    +0.000 A 
ATOM      8  C   UNL     1       1.983   7.222  19.878  0.00  0.00    +0.000 A 
ATOM      9  C   UNL     1       1.979   5.945  20.276  0.00  0.00    +0.000 A 
ATOM     10  C   UNL     1       2.626   4.821  19.643  0.00  0.00    +0.000 A 
ENDROOT
BRANCH   1  12
ATOM     11  O   UNL     1       2.445   2.778  22.358  0.00  0.00    +0.000 OA
ATOM     12  C   UNL     1       1.908   3.026  21.290  0.00  0.00    +0.000 C 
BRANCH  12  13
ATOM     13  O   UNL     1       0.579   2.854  21.108  0.00  0.00    +0.000 OA
ATOM     14  H   UNL     1       0.330   2.452  20.258  0.00  0.00    +0.000 HD
ENDBRANCH  12  13
ENDBRANCH   1  12
BRANCH   3  15
ATOM     15  C   UNL     1       4.677   2.875  17.026  0.00  0.00    +0.000 C 
BRANCH  15  16
ATOM     16  C   UNL     1       4.666   3.725  15.750  0.00  0.00    +0.000 C 
BRANCH  16  17
ATOM     17  N   UNL     1       6.015   3.871  15.166  0.00  0.00    +0.000 NA
ATOM     18  H   UNL     1       6.198   3.376  14.291  0.00  0.00    +0.000 HD
BRANCH  17  19
ATOM     19  S   UNL     1       6.601   5.458  15.034  0.00  0.00    +0.000 S 
ATOM     20  O   UNL     1       7.752   5.393  14.162  0.00  0.00    +0.000 OA
ATOM     21  O   UNL     1       5.476   6.322  14.749  0.00  0.00    +0.000 OA
BRANCH  19  22
ATOM     22  C   UNL     1       7.188   5.800  16.672  0.00  0.00    +0.000 A 
ATOM     23  C   UNL     1       7.471   4.737  17.533  0.00  0.00    +0.000 A 
ATOM     24  C   UNL     1       7.951   5.004  18.817  0.00  0.00    +0.000 A 
ATOM     25  C   UNL     1       8.154   6.323  19.228  0.00  0.00    +0.000 A 
ATOM     26  C   UNL     1       7.886   7.381  18.357  0.00  0.00    +0.000 A 
ATOM     27  C   UNL     1       7.404   7.123  17.073  0.00  0.00    +0.000 A 
ENDBRANCH  19  22
ENDBRANCH  17  19
ENDBRANCH  16  17
ENDBRANCH  15  16
ENDBRANCH   3  15
TORSDOF 7
ENDMDL
