MODEL 1
REMARK VINA RESULT:      -8.3      0.000      0.000
REMARK  Name = 
REMARK  7 active torsions:
REMARK  status: ('A' for Active; 'I' for Inactive)
REMARK    1  A    between atoms: C_1  and  O_2
REMARK    2  A    between atoms: O_2  and  C_3
REMARK    3  A    between atoms: C_9  and  C_10
REMARK    4  A    between atoms: N_15  and  C_16
REMARK    5  A    between atoms: C_19  and  N_20
REMARK    6  A    between atoms: C_26  and  O_27
REMARK    7  A    between atoms: O_27  and  C_28
REMARK                            x       y       z     vdW  Elec       q    Type
REMARK                         _______ _______ _______ _____ _____    ______ ____
ROOT
ATOM      1  C   UNL     1       4.384   3.980  18.761  0.00  0.00    +0.000 A 
ATOM      2  C   UNL     1       4.542   2.875  19.600  0.00  0.00    +0.000 A 
ATOM      3  C   UNL     1       3.644   2.677  20.643  0.00  0.00    +0.000 A 
ATOM      4  N   UNL     1       2.624   3.510  20.941  0.00  0.00    +0.000 NA
ATOM      5  C   UNL     1       2.494   4.607  20.175  0.00  0.00    +0.000 A 
ATOM      6  N   UNL     1       1.475   5.518  20.482  0.00  0.00    +0.000 N 
ATOM      7  C   UNL     1       3.327   4.839  19.080  0.00  0.00    +0.000 A 
ATOM      8  H   UNL     1       0.862   5.164  21.205  0.00  0.00    +0.000 HD
ENDROOT
BRANCH   1  15
ATOM      9  C   UNL     1       6.618   4.625  17.683  0.00  0.00    +0.000 A 
ATOM     10  C   UNL     1       7.377   4.849  16.521  0.00  0.00    +0.000 A 
ATOM     11  C   UNL     1       6.816   4.693  15.256  0.00  0.00    +0.000 A 
ATOM     12  C   UNL     1       5.488   4.325  15.147  0.00  0.00    +0.000 A 
ATOM     13  F   UNL     1       4.948   4.148  13.936  0.00  0.00    +0.000 F 
ATOM     14  C   UNL     1       4.710   4.131  16.281  0.00  0.00    +0.000 A 
ATOM     15  C   UNL     1       5.248   4.267  17.582  0.00  0.00    +0.000 A 
BRANCH   9  17
ATOM     16  C   UNL     1       7.877   5.870  19.298  0.00  0.00    +0.000 C 
ATOM     17  O   UNL     1       7.145   4.704  18.947  0.00  0.00    +0.000 OA
ENDBRANCH   9  17
ENDBRANCH   1  15
BRANCH   6  18
ATOM     18  C   UNL     1       1.480   6.908  20.297  0.00  0.00    +0.000 A 
ATOM     19  C   UNL     1       2.024   7.509  19.159  0.00  0.00    +0.000 A 
ATOM     20  C   UNL     1       1.842   8.869  18.920  0.00  0.00    +0.000 A 
ATOM     21  C   UNL     1       1.132   9.701  19.803  0.00  0.00    +0.000 A 
ATOM     22  C   UNL     1       0.653   9.102  20.999  0.00  0.00    +0.000 A 
ATOM     23  C   UNL     1       0.848   7.729  21.232  0.00  0.00    +0.000 A 
BRANCH  21  24
ATOM     24  N   UNL     1       0.969  11.030  19.447  0.00  0.00    +0.000 N 
ATOM     25  C   UNL     1       1.669  12.144  20.103  0.00  0.00    +0.000 C 
ATOM     26  C   UNL     1       0.691  13.029  20.884  0.00  0.00    +0.000 C 
ATOM     27  O   UNL     1      -0.392  13.483  20.052  0.00  0.00    +0.000 OA
ATOM     28  C   UNL     1      -1.124  12.353  19.549  0.00  0.00    +0.000 C 
ATOM     29  C   UNL     1      -0.240  11.433  18.697  0.00  0.00    +0.000 C 
ENDBRANCH  21  24
BRANCH  22  30
ATOM     30  O   UNL     1      -0.072   9.905  21.851  0.00  0.00    +0.000 OA
ATOM     31  C   UNL     1      -0.052   9.586  23.238  0.00  0.00    +0.000 C 
ENDBRANCH  22  30
ENDBRANCH   6  18
TORSDOF 5
ENDMDL
MODEL 2
REMARK VINA RESULT:      -8.2      3.203      9.043
REMARK  Name = 
REMARK  7 active torsions:
REMARK  status: ('A' for Active; 'I' for Inactive)
REMARK    1  A    between atoms: C_1  and  O_2
REMARK    2  A    between atoms: O_2  and  C_3
REMARK    3  A    between atoms: C_9  and  C_10
REMARK    4  A    between atoms: N_15  and  C_16
REMARK    5  A    between atoms: C_19  and  N_20
REMARK    6  A    between atoms: C_26  and  O_27
REMARK    7  A    between atoms: O_27  and  C_28
REMARK                            x       y       z     vdW  Elec       q    Type
REMARK                         _______ _______ _______ _____ _____    ______ ____
ROOT
ATOM      1  C   UNL     1      -1.616  10.918  19.144  0.00  0.00    +0.000 A 
ATOM      2  C   UNL     1      -1.917  11.662  20.287  0.00  0.00    +0.000 A 
ATOM      3  C   UNL     1      -1.002  11.705  21.333  0.00  0.00    +0.000 A 
ATOM      4  N   UNL     1       0.173  11.037  21.349  0.00  0.00    +0.000 NA
ATOM      5  C   UNL     1       0.448  10.274  20.277  0.00  0.00    +0.000 A 
ATOM      6  N   UNL     1       1.637   9.531  20.277  0.00  0.00    +0.000 N 
ATOM      7  C   UNL     1      -0.400  10.228  19.172  0.00  0.00    +0.000 A 
ATOM      8  H   UNL     1       2.222   9.760  21.070  0.00  0.00    +0.000 HD
ENDROOT
BRANCH   1  15
ATOM      9  C   UNL     1      -3.773  11.446  17.865  0.00  0.00    +0.000 A 
ATOM     10  C   UNL     1      -4.528  11.357  16.682  0.00  0.00    +0.000 A 
ATOM     11  C   UNL     1      -4.025  10.706  15.557  0.00  0.00    +0.000 A 
ATOM     12  C   UNL     1      -2.769  10.130  15.616  0.00  0.00    +0.000 A 
ATOM     13  F   UNL     1      -2.268   9.525  14.533  0.00  0.00    +0.000 F 
ATOM     14  C   UNL     1      -2.020  10.177  16.785  0.00  0.00    +0.000 A 
ATOM     15  C   UNL     1      -2.492  10.841  17.941  0.00  0.00    +0.000 A 
BRANCH   9  17
ATOM     16  C   UNL     1      -5.550  11.967  19.386  0.00  0.00    +0.000 C 
ATOM     17  O   UNL     1      -4.201  12.132  18.973  0.00  0.00    +0.000 OA
ENDBRANCH   9  17
ENDBRANCH   1  15
BRANCH   6  18
ATOM     18  C   UNL     1       1.874   8.289  19.667  0.00  0.00    +0.000 A 
ATOM     19  C   UNL     1       2.267   8.176  18.332  0.00  0.00    +0.000 A 
ATOM     20  C   UNL     1       2.678   6.948  17.816  0.00  0.00    +0.000 A 
ATOM     21  C   UNL     1       2.700   5.776  18.591  0.00  0.00    +0.000 A 
ATOM     22  C   UNL     1       2.221   5.880  19.924  0.00  0.00    +0.000 A 
ATOM     23  C   UNL     1       1.803   7.124  20.431  0.00  0.00    +0.000 A 
BRANCH  21  24
ATOM     24  N   UNL     1       3.172   4.617  17.993  0.00  0.00    +0.000 N 
ATOM     25  C   UNL     1       2.312   3.652  17.292  0.00  0.00    +0.000 C 
ATOM     26  C   UNL     1       2.244   2.320  18.049  0.00  0.00    +0.000 C 
ATOM     27  O   UNL     1       3.557   1.791  18.308  0.00  0.00    +0.000 OA
ATOM     28  C   UNL     1       4.304   2.719  19.113  0.00  0.00    +0.000 C 
ATOM     29  C   UNL     1       4.480   4.071  18.409  0.00  0.00    +0.000 C 
ENDBRANCH  21  24
BRANCH  22  30
ATOM     30  O   UNL     1       2.273   4.741  20.696  0.00  0.00    +0.000 OA
ATOM     31  C   UNL     1       1.088   3.959  20.800  0.00  0.00    +0.000 C 
ENDBRANCH  22  30
ENDBRANCH   6  18
TORSDOF 5
ENDMDL
MODEL 3
REMARK VINA RESULT:      -8.0      0.900      1.267
REMARK  Name = 
REMARK  7 active torsions:
REMARK  status: ('A' for Active; 'I' for Inactive)
REMARK    1  A    between atoms: C_1  and  O_2
REMARK    2  A    between atoms: O_2  and  C_3
REMARK    3  A    between atoms: C_9  and  C_10
REMARK    4  A    between atoms: N_15  and  C_16
REMARK    5  A    between atoms: C_19  and  N_20
REMARK    6  A    between atoms: C_26  and  O_27
REMARK    7  A    between atoms: O_27  and  C_28
REMARK                            x       y       z     vdW  Elec       q    Type
REMARK                         _______ _______ _______ _____ _____    ______ ____
ROOT
ATOM      1  C   UNL     1       4.224   4.515  18.708  0.00  0.00    +0.000 A 
ATOM      2  C   UNL     1       4.387   3.355  19.468  0.00  0.00    +0.000 A 
ATOM      3  C   UNL     1       3.512   3.099  20.518  0.00  0.00    +0.000 A 
ATOM      4  N   UNL     1       2.510   3.923  20.896  0.00  0.00    +0.000 NA
ATOM      5  C   UNL     1       2.378   5.069  20.207  0.00  0.00    +0.000 A 
ATOM      6  N   UNL     1       1.378   5.970  20.598  0.00  0.00    +0.000 N 
ATOM      7  C   UNL     1       3.187   5.363  19.109  0.00  0.00    +0.000 A 
ATOM      8  H   UNL     1       0.778   5.577  21.312  0.00  0.00    +0.000 HD
ENDROOT
BRANCH   1  15
ATOM      9  C   UNL     1       6.243   5.653  17.614  0.00  0.00    +0.000 A 
ATOM     10  C   UNL     1       7.001   5.917  16.460  0.00  0.00    +0.000 A 
ATOM     11  C   UNL     1       6.632   5.391  15.224  0.00  0.00    +0.000 A 
ATOM     12  C   UNL     1       5.496   4.609  15.135  0.00  0.00    +0.000 A 
ATOM     13  F   UNL     1       5.149   4.079  13.956  0.00  0.00    +0.000 F 
ATOM     14  C   UNL     1       4.713   4.362  16.255  0.00  0.00    +0.000 A 
ATOM     15  C   UNL     1       5.064   4.868  17.529  0.00  0.00    +0.000 A 
BRANCH   9  17
ATOM     16  C   UNL     1       7.843   5.655  19.398  0.00  0.00    +0.000 C 
ATOM     17  O   UNL     1       6.603   6.095  18.862  0.00  0.00    +0.000 OA
ENDBRANCH   9  17
ENDBRANCH   1  15
BRANCH   6  18
ATOM     18  C   UNL     1       1.399   7.370  20.505  0.00  0.00    +0.000 A 
ATOM     19  C   UNL     1       1.587   8.036  19.291  0.00  0.00    +0.000 A 
ATOM     20  C   UNL     1       1.411   9.415  19.205  0.00  0.00    +0.000 A 
ATOM     21  C   UNL     1       1.060  10.201  20.316  0.00  0.00    +0.000 A 
ATOM     22  C   UNL     1       0.951   9.531  21.564  0.00  0.00    +0.000 A 
ATOM     23  C   UNL     1       1.137   8.139  21.640  0.00  0.00    +0.000 A 
BRANCH  21  24
ATOM     24  N   UNL     1       0.863  11.557  20.110  0.00  0.00    +0.000 N 
ATOM     25  C   UNL     1      -0.444  12.154  19.797  0.00  0.00    +0.000 C 
ATOM     26  C   UNL     1      -0.468  12.714  18.369  0.00  0.00    +0.000 C 
ATOM     27  O   UNL     1       0.617  13.632  18.143  0.00  0.00    +0.000 OA
ATOM     28  C   UNL     1       1.872  12.956  18.331  0.00  0.00    +0.000 C 
ATOM     29  C   UNL     1       2.018  12.410  19.758  0.00  0.00    +0.000 C 
ENDBRANCH  21  24
BRANCH  22  30
ATOM     30  O   UNL     1       0.574  10.291  22.648  0.00  0.00    +0.000 OA
ATOM     31  C   UNL     1      -0.738  10.100  23.167  0.00  0.00    +0.000 C 
ENDBRANCH  22  30
ENDBRANCH   6  18
TORSDOF 5
ENDMDL
MODEL 4
REMARK VINA RESULT:      -7.9      0.866      1.248
REMARK  Name = 
REMARK  7 active torsions:
REMARK  status: ('A' for Active; 'I' for Inactive)
REMARK    1  A    between atoms: C_1  and  O_2
REMARK    2  A    between atoms: O_2  and  C_3
REMARK    3  A    between atoms: C_9  and  C_10
REMARK    4  A    between atoms: N_15  and  C_16
REMARK    5  A    between atoms: C_19  and  N_20
REMARK    6  A    between atoms: C_26  and  O_27
REMARK    7  A    between atoms: O_27  and  C_28
REMARK                            x       y       z     vdW  Elec       q    Type
REMARK                         _______ _______ _______ _____ _____    ______ ____
ROOT
ATOM      1  C   UNL     1       4.328   4.053  18.793  0.00  0.00    +0.000 A 
ATOM      2  C   UNL     1       4.433   2.936  19.624  0.00  0.00    +0.000 A 
ATOM      3  C   UNL     1       3.520   2.768  20.659  0.00  0.00    +0.000 A 
ATOM      4  N   UNL     1       2.532   3.640  20.956  0.00  0.00    +0.000 NA
ATOM      5  C   UNL     1       2.454   4.746  20.197  0.00  0.00    +0.000 A 
ATOM      6  N   UNL     1       1.471   5.697  20.503  0.00  0.00    +0.000 N 
ATOM      7  C   UNL     1       3.305   4.952  19.111  0.00  0.00    +0.000 A 
ATOM      8  H   UNL     1       0.838   5.363  21.219  0.00  0.00    +0.000 HD
ENDROOT
BRANCH   1  15
ATOM      9  C   UNL     1       6.587   4.646  17.738  0.00  0.00    +0.000 A 
ATOM     10  C   UNL     1       7.365   4.845  16.584  0.00  0.00    +0.000 A 
ATOM     11  C   UNL     1       6.818   4.686  15.313  0.00  0.00    +0.000 A 
ATOM     12  C   UNL     1       5.485   4.341  15.191  0.00  0.00    +0.000 A 
ATOM     13  F   UNL     1       4.957   4.163  13.974  0.00  0.00    +0.000 F 
ATOM     14  C   UNL     1       4.688   4.173  16.316  0.00  0.00    +0.000 A 
ATOM     15  C   UNL     1       5.213   4.312  17.622  0.00  0.00    +0.000 A 
BRANCH   9  17
ATOM     16  C   UNL     1       7.873   5.870  19.348  0.00  0.00    +0.000 C 
ATOM     17  O   UNL     1       7.099   4.728  19.008  0.00  0.00    +0.000 OA
ENDBRANCH   9  17
ENDBRANCH   1  15
BRANCH   6  18
ATOM     18  C   UNL     1       1.535   7.087  20.329  0.00  0.00    +0.000 A 
ATOM     19  C   UNL     1       1.805   7.674  19.090  0.00  0.00    +0.000 A 
ATOM     20  C   UNL     1       1.673   9.049  18.913  0.00  0.00    +0.000 A 
ATOM     21  C   UNL     1       1.287   9.909  19.956  0.00  0.00    +0.000 A 
ATOM     22  C   UNL     1       1.094   9.319  21.234  0.00  0.00    +0.000 A 
ATOM     23  C   UNL     1       1.237   7.930  21.401  0.00  0.00    +0.000 A 
BRANCH  21  24
ATOM     24  N   UNL     1       1.139  11.255  19.660  0.00  0.00    +0.000 N 
ATOM     25  C   UNL     1       1.320  11.821  18.315  0.00  0.00    +0.000 C 
ATOM     26  C   UNL     1       2.554  12.730  18.259  0.00  0.00    +0.000 C 
ATOM     27  O   UNL     1       2.506  13.749  19.275  0.00  0.00    +0.000 OA
ATOM     28  C   UNL     1       2.468  13.136  20.575  0.00  0.00    +0.000 C 
ATOM     29  C   UNL     1       1.229  12.248  20.751  0.00  0.00    +0.000 C 
ENDBRANCH  21  24
BRANCH  22  30
ATOM     30  O   UNL     1       0.683  10.152  22.249  0.00  0.00    +0.000 OA
ATOM     31  C   UNL     1      -0.480   9.779  22.981  0.00  0.00    +0.000 C 
ENDBRANCH  22  30
ENDBRANCH   6  18
TORSDOF 5
ENDMDL
MODEL 5
REMARK VINA RESULT:      -7.5      3.568      9.415
REMARK  Name = 
REMARK  7 active torsions:
REMARK  status: ('A' for Active; 'I' for Inactive)
REMARK    1  A    between atoms: C_1  and  O_2
REMARK    2  A    between atoms: O_2  and  C_3
REMARK    3  A    between atoms: C_9  and  C_10
REMARK    4  A    between atoms: N_15  and  C_16
REMARK    5  A    between atoms: C_19  and  N_20
REMARK    6  A    between atoms: C_26  and  O_27
REMARK    7  A    between atoms: O_27  and  C_28
REMARK                            x       y       z     vdW  Elec       q    Type
REMARK                         _______ _______ _______ _____ _____    ______ ____
ROOT
ATOM      1  C   UNL     1      -0.052  12.356  20.178  0.00  0.00    +0.000 A 
ATOM      2  C   UNL     1       0.515  13.564  19.765  0.00  0.00    +0.000 A 
ATOM      3  C   UNL     1       1.481  13.556  18.765  0.00  0.00    +0.000 A 
ATOM      4  N   UNL     1       1.955  12.441  18.168  0.00  0.00    +0.000 NA
ATOM      5  C   UNL     1       1.456  11.269  18.596  0.00  0.00    +0.000 A 
ATOM      6  N   UNL     1       1.957  10.087  18.032  0.00  0.00    +0.000 N 
ATOM      7  C   UNL     1       0.448  11.207  19.557  0.00  0.00    +0.000 A 
ATOM      8  H   UNL     1       2.577  10.276  17.256  0.00  0.00    +0.000 HD
ENDROOT
BRANCH   1  15
ATOM      9  C   UNL     1      -0.990  11.517  22.410  0.00  0.00    +0.000 A 
ATOM     10  C   UNL     1      -2.044  11.484  23.341  0.00  0.00    +0.000 A 
ATOM     11  C   UNL     1      -3.225  12.185  23.112  0.00  0.00    +0.000 A 
ATOM     12  C   UNL     1      -3.364  12.912  21.945  0.00  0.00    +0.000 A 
ATOM     13  F   UNL     1      -4.486  13.610  21.729  0.00  0.00    +0.000 F 
ATOM     14  C   UNL     1      -2.350  12.932  20.996  0.00  0.00    +0.000 A 
ATOM     15  C   UNL     1      -1.131  12.244  21.199  0.00  0.00    +0.000 A 
BRANCH   9  17
ATOM     16  C   UNL     1       0.206   9.593  23.189  0.00  0.00    +0.000 C 
ATOM     17  O   UNL     1       0.214  10.895  22.622  0.00  0.00    +0.000 OA
ENDBRANCH   9  17
ENDBRANCH   1  15
BRANCH   6  18
ATOM     18  C   UNL     1       2.092   8.832  18.645  0.00  0.00    +0.000 A 
ATOM     19  C   UNL     1       1.697   8.599  19.965  0.00  0.00    +0.000 A 
ATOM     20  C   UNL     1       1.668   7.304  20.477  0.00  0.00    +0.000 A 
ATOM     21  C   UNL     1       2.045   6.184  19.716  0.00  0.00    +0.000 A 
ATOM     22  C   UNL     1       2.524   6.435  18.403  0.00  0.00    +0.000 A 
ATOM     23  C   UNL     1       2.555   7.748  17.899  0.00  0.00    +0.000 A 
BRANCH  21  24
ATOM     24  N   UNL     1       1.933   4.935  20.307  0.00  0.00    +0.000 N 
ATOM     25  C   UNL     1       3.081   4.154  20.790  0.00  0.00    +0.000 C 
ATOM     26  C   UNL     1       3.284   2.889  19.946  0.00  0.00    +0.000 C 
ATOM     27  O   UNL     1       2.080   2.102  19.877  0.00  0.00    +0.000 OA
ATOM     28  C   UNL     1       1.030   2.873  19.271  0.00  0.00    +0.000 C 
ATOM     29  C   UNL     1       0.710   4.137  20.081  0.00  0.00    +0.000 C 
ENDBRANCH  21  24
BRANCH  22  30
ATOM     30  O   UNL     1       2.862   5.339  17.642  0.00  0.00    +0.000 OA
ATOM     31  C   UNL     1       4.228   5.188  17.270  0.00  0.00    +0.000 C 
ENDBRANCH  22  30
ENDBRANCH   6  18
TORSDOF 5
ENDMDL
MODEL 6
REMARK VINA RESULT:      -7.3      3.522      9.159
REMARK  Name = 
REMARK  7 active torsions:
REMARK  status: ('A' for Active; 'I' for Inactive)
REMARK    1  A    between atoms: C_1  and  O_2
REMARK    2  A    between atoms: O_2  and  C_3
REMARK    3  A    between atoms: C_9  and  C_10
REMARK    4  A    between atoms: N_15  and  C_16
REMARK    5  A    between atoms: C_19  and  N_20
REMARK    6  A    between atoms: C_26  and  O_27
REMARK    7  A    between atoms: O_27  and  C_28
REMARK                            x       y       z     vdW  Elec       q    Type
REMARK                         _______ _______ _______ _____ _____    ______ ____
ROOT
ATOM      1  C   UNL     1       0.498  12.143  19.949  0.00  0.00    +0.000 A 
ATOM      2  C   UNL     1       1.042  13.374  19.578  0.00  0.00    +0.000 A 
ATOM      3  C   UNL     1       1.943  13.430  18.520  0.00  0.00    +0.000 A 
ATOM      4  N   UNL     1       2.374  12.355  17.825  0.00  0.00    +0.000 NA
ATOM      5  C   UNL     1       1.899  11.158  18.209  0.00  0.00    +0.000 A 
ATOM      6  N   UNL     1       2.358  10.014  17.541  0.00  0.00    +0.000 N 
ATOM      7  C   UNL     1       0.953  11.035  19.226  0.00  0.00    +0.000 A 
ATOM      8  H   UNL     1       2.929  10.252  16.741  0.00  0.00    +0.000 HD
ENDROOT
BRANCH   1  15
ATOM      9  C   UNL     1      -0.297  11.170  22.182  0.00  0.00    +0.000 A 
ATOM     10  C   UNL     1      -1.290  11.078  23.174  0.00  0.00    +0.000 A 
ATOM     11  C   UNL     1      -2.485  11.785  23.062  0.00  0.00    +0.000 A 
ATOM     12  C   UNL     1      -2.697  12.579  21.949  0.00  0.00    +0.000 A 
ATOM     13  F   UNL     1      -3.831  13.281  21.845  0.00  0.00    +0.000 F 
ATOM     14  C   UNL     1      -1.745  12.658  20.941  0.00  0.00    +0.000 A 
ATOM     15  C   UNL     1      -0.515  11.966  21.028  0.00  0.00    +0.000 A 
BRANCH   9  17
ATOM     16  C   UNL     1       0.935   9.139  22.498  0.00  0.00    +0.000 C 
ATOM     17  O   UNL     1       0.919  10.544  22.283  0.00  0.00    +0.000 OA
ENDBRANCH   9  17
ENDBRANCH   1  15
BRANCH   6  18
ATOM     18  C   UNL     1       2.527   8.723  18.064  0.00  0.00    +0.000 A 
ATOM     19  C   UNL     1       1.739   8.230  19.107  0.00  0.00    +0.000 A 
ATOM     20  C   UNL     1       1.804   6.887  19.470  0.00  0.00    +0.000 A 
ATOM     21  C   UNL     1       2.664   5.975  18.833  0.00  0.00    +0.000 A 
ATOM     22  C   UNL     1       3.523   6.499  17.830  0.00  0.00    +0.000 A 
ATOM     23  C   UNL     1       3.452   7.859  17.477  0.00  0.00    +0.000 A 
BRANCH  21  24
ATOM     24  N   UNL     1       2.616   4.651  19.240  0.00  0.00    +0.000 N 
ATOM     25  C   UNL     1       1.673   3.663  18.695  0.00  0.00    +0.000 C 
ATOM     26  C   UNL     1       0.655   3.227  19.756  0.00  0.00    +0.000 C 
ATOM     27  O   UNL     1       1.305   2.757  20.951  0.00  0.00    +0.000 OA
ATOM     28  C   UNL     1       2.105   3.810  21.514  0.00  0.00    +0.000 C 
ATOM     29  C   UNL     1       3.200   4.275  20.545  0.00  0.00    +0.000 C 
ENDBRANCH  21  24
BRANCH  22  30
ATOM     30  O   UNL     1       4.342   5.604  17.181  0.00  0.00    +0.000 OA
ATOM     31  C   UNL     1       5.147   6.096  16.115  0.00  0.00    +0.000 C 
ENDBRANCH  22  30
ENDBRANCH   6  18
TORSDOF 5
ENDMDL
MODEL 7
REMARK VINA RESULT:      -7.3      3.124      8.946
REMARK  Name = 
REMARK  7 active torsions:
REMARK  status: ('A' for Active; 'I' for Inactive)
REMARK    1  A    between atoms: C_1  and  O_2
REMARK    2  A    between atoms: O_2  and  C_3
REMARK    3  A    between atoms: C_9  and  C_10
REMARK    4  A    between atoms: N_15  and  C_16
REMARK    5  A    between atoms: C_19  and  N_20
REMARK    6  A    between atoms: C_26  and  O_27
REMARK    7  A    between atoms: O_27  and  C_28
REMARK                            x       y       z     vdW  Elec       q    Type
REMARK                         _______ _______ _______ _____ _____    ______ ____
ROOT
ATOM      1  C   UNL     1      -1.814  10.978  19.098  0.00  0.00    +0.000 A 
ATOM      2  C   UNL     1      -2.210  11.766  20.181  0.00  0.00    +0.000 A 
ATOM      3  C   UNL     1      -1.366  11.888  21.279  0.00  0.00    +0.000 A 
ATOM      4  N   UNL     1      -0.177  11.260  21.403  0.00  0.00    +0.000 NA
ATOM      5  C   UNL     1       0.190  10.455  20.390  0.00  0.00    +0.000 A 
ATOM      6  N   UNL     1       1.396   9.750  20.503  0.00  0.00    +0.000 N 
ATOM      7  C   UNL     1      -0.584  10.328  19.237  0.00  0.00    +0.000 A 
ATOM      8  H   UNL     1       1.922  10.036  21.319  0.00  0.00    +0.000 HD
ENDROOT
BRANCH   1  15
ATOM      9  C   UNL     1      -3.901  11.367  17.663  0.00  0.00    +0.000 A 
ATOM     10  C   UNL     1      -4.575  11.198  16.440  0.00  0.00    +0.000 A 
ATOM     11  C   UNL     1      -3.978  10.518  15.380  0.00  0.00    +0.000 A 
ATOM     12  C   UNL     1      -2.709   9.994  15.544  0.00  0.00    +0.000 A 
ATOM     13  F   UNL     1      -2.118   9.362  14.523  0.00  0.00    +0.000 F 
ATOM     14  C   UNL     1      -2.039  10.120  16.754  0.00  0.00    +0.000 A 
ATOM     15  C   UNL     1      -2.608  10.815  17.847  0.00  0.00    +0.000 A 
BRANCH   9  17
ATOM     16  C   UNL     1      -5.754  12.569  18.594  0.00  0.00    +0.000 C 
ATOM     17  O   UNL     1      -4.424  12.084  18.710  0.00  0.00    +0.000 OA
ENDBRANCH   9  17
ENDBRANCH   1  15
BRANCH   6  18
ATOM     18  C   UNL     1       1.708   8.489  19.973  0.00  0.00    +0.000 A 
ATOM     19  C   UNL     1       2.304   8.332  18.719  0.00  0.00    +0.000 A 
ATOM     20  C   UNL     1       2.772   7.086  18.308  0.00  0.00    +0.000 A 
ATOM     21  C   UNL     1       2.655   5.936  19.109  0.00  0.00    +0.000 A 
ATOM     22  C   UNL     1       1.975   6.085  20.347  0.00  0.00    +0.000 A 
ATOM     23  C   UNL     1       1.501   7.347  20.748  0.00  0.00    +0.000 A 
BRANCH  21  24
ATOM     24  N   UNL     1       3.198   4.756  18.625  0.00  0.00    +0.000 N 
ATOM     25  C   UNL     1       4.416   4.135  19.166  0.00  0.00    +0.000 C 
ATOM     26  C   UNL     1       5.560   4.182  18.146  0.00  0.00    +0.000 C 
ATOM     27  O   UNL     1       5.170   3.606  16.886  0.00  0.00    +0.000 OA
ATOM     28  C   UNL     1       4.061   4.340  16.340  0.00  0.00    +0.000 C 
ATOM     29  C   UNL     1       2.838   4.300  17.266  0.00  0.00    +0.000 C 
ENDBRANCH  21  24
BRANCH  22  30
ATOM     30  O   UNL     1       1.889   4.969  21.149  0.00  0.00    +0.000 OA
ATOM     31  C   UNL     1       1.027   3.917  20.728  0.00  0.00    +0.000 C 
ENDBRANCH  22  30
ENDBRANCH   6  18
TORSDOF 5
ENDMDL
MODEL 8
REMARK VINA RESULT:      -7.2      3.113      8.594
REMARK  Name = 
REMARK  7 active torsions:
REMARK  status: ('A' for Active; 'I' for Inactive)
REMARK    1  A    between atoms: C_1  and  O_2
REMARK    2  A    between atoms: O_2  and  C_3
REMARK    3  A    between atoms: C_9  and  C_10
REMARK    4  A    between atoms: N_15  and  C_16
REMARK    5  A    between atoms: C_19  and  N_20
REMARK    6  A    between atoms: C_26  and  O_27
REMARK    7  A    between atoms: O_27  and  C_28
REMARK                            x       y       z     vdW  Elec       q    Type
REMARK                         _______ _______ _______ _____ _____    ______ ____
ROOT
ATOM      1  C   UNL     1       0.677  10.959  20.879  0.00  0.00    +0.000 A 
ATOM      2  C   UNL     1      -0.496  10.924  21.635  0.00  0.00    +0.000 A 
ATOM      3  C   UNL     1      -0.889   9.731  22.230  0.00  0.00    +0.000 A 
ATOM      4  N   UNL     1      -0.228   8.560  22.104  0.00  0.00    +0.000 NA
ATOM      5  C   UNL     1       0.874   8.568  21.334  0.00  0.00    +0.000 A 
ATOM      6  N   UNL     1       1.561   7.362  21.142  0.00  0.00    +0.000 N 
ATOM      7  C   UNL     1       1.352   9.741  20.751  0.00  0.00    +0.000 A 
ATOM      8  H   UNL     1       1.192   6.623  21.727  0.00  0.00    +0.000 HD
ENDROOT
BRANCH   1  15
ATOM      9  C   UNL     1       0.871  12.617  18.935  0.00  0.00    +0.000 A 
ATOM     10  C   UNL     1       1.407  13.807  18.412  0.00  0.00    +0.000 A 
ATOM     11  C   UNL     1       2.265  14.601  19.169  0.00  0.00    +0.000 A 
ATOM     12  C   UNL     1       2.600  14.201  20.449  0.00  0.00    +0.000 A 
ATOM     13  F   UNL     1       3.404  14.971  21.193  0.00  0.00    +0.000 F 
ATOM     14  C   UNL     1       2.110  13.013  20.974  0.00  0.00    +0.000 A 
ATOM     15  C   UNL     1       1.226  12.188  20.240  0.00  0.00    +0.000 A 
BRANCH   9  17
ATOM     16  C   UNL     1      -1.371  12.289  18.153  0.00  0.00    +0.000 C 
ATOM     17  O   UNL     1      -0.027  11.838  18.250  0.00  0.00    +0.000 OA
ENDBRANCH   9  17
ENDBRANCH   1  15
BRANCH   6  18
ATOM     18  C   UNL     1       2.285   6.956  20.011  0.00  0.00    +0.000 A 
ATOM     19  C   UNL     1       2.299   7.697  18.827  0.00  0.00    +0.000 A 
ATOM     20  C   UNL     1       3.176   7.368  17.795  0.00  0.00    +0.000 A 
ATOM     21  C   UNL     1       4.064   6.282  17.879  0.00  0.00    +0.000 A 
ATOM     22  C   UNL     1       3.989   5.483  19.051  0.00  0.00    +0.000 A 
ATOM     23  C   UNL     1       3.095   5.821  20.083  0.00  0.00    +0.000 A 
BRANCH  21  24
ATOM     24  N   UNL     1       4.928   6.071  16.815  0.00  0.00    +0.000 N 
ATOM     25  C   UNL     1       4.841   4.916  15.910  0.00  0.00    +0.000 C 
ATOM     26  C   UNL     1       6.051   3.988  16.081  0.00  0.00    +0.000 C 
ATOM     27  O   UNL     1       7.291   4.704  15.933  0.00  0.00    +0.000 OA
ATOM     28  C   UNL     1       7.380   5.733  16.932  0.00  0.00    +0.000 C 
ATOM     29  C   UNL     1       6.239   6.752  16.804  0.00  0.00    +0.000 C 
ENDBRANCH  21  24
BRANCH  22  30
ATOM     30  O   UNL     1       4.880   4.439  19.152  0.00  0.00    +0.000 OA
ATOM     31  C   UNL     1       4.356   3.147  19.441  0.00  0.00    +0.000 C 
ENDBRANCH  22  30
ENDBRANCH   6  18
TORSDOF 5
ENDMDL
MODEL 9
REMARK VINA RESULT:      -7.2      1.911      2.602
REMARK  Name = 
REMARK  7 active torsions:
REMARK  status: ('A' for Active; 'I' for Inactive)
REMARK    1  A    between atoms: C_1  and  O_2
REMARK    2  A    between atoms: O_2  and  C_3
REMARK    3  A    between atoms: C_9  and  C_10
REMARK    4  A    between atoms: N_15  and  C_16
REMARK    5  A    between atoms: C_19  and  N_20
REMARK    6  A    between atoms: C_26  and  O_27
REMARK    7  A    between atoms: O_27  and  C_28
REMARK                            x       y       z     vdW  Elec       q    Type
REMARK                         _______ _______ _______ _____ _____    ______ ____
ROOT
ATOM      1  C   UNL     1       4.073   5.022  19.504  0.00  0.00    +0.000 A 
ATOM      2  C   UNL     1       3.985   3.824  20.215  0.00  0.00    +0.000 A 
ATOM      3  C   UNL     1       2.861   3.575  20.994  0.00  0.00    +0.000 A 
ATOM      4  N   UNL     1       1.834   4.437  21.152  0.00  0.00    +0.000 NA
ATOM      5  C   UNL     1       1.933   5.617  20.516  0.00  0.00    +0.000 A 
ATOM      6  N   UNL     1       0.907   6.557  20.692  0.00  0.00    +0.000 N 
ATOM      7  C   UNL     1       3.007   5.911  19.677  0.00  0.00    +0.000 A 
ATOM      8  H   UNL     1       0.129   6.168  21.208  0.00  0.00    +0.000 HD
ENDROOT
BRANCH   1  15
ATOM      9  C   UNL     1       5.150   5.221  17.187  0.00  0.00    +0.000 A 
ATOM     10  C   UNL     1       6.244   5.609  16.393  0.00  0.00    +0.000 A 
ATOM     11  C   UNL     1       7.378   6.181  16.964  0.00  0.00    +0.000 A 
ATOM     12  C   UNL     1       7.429   6.355  18.335  0.00  0.00    +0.000 A 
ATOM     13  F   UNL     1       8.504   6.926  18.890  0.00  0.00    +0.000 F 
ATOM     14  C   UNL     1       6.374   5.948  19.142  0.00  0.00    +0.000 A 
ATOM     15  C   UNL     1       5.201   5.377  18.596  0.00  0.00    +0.000 A 
BRANCH   9  17
ATOM     16  C   UNL     1       3.901   3.312  16.453  0.00  0.00    +0.000 C 
ATOM     17  O   UNL     1       3.988   4.715  16.661  0.00  0.00    +0.000 OA
ENDBRANCH   9  17
ENDBRANCH   1  15
BRANCH   6  18
ATOM     18  C   UNL     1       1.013   7.956  20.685  0.00  0.00    +0.000 A 
ATOM     19  C   UNL     1       1.347   8.674  19.534  0.00  0.00    +0.000 A 
ATOM     20  C   UNL     1       1.256  10.064  19.515  0.00  0.00    +0.000 A 
ATOM     21  C   UNL     1       0.849  10.808  20.637  0.00  0.00    +0.000 A 
ATOM     22  C   UNL     1       0.590  10.079  21.828  0.00  0.00    +0.000 A 
ATOM     23  C   UNL     1       0.692   8.676  21.836  0.00  0.00    +0.000 A 
BRANCH  21  24
ATOM     24  N   UNL     1       0.746  12.183  20.496  0.00  0.00    +0.000 N 
ATOM     25  C   UNL     1      -0.441  12.862  19.956  0.00  0.00    +0.000 C 
ATOM     26  C   UNL     1      -0.137  13.515  18.603  0.00  0.00    +0.000 C 
ATOM     27  O   UNL     1       1.001  14.393  18.683  0.00  0.00    +0.000 OA
ATOM     28  C   UNL     1       2.162  13.645  19.083  0.00  0.00    +0.000 C 
ATOM     29  C   UNL     1       1.978  13.000  20.463  0.00  0.00    +0.000 C 
ENDBRANCH  21  24
BRANCH  22  30
ATOM     30  O   UNL     1       0.159  10.800  22.919  0.00  0.00    +0.000 OA
ATOM     31  C   UNL     1      -1.244  10.877  23.147  0.00  0.00    +0.000 C 
ENDBRANCH  22  30
ENDBRANCH   6  18
TORSDOF 5
ENDMDL
