MODEL 1
REMARK VINA RESULT:      -7.4      0.000      0.000
REMARK  Name = 
REMARK  5 active torsions:
REMARK  status: ('A' for Active; 'I' for Inactive)
REMARK    1  A    between atoms: C_2  and  C_3
REMARK    2  A    between atoms: C_3  and  S_4
REMARK    3  A    between atoms: S_4  and  C_5
REMARK    4  A    between atoms: N_10  and  C_11
REMARK    5  A    between atoms: C_11  and  C_12
REMARK                            x       y       z     vdW  Elec       q    Type
REMARK                         _______ _______ _______ _____ _____    ______ ____
ROOT
ATOM      1  O   UNL     1       4.499   5.783  18.946  0.00  0.00    +0.000 OA
ATOM      2  C   UNL     1       5.481   5.046  18.966  0.00  0.00    +0.000 C 
ATOM      3  N   UNL     1       5.406   3.698  18.695  0.00  0.00    +0.000 N 
ATOM      4  H   UNL     1       6.276   3.179  18.643  0.00  0.00    +0.000 HD
ENDROOT
BRANCH   2   5
ATOM      5  C   UNL     1       6.856   5.557  19.393  0.00  0.00    +0.000 C 
BRANCH   5   6
ATOM      6  S   UNL     1       7.622   6.585  18.105  0.00  0.00    +0.000 S 
BRANCH   6   7
ATOM      7  C   UNL     1       7.116   5.766  16.662  0.00  0.00    +0.000 A 
ATOM      8  N   UNL     1       6.166   6.227  15.794  0.00  0.00    +0.000 NA
ATOM      9  C   UNL     1       6.088   5.263  14.902  0.00  0.00    +0.000 A 
ATOM     10  N   UNL     1       6.964   4.277  15.225  0.00  0.00    +0.000 N 
ATOM     11  N   UNL     1       7.643   4.581  16.339  0.00  0.00    +0.000 NA
ATOM     12  H   UNL     1       7.142   3.393  14.761  0.00  0.00    +0.000 HD
ENDBRANCH   6   7
ENDBRANCH   5   6
ENDBRANCH   2   5
BRANCH   3  13
ATOM     13  C   UNL     1       4.199   3.027  18.269  0.00  0.00    +0.000 C 
BRANCH  13  14
ATOM     14  C   UNL     1       3.152   3.085  19.351  0.00  0.00    +0.000 A 
ATOM     15  C   UNL     1       3.450   2.524  20.606  0.00  0.00    +0.000 A 
ATOM     16  C   UNL     1       2.504   2.518  21.634  0.00  0.00    +0.000 A 
ATOM     17  C   UNL     1       1.242   3.064  21.423  0.00  0.00    +0.000 A 
ATOM     18  C   UNL     1       0.926   3.618  20.182  0.00  0.00    +0.000 A 
ATOM     19  C   UNL     1       1.871   3.628  19.151  0.00  0.00    +0.000 A 
ATOM     20 CL   UNL     1       1.396   4.314  17.639  0.00  0.00    +0.000 Cl
ENDBRANCH  13  14
ENDBRANCH   3  13
TORSDOF 5
ENDMDL
MODEL 2
REMARK VINA RESULT:      -7.0      0.976      1.106
REMARK  Name = 
REMARK  5 active torsions:
REMARK  status: ('A' for Active; 'I' for Inactive)
REMARK    1  A    between atoms: C_2  and  C_3
REMARK    2  A    between atoms: C_3  and  S_4
REMARK    3  A    between atoms: S_4  and  C_5
REMARK    4  A    between atoms: N_10  and  C_11
REMARK    5  A    between atoms: C_11  and  C_12
REMARK                            x       y       z     vdW  Elec       q    Type
REMARK                         _______ _______ _______ _____ _____    ______ ____
ROOT
ATOM      1  O   UNL     1       4.032   5.604  18.238  0.00  0.00    +0.000 OA
ATOM      2  C   UNL     1       5.063   4.938  18.274  0.00  0.00    +0.000 C 
ATOM      3  N   UNL     1       5.062   3.561  18.244  0.00  0.00    +0.000 N 
ATOM      4  H   UNL     1       5.959   3.091  18.185  0.00  0.00    +0.000 HD
ENDROOT
BRANCH   2   5
ATOM      5  C   UNL     1       6.432   5.593  18.455  0.00  0.00    +0.000 C 
BRANCH   5   6
ATOM      6  S   UNL     1       7.743   4.652  17.621  0.00  0.00    +0.000 S 
BRANCH   6   7
ATOM      7  C   UNL     1       7.188   4.665  15.977  0.00  0.00    +0.000 A 
ATOM      8  N   UNL     1       6.311   3.764  15.442  0.00  0.00    +0.000 NA
ATOM      9  C   UNL     1       6.236   4.137  14.183  0.00  0.00    +0.000 A 
ATOM     10  N   UNL     1       7.029   5.222  13.985  0.00  0.00    +0.000 N 
ATOM     11  N   UNL     1       7.639   5.586  15.121  0.00  0.00    +0.000 NA
ATOM     12  H   UNL     1       7.212   5.743  13.134  0.00  0.00    +0.000 HD
ENDBRANCH   6   7
ENDBRANCH   5   6
ENDBRANCH   2   5
BRANCH   3  13
ATOM     13  C   UNL     1       3.873   2.759  18.072  0.00  0.00    +0.000 C 
BRANCH  13  14
ATOM     14  C   UNL     1       2.943   2.934  19.244  0.00  0.00    +0.000 A 
ATOM     15  C   UNL     1       3.353   2.463  20.505  0.00  0.00    +0.000 A 
ATOM     16  C   UNL     1       2.517   2.567  21.618  0.00  0.00    +0.000 A 
ATOM     17  C   UNL     1       1.254   3.136  21.490  0.00  0.00    +0.000 A 
ATOM     18  C   UNL     1       0.826   3.602  20.247  0.00  0.00    +0.000 A 
ATOM     19  C   UNL     1       1.662   3.501  19.130  0.00  0.00    +0.000 A 
ATOM     20 CL   UNL     1       1.053   4.082  17.622  0.00  0.00    +0.000 Cl
ENDBRANCH  13  14
ENDBRANCH   3  13
TORSDOF 5
ENDMDL
MODEL 3
REMARK VINA RESULT:      -6.9      2.087      2.486
REMARK  Name = 
REMARK  5 active torsions:
REMARK  status: ('A' for Active; 'I' for Inactive)
REMARK    1  A    between atoms: C_2  and  C_3
REMARK    2  A    between atoms: C_3  and  S_4
REMARK    3  A    between atoms: S_4  and  C_5
REMARK    4  A    between atoms: N_10  and  C_11
REMARK    5  A    between atoms: C_11  and  C_12
REMARK                            x       y       z     vdW  Elec       q    Type
REMARK                         _______ _______ _______ _____ _____    ______ ____
ROOT
ATOM      1  O   UNL     1       4.915   6.635  16.155  0.00  0.00    +0.000 OA
ATOM      2  C   UNL     1       5.228   6.350  17.308  0.00  0.00    +0.000 C 
ATOM      3  N   UNL     1       4.299   6.158  18.306  0.00  0.00    +0.000 N 
ATOM      4  H   UNL     1       4.635   5.836  19.206  0.00  0.00    +0.000 HD
ENDROOT
BRANCH   2   5
ATOM      5  C   UNL     1       6.690   6.282  17.747  0.00  0.00    +0.000 C 
BRANCH   5   6
ATOM      6  S   UNL     1       7.456   4.698  17.297  0.00  0.00    +0.000 S 
BRANCH   6   7
ATOM      7  C   UNL     1       7.044   4.578  15.616  0.00  0.00    +0.000 A 
ATOM      8  N   UNL     1       6.174   3.666  15.087  0.00  0.00    +0.000 NA
ATOM      9  C   UNL     1       6.224   3.922  13.798  0.00  0.00    +0.000 A 
ATOM     10  N   UNL     1       7.082   4.952  13.576  0.00  0.00    +0.000 N 
ATOM     11  N   UNL     1       7.609   5.397  14.724  0.00  0.00    +0.000 NA
ATOM     12  H   UNL     1       7.361   5.383  12.701  0.00  0.00    +0.000 HD
ENDBRANCH   6   7
ENDBRANCH   5   6
ENDBRANCH   2   5
BRANCH   3  13
ATOM     13  C   UNL     1       2.870   6.174  18.091  0.00  0.00    +0.000 C 
BRANCH  13  14
ATOM     14  C   UNL     1       2.258   4.862  18.506  0.00  0.00    +0.000 A 
ATOM     15  C   UNL     1       2.247   3.801  17.582  0.00  0.00    +0.000 A 
ATOM     16  C   UNL     1       1.661   2.575  17.901  0.00  0.00    +0.000 A 
ATOM     17  C   UNL     1       1.069   2.388  19.146  0.00  0.00    +0.000 A 
ATOM     18  C   UNL     1       1.063   3.431  20.073  0.00  0.00    +0.000 A 
ATOM     19  C   UNL     1       1.650   4.660  19.757  0.00  0.00    +0.000 A 
ATOM     20 CL   UNL     1       1.584   5.907  20.951  0.00  0.00    +0.000 Cl
ENDBRANCH  13  14
ENDBRANCH   3  13
TORSDOF 5
ENDMDL
MODEL 4
REMARK VINA RESULT:      -6.8      1.803      2.112
REMARK  Name = 
REMARK  5 active torsions:
REMARK  status: ('A' for Active; 'I' for Inactive)
REMARK    1  A    between atoms: C_2  and  C_3
REMARK    2  A    between atoms: C_3  and  S_4
REMARK    3  A    between atoms: S_4  and  C_5
REMARK    4  A    between atoms: N_10  and  C_11
REMARK    5  A    between atoms: C_11  and  C_12
REMARK                            x       y       z     vdW  Elec       q    Type
REMARK                         _______ _______ _______ _____ _____    ______ ____
ROOT
ATOM      1  O   UNL     1       3.483   7.137  17.755  0.00  0.00    +0.000 OA
ATOM      2  C   UNL     1       4.335   6.304  17.459  0.00  0.00    +0.000 C 
ATOM      3  N   UNL     1       4.058   4.959  17.354  0.00  0.00    +0.000 N 
ATOM      4  H   UNL     1       4.796   4.351  17.017  0.00  0.00    +0.000 HD
ENDROOT
BRANCH   2   5
ATOM      5  C   UNL     1       5.803   6.690  17.278  0.00  0.00    +0.000 C 
BRANCH   5   6
ATOM      6  S   UNL     1       6.892   5.237  17.323  0.00  0.00    +0.000 S 
BRANCH   6   7
ATOM      7  C   UNL     1       6.845   4.716  15.670  0.00  0.00    +0.000 A 
ATOM      8  N   UNL     1       7.456   5.359  14.630  0.00  0.00    +0.000 NA
ATOM      9  C   UNL     1       7.102   4.638  13.588  0.00  0.00    +0.000 A 
ATOM     10  N   UNL     1       6.321   3.605  13.998  0.00  0.00    +0.000 N 
ATOM     11  N   UNL     1       6.153   3.626  15.326  0.00  0.00    +0.000 NA
ATOM     12  H   UNL     1       5.871   2.879  13.451  0.00  0.00    +0.000 HD
ENDBRANCH   6   7
ENDBRANCH   5   6
ENDBRANCH   2   5
BRANCH   3  13
ATOM     13  C   UNL     1       2.734   4.397  17.485  0.00  0.00    +0.000 C 
BRANCH  13  14
ATOM     14  C   UNL     1       2.473   3.982  18.910  0.00  0.00    +0.000 A 
ATOM     15  C   UNL     1       1.919   4.925  19.795  0.00  0.00    +0.000 A 
ATOM     16  C   UNL     1       1.690   4.605  21.135  0.00  0.00    +0.000 A 
ATOM     17  C   UNL     1       2.017   3.341  21.616  0.00  0.00    +0.000 A 
ATOM     18  C   UNL     1       2.573   2.395  20.754  0.00  0.00    +0.000 A 
ATOM     19  C   UNL     1       2.803   2.711  19.411  0.00  0.00    +0.000 A 
ATOM     20 CL   UNL     1       3.514   1.493  18.414  0.00  0.00    +0.000 Cl
ENDBRANCH  13  14
ENDBRANCH   3  13
TORSDOF 5
ENDMDL
MODEL 5
REMARK VINA RESULT:      -6.7      1.817      2.305
REMARK  Name = 
REMARK  5 active torsions:
REMARK  status: ('A' for Active; 'I' for Inactive)
REMARK    1  A    between atoms: C_2  and  C_3
REMARK    2  A    between atoms: C_3  and  S_4
REMARK    3  A    between atoms: S_4  and  C_5
REMARK    4  A    between atoms: N_10  and  C_11
REMARK    5  A    between atoms: C_11  and  C_12
REMARK                            x       y       z     vdW  Elec       q    Type
REMARK                         _______ _______ _______ _____ _____    ______ ____
ROOT
ATOM      1  O   UNL     1       4.987   5.602  19.699  0.00  0.00    +0.000 OA
ATOM      2  C   UNL     1       5.165   5.978  18.544  0.00  0.00    +0.000 C 
ATOM      3  N   UNL     1       4.135   6.139  17.645  0.00  0.00    +0.000 N 
ATOM      4  H   UNL     1       4.358   6.540  16.741  0.00  0.00    +0.000 HD
ENDROOT
BRANCH   2   5
ATOM      5  C   UNL     1       6.570   6.205  17.985  0.00  0.00    +0.000 C 
BRANCH   5   6
ATOM      6  S   UNL     1       7.383   4.639  17.552  0.00  0.00    +0.000 S 
BRANCH   6   7
ATOM      7  C   UNL     1       6.984   4.493  15.870  0.00  0.00    +0.000 A 
ATOM      8  N   UNL     1       7.582   5.195  14.862  0.00  0.00    +0.000 NA
ATOM      9  C   UNL     1       6.925   4.797  13.795  0.00  0.00    +0.000 A 
ATOM     10  N   UNL     1       5.983   3.889  14.157  0.00  0.00    +0.000 N 
ATOM     11  N   UNL     1       6.010   3.668  15.478  0.00  0.00    +0.000 NA
ATOM     12  H   UNL     1       5.300   3.402  13.586  0.00  0.00    +0.000 HD
ENDBRANCH   6   7
ENDBRANCH   5   6
ENDBRANCH   2   5
BRANCH   3  13
ATOM     13  C   UNL     1       2.739   5.979  17.982  0.00  0.00    +0.000 C 
BRANCH  13  14
ATOM     14  C   UNL     1       2.441   4.544  18.333  0.00  0.00    +0.000 A 
ATOM     15  C   UNL     1       2.724   3.546  17.382  0.00  0.00    +0.000 A 
ATOM     16  C   UNL     1       2.435   2.204  17.640  0.00  0.00    +0.000 A 
ATOM     17  C   UNL     1       1.851   1.837  18.849  0.00  0.00    +0.000 A 
ATOM     18  C   UNL     1       1.557   2.813  19.801  0.00  0.00    +0.000 A 
ATOM     19  C   UNL     1       1.846   4.158  19.546  0.00  0.00    +0.000 A 
ATOM     20 CL   UNL     1       1.434   5.308  20.766  0.00  0.00    +0.000 Cl
ENDBRANCH  13  14
ENDBRANCH   3  13
TORSDOF 5
ENDMDL
MODEL 6
REMARK VINA RESULT:      -6.7      2.163      2.761
REMARK  Name = 
REMARK  5 active torsions:
REMARK  status: ('A' for Active; 'I' for Inactive)
REMARK    1  A    between atoms: C_2  and  C_3
REMARK    2  A    between atoms: C_3  and  S_4
REMARK    3  A    between atoms: S_4  and  C_5
REMARK    4  A    between atoms: N_10  and  C_11
REMARK    5  A    between atoms: C_11  and  C_12
REMARK                            x       y       z     vdW  Elec       q    Type
REMARK                         _______ _______ _______ _____ _____    ______ ____
ROOT
ATOM      1  O   UNL     1       5.629   5.885  18.990  0.00  0.00    +0.000 OA
ATOM      2  C   UNL     1       5.394   5.877  17.785  0.00  0.00    +0.000 C 
ATOM      3  N   UNL     1       4.123   6.008  17.273  0.00  0.00    +0.000 N 
ATOM      4  H   UNL     1       4.026   6.083  16.266  0.00  0.00    +0.000 HD
ENDROOT
BRANCH   2   5
ATOM      5  C   UNL     1       6.495   5.621  16.756  0.00  0.00    +0.000 C 
BRANCH   5   6
ATOM      6  S   UNL     1       6.198   4.095  15.817  0.00  0.00    +0.000 S 
BRANCH   6   7
ATOM      7  C   UNL     1       6.812   4.525  14.253  0.00  0.00    +0.000 A 
ATOM      8  N   UNL     1       6.440   3.935  13.078  0.00  0.00    +0.000 NA
ATOM      9  C   UNL     1       7.195   4.543  12.189  0.00  0.00    +0.000 A 
ATOM     10  N   UNL     1       7.975   5.463  12.813  0.00  0.00    +0.000 N 
ATOM     11  N   UNL     1       7.739   5.480  14.132  0.00  0.00    +0.000 NA
ATOM     12  H   UNL     1       8.676   6.086  12.426  0.00  0.00    +0.000 HD
ENDBRANCH   6   7
ENDBRANCH   5   6
ENDBRANCH   2   5
BRANCH   3  13
ATOM     13  C   UNL     1       2.951   6.263  18.079  0.00  0.00    +0.000 C 
BRANCH  13  14
ATOM     14  C   UNL     1       2.354   4.968  18.567  0.00  0.00    +0.000 A 
ATOM     15  C   UNL     1       2.438   3.833  17.739  0.00  0.00    +0.000 A 
ATOM     16  C   UNL     1       1.871   2.618  18.126  0.00  0.00    +0.000 A 
ATOM     17  C   UNL     1       1.202   2.516  19.342  0.00  0.00    +0.000 A 
ATOM     18  C   UNL     1       1.102   3.632  20.173  0.00  0.00    +0.000 A 
ATOM     19  C   UNL     1       1.670   4.851  19.789  0.00  0.00    +0.000 A 
ATOM     20 CL   UNL     1       1.485   6.191  20.864  0.00  0.00    +0.000 Cl
ENDBRANCH  13  14
ENDBRANCH   3  13
TORSDOF 5
ENDMDL
MODEL 7
REMARK VINA RESULT:      -6.7      2.252      3.087
REMARK  Name = 
REMARK  5 active torsions:
REMARK  status: ('A' for Active; 'I' for Inactive)
REMARK    1  A    between atoms: C_2  and  C_3
REMARK    2  A    between atoms: C_3  and  S_4
REMARK    3  A    between atoms: S_4  and  C_5
REMARK    4  A    between atoms: N_10  and  C_11
REMARK    5  A    between atoms: C_11  and  C_12
REMARK                            x       y       z     vdW  Elec       q    Type
REMARK                         _______ _______ _______ _____ _____    ______ ____
ROOT
ATOM      1  O   UNL     1       5.860   3.313  15.911  0.00  0.00    +0.000 OA
ATOM      2  C   UNL     1       5.040   4.183  16.194  0.00  0.00    +0.000 C 
ATOM      3  N   UNL     1       3.931   3.936  16.972  0.00  0.00    +0.000 N 
ATOM      4  H   UNL     1       3.355   4.729  17.235  0.00  0.00    +0.000 HD
ENDROOT
BRANCH   2   5
ATOM      5  C   UNL     1       5.141   5.595  15.618  0.00  0.00    +0.000 C 
BRANCH   5   6
ATOM      6  S   UNL     1       5.052   6.861  16.919  0.00  0.00    +0.000 S 
BRANCH   6   7
ATOM      7  C   UNL     1       6.181   6.242  18.082  0.00  0.00    +0.000 A 
ATOM      8  N   UNL     1       7.529   6.464  18.057  0.00  0.00    +0.000 NA
ATOM      9  C   UNL     1       7.962   5.767  19.084  0.00  0.00    +0.000 A 
ATOM     10  N   UNL     1       6.910   5.165  19.697  0.00  0.00    +0.000 N 
ATOM     11  N   UNL     1       5.759   5.464  19.082  0.00  0.00    +0.000 NA
ATOM     12  H   UNL     1       6.898   4.547  20.502  0.00  0.00    +0.000 HD
ENDBRANCH   6   7
ENDBRANCH   5   6
ENDBRANCH   2   5
BRANCH   3  13
ATOM     13  C   UNL     1       3.661   2.670  17.613  0.00  0.00    +0.000 C 
BRANCH  13  14
ATOM     14  C   UNL     1       2.859   2.875  18.872  0.00  0.00    +0.000 A 
ATOM     15  C   UNL     1       1.585   3.462  18.770  0.00  0.00    +0.000 A 
ATOM     16  C   UNL     1       0.813   3.707  19.907  0.00  0.00    +0.000 A 
ATOM     17  C   UNL     1       1.303   3.378  21.167  0.00  0.00    +0.000 A 
ATOM     18  C   UNL     1       2.568   2.801  21.289  0.00  0.00    +0.000 A 
ATOM     19  C   UNL     1       3.343   2.553  20.151  0.00  0.00    +0.000 A 
ATOM     20 CL   UNL     1       4.906   1.855  20.387  0.00  0.00    +0.000 Cl
ENDBRANCH  13  14
ENDBRANCH   3  13
TORSDOF 5
ENDMDL
MODEL 8
REMARK VINA RESULT:      -6.6      1.855      2.263
REMARK  Name = 
REMARK  5 active torsions:
REMARK  status: ('A' for Active; 'I' for Inactive)
REMARK    1  A    between atoms: C_2  and  C_3
REMARK    2  A    between atoms: C_3  and  S_4
REMARK    3  A    between atoms: S_4  and  C_5
REMARK    4  A    between atoms: N_10  and  C_11
REMARK    5  A    between atoms: C_11  and  C_12
REMARK                            x       y       z     vdW  Elec       q    Type
REMARK                         _______ _______ _______ _____ _____    ______ ____
ROOT
ATOM      1  O   UNL     1       6.355   4.206  18.783  0.00  0.00    +0.000 OA
ATOM      2  C   UNL     1       5.544   4.878  18.152  0.00  0.00    +0.000 C 
ATOM      3  N   UNL     1       4.352   4.367  17.690  0.00  0.00    +0.000 N 
ATOM      4  H   UNL     1       3.699   5.012  17.258  0.00  0.00    +0.000 HD
ENDROOT
BRANCH   2   5
ATOM      5  C   UNL     1       5.844   6.321  17.745  0.00  0.00    +0.000 C 
BRANCH   5   6
ATOM      6  S   UNL     1       5.162   6.715  16.108  0.00  0.00    +0.000 S 
BRANCH   6   7
ATOM      7  C   UNL     1       5.971   5.552  15.107  0.00  0.00    +0.000 A 
ATOM      8  N   UNL     1       5.358   4.508  14.471  0.00  0.00    +0.000 NA
ATOM      9  C   UNL     1       6.361   3.886  13.891  0.00  0.00    +0.000 A 
ATOM     10  N   UNL     1       7.519   4.542  14.165  0.00  0.00    +0.000 N 
ATOM     11  N   UNL     1       7.293   5.618  14.930  0.00  0.00    +0.000 NA
ATOM     12  H   UNL     1       8.469   4.319  13.889  0.00  0.00    +0.000 HD
ENDBRANCH   6   7
ENDBRANCH   5   6
ENDBRANCH   2   5
BRANCH   3  13
ATOM     13  C   UNL     1       3.885   3.030  17.974  0.00  0.00    +0.000 C 
BRANCH  13  14
ATOM     14  C   UNL     1       3.005   3.025  19.197  0.00  0.00    +0.000 A 
ATOM     15  C   UNL     1       1.749   3.655  19.126  0.00  0.00    +0.000 A 
ATOM     16  C   UNL     1       0.908   3.711  20.239  0.00  0.00    +0.000 A 
ATOM     17  C   UNL     1       1.311   3.148  21.446  0.00  0.00    +0.000 A 
ATOM     18  C   UNL     1       2.556   2.526  21.538  0.00  0.00    +0.000 A 
ATOM     19  C   UNL     1       3.400   2.466  20.424  0.00  0.00    +0.000 A 
ATOM     20 CL   UNL     1       4.934   1.697  20.625  0.00  0.00    +0.000 Cl
ENDBRANCH  13  14
ENDBRANCH   3  13
TORSDOF 5
ENDMDL
MODEL 9
REMARK VINA RESULT:      -6.6      1.849      2.440
REMARK  Name = 
REMARK  5 active torsions:
REMARK  status: ('A' for Active; 'I' for Inactive)
REMARK    1  A    between atoms: C_2  and  C_3
REMARK    2  A    between atoms: C_3  and  S_4
REMARK    3  A    between atoms: S_4  and  C_5
REMARK    4  A    between atoms: N_10  and  C_11
REMARK    5  A    between atoms: C_11  and  C_12
REMARK                            x       y       z     vdW  Elec       q    Type
REMARK                         _______ _______ _______ _____ _____    ______ ____
ROOT
ATOM      1  O   UNL     1       4.531   6.732  16.469  0.00  0.00    +0.000 OA
ATOM      2  C   UNL     1       4.627   5.519  16.640  0.00  0.00    +0.000 C 
ATOM      3  N   UNL     1       4.231   4.897  17.802  0.00  0.00    +0.000 N 
ATOM      4  H   UNL     1       4.259   3.884  17.827  0.00  0.00    +0.000 HD
ENDROOT
BRANCH   2   5
ATOM      5  C   UNL     1       5.291   4.615  15.601  0.00  0.00    +0.000 C 
BRANCH   5   6
ATOM      6  S   UNL     1       7.084   4.896  15.511  0.00  0.00    +0.000 S 
BRANCH   6   7
ATOM      7  C   UNL     1       7.443   5.369  17.141  0.00  0.00    +0.000 A 
ATOM      8  N   UNL     1       7.713   6.647  17.543  0.00  0.00    +0.000 NA
ATOM      9  C   UNL     1       7.971   6.506  18.824  0.00  0.00    +0.000 A 
ATOM     10  N   UNL     1       7.849   5.197  19.168  0.00  0.00    +0.000 N 
ATOM     11  N   UNL     1       7.499   4.452  18.112  0.00  0.00    +0.000 NA
ATOM     12  H   UNL     1       7.994   4.749  20.067  0.00  0.00    +0.000 HD
ENDBRANCH   6   7
ENDBRANCH   5   6
ENDBRANCH   2   5
BRANCH   3  13
ATOM     13  C   UNL     1       3.578   5.576  18.898  0.00  0.00    +0.000 C 
BRANCH  13  14
ATOM     14  C   UNL     1       2.672   4.629  19.642  0.00  0.00    +0.000 A 
ATOM     15  C   UNL     1       2.963   4.337  20.987  0.00  0.00    +0.000 A 
ATOM     16  C   UNL     1       2.178   3.440  21.714  0.00  0.00    +0.000 A 
ATOM     17  C   UNL     1       1.094   2.812  21.108  0.00  0.00    +0.000 A 
ATOM     18  C   UNL     1       0.795   3.084  19.772  0.00  0.00    +0.000 A 
ATOM     19  C   UNL     1       1.578   3.983  19.042  0.00  0.00    +0.000 A 
ATOM     20 CL   UNL     1       1.155   4.250  17.388  0.00  0.00    +0.000 Cl
ENDBRANCH  13  14
ENDBRANCH   3  13
TORSDOF 5
ENDMDL
