MODEL 1
REMARK VINA RESULT:      -6.7      0.000      0.000
REMARK  Name = 
REMARK  8 active torsions:
REMARK  status: ('A' for Active; 'I' for Inactive)
REMARK    1  A    between atoms: C_1  and  C_2
REMARK    2  A    between atoms: C_2  and  O_3
REMARK    3  A    between atoms: O_3  and  C_4
REMARK    4  A    between atoms: C_4  and  C_5
REMARK    5  A    between atoms: N_7  and  C_8
REMARK    6  A    between atoms: C_8  and  C_9
REMARK    7  A    between atoms: N_12  and  C_13
REMARK    8  A    between atoms: N_18  and  C_19
REMARK                            x       y       z     vdW  Elec       q    Type
REMARK                         _______ _______ _______ _____ _____    ______ ____
ROOT
ATOM      1  C   UNL     1       3.391   5.975  19.072  0.00  0.00    +0.000 C 
ATOM      2  C   UNL     1       3.672   5.694  17.569  0.00  0.00    +0.000 C 
ATOM      3  N   UNL     1       4.282   4.406  17.198  0.00  0.00    +0.000 NA
ATOM      4  C   UNL     1       3.669   3.206  17.825  0.00  0.00    +0.000 C 
ATOM      5  C   UNL     1       3.025   3.467  19.156  0.00  0.00    +0.000 A 
ATOM      6  N   UNL     1       2.491   2.509  19.929  0.00  0.00    +0.000 NA
ATOM      7  N   UNL     1       1.990   3.183  20.982  0.00  0.00    +0.000 N 
ATOM      8  C   UNL     1       1.326   2.491  22.063  0.00  0.00    +0.000 C 
ATOM      9  C   UNL     1       2.186   4.529  20.904  0.00  0.00    +0.000 A 
ATOM     10  C   UNL     1       2.857   4.748  19.724  0.00  0.00    +0.000 A 
ENDROOT
BRANCH   1  11
ATOM     11  C   UNL     1       2.444   7.186  19.148  0.00  0.00    +0.000 C 
BRANCH  11  12
ATOM     12  O   UNL     1       2.130   7.797  17.894  0.00  0.00    +0.000 OA
BRANCH  12  14
ATOM     13  C   UNL     1       0.630   9.655  18.028  0.00  0.00    +0.000 C 
ATOM     14  C   UNL     1       2.079   9.221  17.969  0.00  0.00    +0.000 C 
ENDBRANCH  12  14
ENDBRANCH  11  12
ENDBRANCH   1  11
BRANCH   3  15
ATOM     15  C   UNL     1       5.743   4.382  17.183  0.00  0.00    +0.000 C 
BRANCH  15  16
ATOM     16  C   UNL     1       6.254   4.465  15.773  0.00  0.00    +0.000 A 
ATOM     17  C   UNL     1       7.261   5.329  15.277  0.00  0.00    +0.000 A 
ATOM     18  N   UNL     1       7.488   5.172  13.972  0.00  0.00    +0.000 NA
ATOM     19  N   UNL     1       6.637   4.194  13.616  0.00  0.00    +0.000 N 
ATOM     20  C   UNL     1       6.614   3.719  12.253  0.00  0.00    +0.000 C 
ATOM     21  C   UNL     1       5.876   3.740  14.655  0.00  0.00    +0.000 A 
ENDBRANCH  15  16
ENDBRANCH   3  15
TORSDOF 5
ENDMDL
MODEL 2
REMARK VINA RESULT:      -6.6      2.023      2.220
REMARK  Name = 
REMARK  8 active torsions:
REMARK  status: ('A' for Active; 'I' for Inactive)
REMARK    1  A    between atoms: C_1  and  C_2
REMARK    2  A    between atoms: C_2  and  O_3
REMARK    3  A    between atoms: O_3  and  C_4
REMARK    4  A    between atoms: C_4  and  C_5
REMARK    5  A    between atoms: N_7  and  C_8
REMARK    6  A    between atoms: C_8  and  C_9
REMARK    7  A    between atoms: N_12  and  C_13
REMARK    8  A    between atoms: N_18  and  C_19
REMARK                            x       y       z     vdW  Elec       q    Type
REMARK                         _______ _______ _______ _____ _____    ______ ____
ROOT
ATOM      1  C   UNL     1       2.538   7.181  19.653  0.00  0.00    +0.000 C 
ATOM      2  C   UNL     1       2.805   7.377  18.133  0.00  0.00    +0.000 C 
ATOM      3  N   UNL     1       3.689   6.420  17.447  0.00  0.00    +0.000 NA
ATOM      4  C   UNL     1       3.413   4.986  17.725  0.00  0.00    +0.000 C 
ATOM      5  C   UNL     1       2.789   4.727  19.066  0.00  0.00    +0.000 A 
ATOM      6  N   UNL     1       2.539   3.500  19.549  0.00  0.00    +0.000 NA
ATOM      7  N   UNL     1       1.942   3.734  20.734  0.00  0.00    +0.000 N 
ATOM      8  C   UNL     1       1.517   2.644  21.582  0.00  0.00    +0.000 C 
ATOM      9  C   UNL     1       1.805   5.059  21.017  0.00  0.00    +0.000 A 
ATOM     10  C   UNL     1       2.346   5.734  19.948  0.00  0.00    +0.000 A 
ENDROOT
BRANCH   1  11
ATOM     11  C   UNL     1       1.331   8.060  20.028  0.00  0.00    +0.000 C 
BRANCH  11  12
ATOM     12  O   UNL     1       1.281   8.478  21.395  0.00  0.00    +0.000 OA
BRANCH  12  14
ATOM     13  C   UNL     1       0.012   9.495  23.149  0.00  0.00    +0.000 C 
ATOM     14  C   UNL     1      -0.049   8.711  21.855  0.00  0.00    +0.000 C 
ENDBRANCH  12  14
ENDBRANCH  11  12
ENDBRANCH   1  11
BRANCH   3  15
ATOM     15  C   UNL     1       5.110   6.759  17.452  0.00  0.00    +0.000 C 
BRANCH  15  16
ATOM     16  C   UNL     1       5.865   5.869  16.506  0.00  0.00    +0.000 A 
ATOM     17  C   UNL     1       7.066   5.167  16.767  0.00  0.00    +0.000 A 
ATOM     18  N   UNL     1       7.499   4.464  15.718  0.00  0.00    +0.000 NA
ATOM     19  N   UNL     1       6.572   4.698  14.774  0.00  0.00    +0.000 N 
ATOM     20  C   UNL     1       6.687   4.070  13.479  0.00  0.00    +0.000 C 
ATOM     21  C   UNL     1       5.576   5.534  15.193  0.00  0.00    +0.000 A 
ENDBRANCH  15  16
ENDBRANCH   3  15
TORSDOF 5
ENDMDL
MODEL 3
REMARK VINA RESULT:      -6.3      3.168      6.307
REMARK  Name = 
REMARK  8 active torsions:
REMARK  status: ('A' for Active; 'I' for Inactive)
REMARK    1  A    between atoms: C_1  and  C_2
REMARK    2  A    between atoms: C_2  and  O_3
REMARK    3  A    between atoms: O_3  and  C_4
REMARK    4  A    between atoms: C_4  and  C_5
REMARK    5  A    between atoms: N_7  and  C_8
REMARK    6  A    between atoms: C_8  and  C_9
REMARK    7  A    between atoms: N_12  and  C_13
REMARK    8  A    between atoms: N_18  and  C_19
REMARK                            x       y       z     vdW  Elec       q    Type
REMARK                         _______ _______ _______ _____ _____    ______ ____
ROOT
ATOM      1  C   UNL     1       3.458   5.287  17.665  0.00  0.00    +0.000 C 
ATOM      2  C   UNL     1       3.809   6.796  17.797  0.00  0.00    +0.000 C 
ATOM      3  N   UNL     1       2.849   7.682  18.477  0.00  0.00    +0.000 NA
ATOM      4  C   UNL     1       2.320   7.176  19.770  0.00  0.00    +0.000 C 
ATOM      5  C   UNL     1       2.290   5.679  19.881  0.00  0.00    +0.000 A 
ATOM      6  N   UNL     1       1.772   5.017  20.927  0.00  0.00    +0.000 NA
ATOM      7  N   UNL     1       2.000   3.721  20.636  0.00  0.00    +0.000 N 
ATOM      8  C   UNL     1       1.575   2.671  21.532  0.00  0.00    +0.000 C 
ATOM      9  C   UNL     1       2.643   3.539  19.449  0.00  0.00    +0.000 A 
ATOM     10  C   UNL     1       2.848   4.797  18.932  0.00  0.00    +0.000 A 
ENDROOT
BRANCH   1  11
ATOM     11  C   UNL     1       4.747   4.545  17.265  0.00  0.00    +0.000 C 
BRANCH  11  12
ATOM     12  O   UNL     1       5.768   4.511  18.265  0.00  0.00    +0.000 OA
BRANCH  12  14
ATOM     13  C   UNL     1       7.717   5.819  18.724  0.00  0.00    +0.000 C 
ATOM     14  C   UNL     1       7.054   4.862  17.756  0.00  0.00    +0.000 C 
ENDBRANCH  12  14
ENDBRANCH  11  12
ENDBRANCH   1  11
BRANCH   3  15
ATOM     15  C   UNL     1       1.831   8.284  17.618  0.00  0.00    +0.000 C 
BRANCH  15  16
ATOM     16  C   UNL     1       1.470   9.655  18.116  0.00  0.00    +0.000 A 
ATOM     17  C   UNL     1       0.259  10.048  18.735  0.00  0.00    +0.000 A 
ATOM     18  N   UNL     1       0.233  11.343  19.058  0.00  0.00    +0.000 NA
ATOM     19  N   UNL     1       1.435  11.793  18.662  0.00  0.00    +0.000 N 
ATOM     20  C   UNL     1       1.795  13.175  18.877  0.00  0.00    +0.000 C 
ATOM     21  C   UNL     1       2.211  10.825  18.090  0.00  0.00    +0.000 A 
ENDBRANCH  15  16
ENDBRANCH   3  15
TORSDOF 5
ENDMDL
MODEL 4
REMARK VINA RESULT:      -6.3      2.365      6.710
REMARK  Name = 
REMARK  8 active torsions:
REMARK  status: ('A' for Active; 'I' for Inactive)
REMARK    1  A    between atoms: C_1  and  C_2
REMARK    2  A    between atoms: C_2  and  O_3
REMARK    3  A    between atoms: O_3  and  C_4
REMARK    4  A    between atoms: C_4  and  C_5
REMARK    5  A    between atoms: N_7  and  C_8
REMARK    6  A    between atoms: C_8  and  C_9
REMARK    7  A    between atoms: N_12  and  C_13
REMARK    8  A    between atoms: N_18  and  C_19
REMARK                            x       y       z     vdW  Elec       q    Type
REMARK                         _______ _______ _______ _____ _____    ______ ____
ROOT
ATOM      1  C   UNL     1       6.235   6.315  16.802  0.00  0.00    +0.000 C 
ATOM      2  C   UNL     1       5.758   5.608  18.103  0.00  0.00    +0.000 C 
ATOM      3  N   UNL     1       4.640   4.654  18.012  0.00  0.00    +0.000 NA
ATOM      4  C   UNL     1       4.737   3.662  16.910  0.00  0.00    +0.000 C 
ATOM      5  C   UNL     1       5.523   4.135  15.721  0.00  0.00    +0.000 A 
ATOM      6  N   UNL     1       5.660   3.431  14.587  0.00  0.00    +0.000 NA
ATOM      7  N   UNL     1       6.470   4.195  13.827  0.00  0.00    +0.000 N 
ATOM      8  C   UNL     1       6.857   3.777  12.499  0.00  0.00    +0.000 C 
ATOM      9  C   UNL     1       6.850   5.352  14.437  0.00  0.00    +0.000 A 
ATOM     10  C   UNL     1       6.251   5.343  15.675  0.00  0.00    +0.000 A 
ENDROOT
BRANCH   1  11
ATOM     11  C   UNL     1       7.605   6.952  17.097  0.00  0.00    +0.000 C 
BRANCH  11  12
ATOM     12  O   UNL     1       7.588   8.364  17.320  0.00  0.00    +0.000 OA
BRANCH  12  14
ATOM     13  C   UNL     1       8.854  10.190  18.205  0.00  0.00    +0.000 C 
ATOM     14  C   UNL     1       8.403   8.762  18.423  0.00  0.00    +0.000 C 
ENDBRANCH  12  14
ENDBRANCH  11  12
ENDBRANCH   1  11
BRANCH   3  15
ATOM     15  C   UNL     1       3.306   5.228  18.172  0.00  0.00    +0.000 C 
BRANCH  15  16
ATOM     16  C   UNL     1       2.450   4.336  19.025  0.00  0.00    +0.000 A 
ATOM     17  C   UNL     1       1.281   3.641  18.632  0.00  0.00    +0.000 A 
ATOM     18  N   UNL     1       0.735   2.934  19.623  0.00  0.00    +0.000 NA
ATOM     19  N   UNL     1       1.555   3.158  20.663  0.00  0.00    +0.000 N 
ATOM     20  C   UNL     1       1.299   2.522  21.934  0.00  0.00    +0.000 C 
ATOM     21  C   UNL     1       2.594   3.991  20.360  0.00  0.00    +0.000 A 
ENDBRANCH  15  16
ENDBRANCH   3  15
TORSDOF 5
ENDMDL
MODEL 5
REMARK VINA RESULT:      -6.3      3.146      6.579
REMARK  Name = 
REMARK  8 active torsions:
REMARK  status: ('A' for Active; 'I' for Inactive)
REMARK    1  A    between atoms: C_1  and  C_2
REMARK    2  A    between atoms: C_2  and  O_3
REMARK    3  A    between atoms: O_3  and  C_4
REMARK    4  A    between atoms: C_4  and  C_5
REMARK    5  A    between atoms: N_7  and  C_8
REMARK    6  A    between atoms: C_8  and  C_9
REMARK    7  A    between atoms: N_12  and  C_13
REMARK    8  A    between atoms: N_18  and  C_19
REMARK                            x       y       z     vdW  Elec       q    Type
REMARK                         _______ _______ _______ _____ _____    ______ ____
ROOT
ATOM      1  C   UNL     1       4.518   6.070  16.731  0.00  0.00    +0.000 C 
ATOM      2  C   UNL     1       4.326   7.330  17.622  0.00  0.00    +0.000 C 
ATOM      3  N   UNL     1       3.096   7.441  18.424  0.00  0.00    +0.000 NA
ATOM      4  C   UNL     1       2.724   6.224  19.192  0.00  0.00    +0.000 C 
ATOM      5  C   UNL     1       3.204   4.939  18.582  0.00  0.00    +0.000 A 
ATOM      6  N   UNL     1       2.905   3.724  19.065  0.00  0.00    +0.000 NA
ATOM      7  N   UNL     1       3.573   2.879  18.256  0.00  0.00    +0.000 N 
ATOM      8  C   UNL     1       3.499   1.449  18.449  0.00  0.00    +0.000 C 
ATOM      9  C   UNL     1       4.283   3.513  17.281  0.00  0.00    +0.000 A 
ATOM     10  C   UNL     1       4.065   4.858  17.467  0.00  0.00    +0.000 A 
ENDROOT
BRANCH   1  11
ATOM     11  C   UNL     1       5.996   6.026  16.304  0.00  0.00    +0.000 C 
BRANCH  11  12
ATOM     12  O   UNL     1       6.224   5.755  14.918  0.00  0.00    +0.000 OA
BRANCH  12  14
ATOM     13  C   UNL     1       6.077   3.826  13.511  0.00  0.00    +0.000 C 
ATOM     14  C   UNL     1       6.782   4.461  14.691  0.00  0.00    +0.000 C 
ENDBRANCH  12  14
ENDBRANCH  11  12
ENDBRANCH   1  11
BRANCH   3  15
ATOM     15  C   UNL     1       1.966   8.087  17.760  0.00  0.00    +0.000 C 
BRANCH  15  16
ATOM     16  C   UNL     1       1.630   9.383  18.440  0.00  0.00    +0.000 A 
ATOM     17  C   UNL     1       2.004  10.686  18.032  0.00  0.00    +0.000 A 
ATOM     18  N   UNL     1       1.559  11.640  18.853  0.00  0.00    +0.000 NA
ATOM     19  N   UNL     1       0.881  10.959  19.793  0.00  0.00    +0.000 N 
ATOM     20  C   UNL     1       0.217  11.670  20.859  0.00  0.00    +0.000 C 
ATOM     21  C   UNL     1       0.895   9.608  19.593  0.00  0.00    +0.000 A 
ENDBRANCH  15  16
ENDBRANCH   3  15
TORSDOF 5
ENDMDL
MODEL 6
REMARK VINA RESULT:      -6.3      3.118      6.424
REMARK  Name = 
REMARK  8 active torsions:
REMARK  status: ('A' for Active; 'I' for Inactive)
REMARK    1  A    between atoms: C_1  and  C_2
REMARK    2  A    between atoms: C_2  and  O_3
REMARK    3  A    between atoms: O_3  and  C_4
REMARK    4  A    between atoms: C_4  and  C_5
REMARK    5  A    between atoms: N_7  and  C_8
REMARK    6  A    between atoms: C_8  and  C_9
REMARK    7  A    between atoms: N_12  and  C_13
REMARK    8  A    between atoms: N_18  and  C_19
REMARK                            x       y       z     vdW  Elec       q    Type
REMARK                         _______ _______ _______ _____ _____    ______ ____
ROOT
ATOM      1  C   UNL     1       3.476   5.458  17.650  0.00  0.00    +0.000 C 
ATOM      2  C   UNL     1       3.753   6.982  17.793  0.00  0.00    +0.000 C 
ATOM      3  N   UNL     1       2.751   7.815  18.479  0.00  0.00    +0.000 NA
ATOM      4  C   UNL     1       2.249   7.275  19.769  0.00  0.00    +0.000 C 
ATOM      5  C   UNL     1       2.293   5.778  19.871  0.00  0.00    +0.000 A 
ATOM      6  N   UNL     1       1.810   5.084  20.912  0.00  0.00    +0.000 NA
ATOM      7  N   UNL     1       2.100   3.803  20.612  0.00  0.00    +0.000 N 
ATOM      8  C   UNL     1       1.728   2.727  21.502  0.00  0.00    +0.000 C 
ATOM      9  C   UNL     1       2.750   3.661  19.423  0.00  0.00    +0.000 A 
ATOM     10  C   UNL     1       2.893   4.931  18.914  0.00  0.00    +0.000 A 
ENDROOT
BRANCH   1  11
ATOM     11  C   UNL     1       4.799   4.784  17.244  0.00  0.00    +0.000 C 
BRANCH  11  12
ATOM     12  O   UNL     1       5.869   4.921  18.182  0.00  0.00    +0.000 OA
BRANCH  12  14
ATOM     13  C   UNL     1       7.008   4.660  16.095  0.00  0.00    +0.000 C 
ATOM     14  C   UNL     1       7.150   4.675  17.603  0.00  0.00    +0.000 C 
ENDBRANCH  12  14
ENDBRANCH  11  12
ENDBRANCH   1  11
BRANCH   3  15
ATOM     15  C   UNL     1       1.704   8.373  17.626  0.00  0.00    +0.000 C 
BRANCH  15  16
ATOM     16  C   UNL     1       1.318   9.745  18.099  0.00  0.00    +0.000 A 
ATOM     17  C   UNL     1       2.153  10.886  18.188  0.00  0.00    +0.000 A 
ATOM     18  N   UNL     1       1.519  11.962  18.656  0.00  0.00    +0.000 NA
ATOM     19  N   UNL     1       0.264  11.528  18.862  0.00  0.00    +0.000 N 
ATOM     20  C   UNL     1      -0.744  12.439  19.350  0.00  0.00    +0.000 C 
ATOM     21  C   UNL     1       0.092  10.210  18.547  0.00  0.00    +0.000 A 
ENDBRANCH  15  16
ENDBRANCH   3  15
TORSDOF 5
ENDMDL
MODEL 7
REMARK VINA RESULT:      -6.3      2.918      7.119
REMARK  Name = 
REMARK  8 active torsions:
REMARK  status: ('A' for Active; 'I' for Inactive)
REMARK    1  A    between atoms: C_1  and  C_2
REMARK    2  A    between atoms: C_2  and  O_3
REMARK    3  A    between atoms: O_3  and  C_4
REMARK    4  A    between atoms: C_4  and  C_5
REMARK    5  A    between atoms: N_7  and  C_8
REMARK    6  A    between atoms: C_8  and  C_9
REMARK    7  A    between atoms: N_12  and  C_13
REMARK    8  A    between atoms: N_18  and  C_19
REMARK                            x       y       z     vdW  Elec       q    Type
REMARK                         _______ _______ _______ _____ _____    ______ ____
ROOT
ATOM      1  C   UNL     1       3.126   4.344  17.923  0.00  0.00    +0.000 C 
ATOM      2  C   UNL     1       2.055   5.463  18.060  0.00  0.00    +0.000 C 
ATOM      3  N   UNL     1       2.510   6.848  18.263  0.00  0.00    +0.000 NA
ATOM      4  C   UNL     1       3.594   7.303  17.354  0.00  0.00    +0.000 C 
ATOM      5  C   UNL     1       4.484   6.201  16.856  0.00  0.00    +0.000 A 
ATOM      6  N   UNL     1       5.572   6.404  16.097  0.00  0.00    +0.000 NA
ATOM      7  N   UNL     1       6.029   5.162  15.846  0.00  0.00    +0.000 N 
ATOM      8  C   UNL     1       7.215   4.951  15.049  0.00  0.00    +0.000 C 
ATOM      9  C   UNL     1       5.272   4.183  16.417  0.00  0.00    +0.000 A 
ATOM     10  C   UNL     1       4.256   4.827  17.082  0.00  0.00    +0.000 A 
ENDROOT
BRANCH   1  11
ATOM     11  C   UNL     1       2.422   3.094  17.364  0.00  0.00    +0.000 C 
BRANCH  11  12
ATOM     12  O   UNL     1       1.301   2.633  18.123  0.00  0.00    +0.000 OA
BRANCH  12  14
ATOM     13  C   UNL     1       1.129   2.853  20.499  0.00  0.00    +0.000 C 
ATOM     14  C   UNL     1       1.680   2.025  19.358  0.00  0.00    +0.000 C 
ENDBRANCH  12  14
ENDBRANCH  11  12
ENDBRANCH   1  11
BRANCH   3  15
ATOM     15  C   UNL     1       2.699   7.252  19.654  0.00  0.00    +0.000 C 
BRANCH  15  16
ATOM     16  C   UNL     1       1.637   8.230  20.066  0.00  0.00    +0.000 A 
ATOM     17  C   UNL     1       0.914   8.246  21.284  0.00  0.00    +0.000 A 
ATOM     18  N   UNL     1       0.026   9.240  21.351  0.00  0.00    +0.000 NA
ATOM     19  N   UNL     1       0.176   9.881  20.180  0.00  0.00    +0.000 N 
ATOM     20  C   UNL     1      -0.613  11.055  19.894  0.00  0.00    +0.000 C 
ATOM     21  C   UNL     1       1.124   9.316  19.375  0.00  0.00    +0.000 A 
ENDBRANCH  15  16
ENDBRANCH   3  15
TORSDOF 5
ENDMDL
MODEL 8
REMARK VINA RESULT:      -6.2      3.098      6.383
REMARK  Name = 
REMARK  8 active torsions:
REMARK  status: ('A' for Active; 'I' for Inactive)
REMARK    1  A    between atoms: C_1  and  C_2
REMARK    2  A    between atoms: C_2  and  O_3
REMARK    3  A    between atoms: O_3  and  C_4
REMARK    4  A    between atoms: C_4  and  C_5
REMARK    5  A    between atoms: N_7  and  C_8
REMARK    6  A    between atoms: C_8  and  C_9
REMARK    7  A    between atoms: N_12  and  C_13
REMARK    8  A    between atoms: N_18  and  C_19
REMARK                            x       y       z     vdW  Elec       q    Type
REMARK                         _______ _______ _______ _____ _____    ______ ____
ROOT
ATOM      1  C   UNL     1       3.353   5.269  17.635  0.00  0.00    +0.000 C 
ATOM      2  C   UNL     1       3.734   6.771  17.767  0.00  0.00    +0.000 C 
ATOM      3  N   UNL     1       2.809   7.670  18.476  0.00  0.00    +0.000 NA
ATOM      4  C   UNL     1       2.305   7.167  19.780  0.00  0.00    +0.000 C 
ATOM      5  C   UNL     1       2.251   5.670  19.884  0.00  0.00    +0.000 A 
ATOM      6  N   UNL     1       1.750   5.011  20.940  0.00  0.00    +0.000 NA
ATOM      7  N   UNL     1       1.946   3.713  20.636  0.00  0.00    +0.000 N 
ATOM      8  C   UNL     1       1.525   2.665  21.538  0.00  0.00    +0.000 C 
ATOM      9  C   UNL     1       2.553   3.527  19.431  0.00  0.00    +0.000 A 
ATOM     10  C   UNL     1       2.768   4.784  18.915  0.00  0.00    +0.000 A 
ENDROOT
BRANCH   1  11
ATOM     11  C   UNL     1       4.616   4.507  17.197  0.00  0.00    +0.000 C 
BRANCH  11  12
ATOM     12  O   UNL     1       4.820   4.423  15.784  0.00  0.00    +0.000 OA
BRANCH  12  14
ATOM     13  C   UNL     1       6.252   3.937  13.931  0.00  0.00    +0.000 C 
ATOM     14  C   UNL     1       6.136   3.991  15.439  0.00  0.00    +0.000 C 
ENDBRANCH  12  14
ENDBRANCH  11  12
ENDBRANCH   1  11
BRANCH   3  15
ATOM     15  C   UNL     1       1.780   8.296  17.649  0.00  0.00    +0.000 C 
BRANCH  15  16
ATOM     16  C   UNL     1       1.479   9.681  18.145  0.00  0.00    +0.000 A 
ATOM     17  C   UNL     1       0.309  10.115  18.815  0.00  0.00    +0.000 A 
ATOM     18  N   UNL     1       0.333  11.413  19.122  0.00  0.00    +0.000 NA
ATOM     19  N   UNL     1       1.526  11.827  18.663  0.00  0.00    +0.000 N 
ATOM     20  C   UNL     1       1.932  13.200  18.844  0.00  0.00    +0.000 C 
ATOM     21  C   UNL     1       2.248  10.831  18.069  0.00  0.00    +0.000 A 
ENDBRANCH  15  16
ENDBRANCH   3  15
TORSDOF 5
ENDMDL
MODEL 9
REMARK VINA RESULT:      -6.2      3.090      6.484
REMARK  Name = 
REMARK  8 active torsions:
REMARK  status: ('A' for Active; 'I' for Inactive)
REMARK    1  A    between atoms: C_1  and  C_2
REMARK    2  A    between atoms: C_2  and  O_3
REMARK    3  A    between atoms: O_3  and  C_4
REMARK    4  A    between atoms: C_4  and  C_5
REMARK    5  A    between atoms: N_7  and  C_8
REMARK    6  A    between atoms: C_8  and  C_9
REMARK    7  A    between atoms: N_12  and  C_13
REMARK    8  A    between atoms: N_18  and  C_19
REMARK                            x       y       z     vdW  Elec       q    Type
REMARK                         _______ _______ _______ _____ _____    ______ ____
ROOT
ATOM      1  C   UNL     1       4.571   5.864  16.615  0.00  0.00    +0.000 C 
ATOM      2  C   UNL     1       4.437   7.175  17.440  0.00  0.00    +0.000 C 
ATOM      3  N   UNL     1       3.238   7.358  18.275  0.00  0.00    +0.000 NA
ATOM      4  C   UNL     1       2.867   6.195  19.121  0.00  0.00    +0.000 C 
ATOM      5  C   UNL     1       3.299   4.867  18.569  0.00  0.00    +0.000 A 
ATOM      6  N   UNL     1       2.991   3.688  19.130  0.00  0.00    +0.000 NA
ATOM      7  N   UNL     1       3.613   2.784  18.348  0.00  0.00    +0.000 N 
ATOM      8  C   UNL     1       3.516   1.369  18.623  0.00  0.00    +0.000 C 
ATOM      9  C   UNL     1       4.302   3.347  17.316  0.00  0.00    +0.000 A 
ATOM     10  C   UNL     1       4.119   4.705  17.432  0.00  0.00    +0.000 A 
ENDROOT
BRANCH   1  11
ATOM     11  C   UNL     1       6.032   5.762  16.142  0.00  0.00    +0.000 C 
BRANCH  11  12
ATOM     12  O   UNL     1       6.207   5.469  14.753  0.00  0.00    +0.000 OA
BRANCH  12  14
ATOM     13  C   UNL     1       6.268   3.830  13.013  0.00  0.00    +0.000 C 
ATOM     14  C   UNL     1       6.402   4.078  14.500  0.00  0.00    +0.000 C 
ENDBRANCH  12  14
ENDBRANCH  11  12
ENDBRANCH   1  11
BRANCH   3  15
ATOM     15  C   UNL     1       2.100   7.993  17.613  0.00  0.00    +0.000 C 
BRANCH  15  16
ATOM     16  C   UNL     1       1.763   9.294  18.282  0.00  0.00    +0.000 A 
ATOM     17  C   UNL     1       0.966   9.481  19.438  0.00  0.00    +0.000 A 
ATOM     18  N   UNL     1       0.842  10.764  19.785  0.00  0.00    +0.000 NA
ATOM     19  N   UNL     1       1.569  11.415  18.863  0.00  0.00    +0.000 N 
ATOM     20  C   UNL     1       1.699  12.852  18.929  0.00  0.00    +0.000 C 
ATOM     21  C   UNL     1       2.138  10.584  17.941  0.00  0.00    +0.000 A 
ENDBRANCH  15  16
ENDBRANCH   3  15
TORSDOF 5
ENDMDL
