MODEL 1
REMARK VINA RESULT:      -7.7      0.000      0.000
REMARK  Name = 
REMARK  9 active torsions:
REMARK  status: ('A' for Active; 'I' for Inactive)
REMARK    1  A    between atoms: C_1  and  C_2
REMARK    2  A    between atoms: C_2  and  C_3
REMARK    3  A    between atoms: C_5  and  C_6
REMARK    4  A    between atoms: N_8  and  C_9
REMARK    5  A    between atoms: C_9  and  C_10
REMARK    6  A    between atoms: C_9  and  C_11
REMARK    7  A    between atoms: C_18  and  C_19
REMARK    8  A    between atoms: N_23  and  C_24
REMARK    9  A    between atoms: C_24  and  C_25
REMARK                            x       y       z     vdW  Elec       q    Type
REMARK                         _______ _______ _______ _____ _____    ______ ____
ROOT
ATOM      1  C   UNL     1       3.784   6.815  17.731  0.00  0.00    +0.000 A 
ATOM      2  C   UNL     1       3.205   8.047  17.458  0.00  0.00    +0.000 A 
ATOM      3  C   UNL     1       2.242   8.594  18.328  0.00  0.00    +0.000 A 
ATOM      4  C   UNL     1       1.901   7.846  19.480  0.00  0.00    +0.000 A 
ATOM      5  C   UNL     1       1.113   7.922  20.673  0.00  0.00    +0.000 A 
ATOM      6  N   UNL     1       1.184   6.807  21.415  0.00  0.00    +0.000 NA
ATOM      7  N   UNL     1       1.987   5.995  20.707  0.00  0.00    +0.000 N 
ATOM      8  C   UNL     1       2.518   6.596  19.596  0.00  0.00    +0.000 A 
ATOM      9  N   UNL     1       3.446   6.049  18.784  0.00  0.00    +0.000 NA
ENDROOT
BRANCH   3  10
ATOM     10  C   UNL     1       1.553   9.849  17.920  0.00  0.00    +0.000 C 
ATOM     11  O   UNL     1       2.191  10.819  17.532  0.00  0.00    +0.000 OA
ATOM     12  N   UNL     1       0.179   9.873  18.078  0.00  0.00    +0.000 N 
ATOM     13  H   UNL     1      -0.330   9.016  18.229  0.00  0.00    +0.000 HD
BRANCH  12  14
ATOM     14  C   UNL     1      -0.615  11.076  17.862  0.00  0.00    +0.000 C 
ATOM     15  C   UNL     1      -1.963  10.722  17.236  0.00  0.00    +0.000 C 
BRANCH  14  16
ATOM     16  C   UNL     1      -0.796  11.846  19.164  0.00  0.00    +0.000 A 
ATOM     17  C   UNL     1      -2.020  11.790  19.854  0.00  0.00    +0.000 A 
ATOM     18  C   UNL     1      -2.190  12.454  21.073  0.00  0.00    +0.000 A 
ATOM     19  C   UNL     1      -1.143  13.191  21.619  0.00  0.00    +0.000 A 
ATOM     20  C   UNL     1       0.072  13.271  20.943  0.00  0.00    +0.000 A 
ATOM     21  C   UNL     1       0.248  12.607  19.728  0.00  0.00    +0.000 A 
ENDBRANCH  14  16
ENDBRANCH  12  14
ENDBRANCH   3  10
BRANCH   5  22
ATOM     22  C   UNL     1       0.297   9.109  21.190  0.00  0.00    +0.000 C 
ATOM     23  C   UNL     1      -0.362   8.972  22.555  0.00  0.00    +0.000 C 
ATOM     24  C   UNL     1       0.817   9.869  22.404  0.00  0.00    +0.000 C 
ENDBRANCH   5  22
BRANCH   1  26
ATOM     25  C   UNL     1       4.735   4.739  16.699  0.00  0.00    +0.000 C 
ATOM     26  C   UNL     1       4.811   6.255  16.776  0.00  0.00    +0.000 C 
ENDBRANCH   1  26
BRANCH   7  27
ATOM     27  C   UNL     1       2.328   4.685  21.234  0.00  0.00    +0.000 C 
BRANCH  27  28
ATOM     28  C   UNL     1       2.221   3.586  20.205  0.00  0.00    +0.000 A 
ATOM     29  C   UNL     1       0.985   3.279  19.614  0.00  0.00    +0.000 A 
ATOM     30  C   UNL     1       0.902   2.327  18.596  0.00  0.00    +0.000 A 
ATOM     31  C   UNL     1       2.048   1.660  18.166  0.00  0.00    +0.000 A 
ATOM     32  C   UNL     1       3.274   1.926  18.772  0.00  0.00    +0.000 A 
ATOM     33  C   UNL     1       3.361   2.878  19.790  0.00  0.00    +0.000 A 
ENDBRANCH  27  28
ENDBRANCH   7  27
TORSDOF 7
ENDMDL
MODEL 2
REMARK VINA RESULT:      -7.1      1.769      2.341
REMARK  Name = 
REMARK  9 active torsions:
REMARK  status: ('A' for Active; 'I' for Inactive)
REMARK    1  A    between atoms: C_1  and  C_2
REMARK    2  A    between atoms: C_2  and  C_3
REMARK    3  A    between atoms: C_5  and  C_6
REMARK    4  A    between atoms: N_8  and  C_9
REMARK    5  A    between atoms: C_9  and  C_10
REMARK    6  A    between atoms: C_9  and  C_11
REMARK    7  A    between atoms: C_18  and  C_19
REMARK    8  A    between atoms: N_23  and  C_24
REMARK    9  A    between atoms: C_24  and  C_25
REMARK                            x       y       z     vdW  Elec       q    Type
REMARK                         _______ _______ _______ _____ _____    ______ ____
ROOT
ATOM      1  C   UNL     1       3.397   7.468  17.801  0.00  0.00    +0.000 A 
ATOM      2  C   UNL     1       2.648   8.627  17.653  0.00  0.00    +0.000 A 
ATOM      3  C   UNL     1       1.671   8.976  18.606  0.00  0.00    +0.000 A 
ATOM      4  C   UNL     1       1.496   8.107  19.710  0.00  0.00    +0.000 A 
ATOM      5  C   UNL     1       0.772   7.990  20.940  0.00  0.00    +0.000 A 
ATOM      6  N   UNL     1       1.030   6.844  21.589  0.00  0.00    +0.000 NA
ATOM      7  N   UNL     1       1.892   6.202  20.782  0.00  0.00    +0.000 N 
ATOM      8  C   UNL     1       2.277   6.947  19.700  0.00  0.00    +0.000 A 
ATOM      9  N   UNL     1       3.221   6.590  18.805  0.00  0.00    +0.000 NA
ENDROOT
BRANCH   3  10
ATOM     10  C   UNL     1       0.802  10.153  18.330  0.00  0.00    +0.000 C 
ATOM     11  O   UNL     1      -0.174  10.055  17.600  0.00  0.00    +0.000 OA
ATOM     12  N   UNL     1       1.208  11.356  18.880  0.00  0.00    +0.000 N 
ATOM     13  H   UNL     1       1.904  11.373  19.609  0.00  0.00    +0.000 HD
BRANCH  12  14
ATOM     14  C   UNL     1       0.545  12.619  18.579  0.00  0.00    +0.000 C 
ATOM     15  C   UNL     1      -0.537  12.915  19.616  0.00  0.00    +0.000 C 
BRANCH  14  16
ATOM     16  C   UNL     1       1.557  13.754  18.497  0.00  0.00    +0.000 A 
ATOM     17  C   UNL     1       1.157  15.078  18.751  0.00  0.00    +0.000 A 
ATOM     18  C   UNL     1       2.081  16.127  18.723  0.00  0.00    +0.000 A 
ATOM     19  C   UNL     1       3.419  15.873  18.434  0.00  0.00    +0.000 A 
ATOM     20  C   UNL     1       3.831  14.570  18.164  0.00  0.00    +0.000 A 
ATOM     21  C   UNL     1       2.914  13.519  18.194  0.00  0.00    +0.000 A 
ENDBRANCH  14  16
ENDBRANCH  12  14
ENDBRANCH   3  10
BRANCH   5  22
ATOM     22  C   UNL     1      -0.162   9.016  21.586  0.00  0.00    +0.000 C 
ATOM     23  C   UNL     1      -0.026   9.251  23.084  0.00  0.00    +0.000 C 
ATOM     24  C   UNL     1       0.445  10.300  22.137  0.00  0.00    +0.000 C 
ENDBRANCH   5  22
BRANCH   1  26
ATOM     25  C   UNL     1       4.796   5.646  16.800  0.00  0.00    +0.000 C 
ATOM     26  C   UNL     1       4.434   7.122  16.759  0.00  0.00    +0.000 C 
ENDBRANCH   1  26
BRANCH   7  27
ATOM     27  C   UNL     1       2.430   4.915  21.189  0.00  0.00    +0.000 C 
BRANCH  27  28
ATOM     28  C   UNL     1       2.296   3.853  20.124  0.00  0.00    +0.000 A 
ATOM     29  C   UNL     1       1.030   3.465  19.659  0.00  0.00    +0.000 A 
ATOM     30  C   UNL     1       0.908   2.552  18.610  0.00  0.00    +0.000 A 
ATOM     31  C   UNL     1       2.048   2.004  18.023  0.00  0.00    +0.000 A 
ATOM     32  C   UNL     1       3.310   2.351  18.502  0.00  0.00    +0.000 A 
ATOM     33  C   UNL     1       3.435   3.264  19.551  0.00  0.00    +0.000 A 
ENDBRANCH  27  28
ENDBRANCH   7  27
TORSDOF 7
ENDMDL
MODEL 3
REMARK VINA RESULT:      -7.1      1.806      2.593
REMARK  Name = 
REMARK  9 active torsions:
REMARK  status: ('A' for Active; 'I' for Inactive)
REMARK    1  A    between atoms: C_1  and  C_2
REMARK    2  A    between atoms: C_2  and  C_3
REMARK    3  A    between atoms: C_5  and  C_6
REMARK    4  A    between atoms: N_8  and  C_9
REMARK    5  A    between atoms: C_9  and  C_10
REMARK    6  A    between atoms: C_9  and  C_11
REMARK    7  A    between atoms: C_18  and  C_19
REMARK    8  A    between atoms: N_23  and  C_24
REMARK    9  A    between atoms: C_24  and  C_25
REMARK                            x       y       z     vdW  Elec       q    Type
REMARK                         _______ _______ _______ _____ _____    ______ ____
ROOT
ATOM      1  C   UNL     1       3.360   7.503  17.776  0.00  0.00    +0.000 A 
ATOM      2  C   UNL     1       2.620   8.670  17.643  0.00  0.00    +0.000 A 
ATOM      3  C   UNL     1       1.653   9.019  18.607  0.00  0.00    +0.000 A 
ATOM      4  C   UNL     1       1.478   8.142  19.704  0.00  0.00    +0.000 A 
ATOM      5  C   UNL     1       0.762   8.021  20.938  0.00  0.00    +0.000 A 
ATOM      6  N   UNL     1       1.014   6.867  21.574  0.00  0.00    +0.000 NA
ATOM      7  N   UNL     1       1.865   6.224  20.756  0.00  0.00    +0.000 N 
ATOM      8  C   UNL     1       2.248   6.975  19.678  0.00  0.00    +0.000 A 
ATOM      9  N   UNL     1       3.183   6.618  18.773  0.00  0.00    +0.000 NA
ENDROOT
BRANCH   3  10
ATOM     10  C   UNL     1       0.793  10.206  18.347  0.00  0.00    +0.000 C 
ATOM     11  O   UNL     1      -0.227  10.109  17.678  0.00  0.00    +0.000 OA
ATOM     12  N   UNL     1       1.253  11.416  18.837  0.00  0.00    +0.000 N 
ATOM     13  H   UNL     1       1.991  11.437  19.524  0.00  0.00    +0.000 HD
BRANCH  12  14
ATOM     14  C   UNL     1       0.599  12.683  18.539  0.00  0.00    +0.000 C 
ATOM     15  C   UNL     1      -0.520  12.957  19.542  0.00  0.00    +0.000 C 
BRANCH  14  16
ATOM     16  C   UNL     1       1.611  13.821  18.517  0.00  0.00    +0.000 A 
ATOM     17  C   UNL     1       2.959  13.563  18.210  0.00  0.00    +0.000 A 
ATOM     18  C   UNL     1       3.894  14.601  18.143  0.00  0.00    +0.000 A 
ATOM     19  C   UNL     1       3.500  15.914  18.388  0.00  0.00    +0.000 A 
ATOM     20  C   UNL     1       2.172  16.187  18.709  0.00  0.00    +0.000 A 
ATOM     21  C   UNL     1       1.235  15.155  18.774  0.00  0.00    +0.000 A 
ENDBRANCH  14  16
ENDBRANCH  12  14
ENDBRANCH   3  10
BRANCH   5  22
ATOM     22  C   UNL     1      -0.158   9.049  21.600  0.00  0.00    +0.000 C 
ATOM     23  C   UNL     1       0.041   9.324  23.084  0.00  0.00    +0.000 C 
ATOM     24  C   UNL     1       0.452  10.355  22.092  0.00  0.00    +0.000 C 
ENDBRANCH   5  22
BRANCH   1  26
ATOM     25  C   UNL     1       4.750   5.682  16.761  0.00  0.00    +0.000 C 
ATOM     26  C   UNL     1       4.386   7.157  16.724  0.00  0.00    +0.000 C 
ENDBRANCH   1  26
BRANCH   7  27
ATOM     27  C   UNL     1       2.394   4.929  21.147  0.00  0.00    +0.000 C 
BRANCH  27  28
ATOM     28  C   UNL     1       2.245   3.878  20.073  0.00  0.00    +0.000 A 
ATOM     29  C   UNL     1       3.378   3.285  19.495  0.00  0.00    +0.000 A 
ATOM     30  C   UNL     1       3.241   2.248  18.569  0.00  0.00    +0.000 A 
ATOM     31  C   UNL     1       1.973   1.802  18.200  0.00  0.00    +0.000 A 
ATOM     32  C   UNL     1       0.840   2.410  18.737  0.00  0.00    +0.000 A 
ATOM     33  C   UNL     1       0.973   3.447  19.663  0.00  0.00    +0.000 A 
ENDBRANCH  27  28
ENDBRANCH   7  27
TORSDOF 7
ENDMDL
MODEL 4
REMARK VINA RESULT:      -7.1      4.099      9.700
REMARK  Name = 
REMARK  9 active torsions:
REMARK  status: ('A' for Active; 'I' for Inactive)
REMARK    1  A    between atoms: C_1  and  C_2
REMARK    2  A    between atoms: C_2  and  C_3
REMARK    3  A    between atoms: C_5  and  C_6
REMARK    4  A    between atoms: N_8  and  C_9
REMARK    5  A    between atoms: C_9  and  C_10
REMARK    6  A    between atoms: C_9  and  C_11
REMARK    7  A    between atoms: C_18  and  C_19
REMARK    8  A    between atoms: N_23  and  C_24
REMARK    9  A    between atoms: C_24  and  C_25
REMARK                            x       y       z     vdW  Elec       q    Type
REMARK                         _______ _______ _______ _____ _____    ______ ____
ROOT
ATOM      1  C   UNL     1      -4.007  11.238  17.224  0.00  0.00    +0.000 A 
ATOM      2  C   UNL     1      -2.785  11.129  17.873  0.00  0.00    +0.000 A 
ATOM      3  C   UNL     1      -2.584  11.733  19.129  0.00  0.00    +0.000 A 
ATOM      4  C   UNL     1      -3.672  12.441  19.696  0.00  0.00    +0.000 A 
ATOM      5  C   UNL     1      -4.058  13.137  20.886  0.00  0.00    +0.000 A 
ATOM      6  N   UNL     1      -5.295  13.649  20.810  0.00  0.00    +0.000 NA
ATOM      7  N   UNL     1      -5.709  13.319  19.575  0.00  0.00    +0.000 N 
ATOM      8  C   UNL     1      -4.822  12.520  18.904  0.00  0.00    +0.000 A 
ATOM      9  N   UNL     1      -5.044  11.948  17.703  0.00  0.00    +0.000 NA
ENDROOT
BRANCH   3  10
ATOM     10  C   UNL     1      -1.217  11.704  19.718  0.00  0.00    +0.000 C 
ATOM     11  O   UNL     1      -0.489  12.686  19.667  0.00  0.00    +0.000 OA
ATOM     12  N   UNL     1      -0.803  10.493  20.246  0.00  0.00    +0.000 N 
ATOM     13  H   UNL     1      -1.474   9.764  20.431  0.00  0.00    +0.000 HD
BRANCH  12  14
ATOM     14  C   UNL     1       0.556  10.268  20.723  0.00  0.00    +0.000 C 
ATOM     15  C   UNL     1       0.544   9.840  22.189  0.00  0.00    +0.000 C 
BRANCH  14  16
ATOM     16  C   UNL     1       1.271   9.242  19.853  0.00  0.00    +0.000 A 
ATOM     17  C   UNL     1       1.713   8.029  20.410  0.00  0.00    +0.000 A 
ATOM     18  C   UNL     1       2.332   7.057  19.618  0.00  0.00    +0.000 A 
ATOM     19  C   UNL     1       2.527   7.283  18.258  0.00  0.00    +0.000 A 
ATOM     20  C   UNL     1       2.109   8.486  17.692  0.00  0.00    +0.000 A 
ATOM     21  C   UNL     1       1.488   9.458  18.477  0.00  0.00    +0.000 A 
ENDBRANCH  14  16
ENDBRANCH  12  14
ENDBRANCH   3  10
BRANCH   5  22
ATOM     22  C   UNL     1      -3.269  13.287  22.189  0.00  0.00    +0.000 C 
ATOM     23  C   UNL     1      -3.935  12.821  23.475  0.00  0.00    +0.000 C 
ATOM     24  C   UNL     1      -2.813  12.024  22.907  0.00  0.00    +0.000 C 
ENDBRANCH   5  22
BRANCH   1  26
ATOM     25  C   UNL     1      -2.855  10.170  15.271  0.00  0.00    +0.000 C 
ATOM     26  C   UNL     1      -4.188  10.580  15.877  0.00  0.00    +0.000 C 
ENDBRANCH   1  26
BRANCH   7  27
ATOM     27  C   UNL     1      -7.048  13.684  19.147  0.00  0.00    +0.000 C 
BRANCH  27  28
ATOM     28  C   UNL     1      -7.071  14.884  18.230  0.00  0.00    +0.000 A 
ATOM     29  C   UNL     1      -6.788  16.165  18.726  0.00  0.00    +0.000 A 
ATOM     30  C   UNL     1      -6.718  17.261  17.863  0.00  0.00    +0.000 A 
ATOM     31  C   UNL     1      -6.944  17.092  16.498  0.00  0.00    +0.000 A 
ATOM     32  C   UNL     1      -7.265  15.832  15.999  0.00  0.00    +0.000 A 
ATOM     33  C   UNL     1      -7.336  14.734  16.859  0.00  0.00    +0.000 A 
ENDBRANCH  27  28
ENDBRANCH   7  27
TORSDOF 7
ENDMDL
MODEL 5
REMARK VINA RESULT:      -7.0      4.129      9.700
REMARK  Name = 
REMARK  9 active torsions:
REMARK  status: ('A' for Active; 'I' for Inactive)
REMARK    1  A    between atoms: C_1  and  C_2
REMARK    2  A    between atoms: C_2  and  C_3
REMARK    3  A    between atoms: C_5  and  C_6
REMARK    4  A    between atoms: N_8  and  C_9
REMARK    5  A    between atoms: C_9  and  C_10
REMARK    6  A    between atoms: C_9  and  C_11
REMARK    7  A    between atoms: C_18  and  C_19
REMARK    8  A    between atoms: N_23  and  C_24
REMARK    9  A    between atoms: C_24  and  C_25
REMARK                            x       y       z     vdW  Elec       q    Type
REMARK                         _______ _______ _______ _____ _____    ______ ____
ROOT
ATOM      1  C   UNL     1      -3.803  11.383  16.941  0.00  0.00    +0.000 A 
ATOM      2  C   UNL     1      -2.647  11.216  17.693  0.00  0.00    +0.000 A 
ATOM      3  C   UNL     1      -2.598  11.641  19.034  0.00  0.00    +0.000 A 
ATOM      4  C   UNL     1      -3.765  12.233  19.577  0.00  0.00    +0.000 A 
ATOM      5  C   UNL     1      -4.296  12.741  20.805  0.00  0.00    +0.000 A 
ATOM      6  N   UNL     1      -5.540  13.226  20.672  0.00  0.00    +0.000 NA
ATOM      7  N   UNL     1      -5.814  13.064  19.367  0.00  0.00    +0.000 N 
ATOM      8  C   UNL     1      -4.833  12.392  18.688  0.00  0.00    +0.000 A 
ATOM      9  N   UNL     1      -4.910  11.991  17.402  0.00  0.00    +0.000 NA
ENDROOT
BRANCH   3  10
ATOM     10  C   UNL     1      -1.296  11.565  19.753  0.00  0.00    +0.000 C 
ATOM     11  O   UNL     1      -0.583  12.552  19.868  0.00  0.00    +0.000 OA
ATOM     12  N   UNL     1      -0.918  10.313  20.205  0.00  0.00    +0.000 N 
ATOM     13  H   UNL     1      -1.593   9.565  20.253  0.00  0.00    +0.000 HD
BRANCH  12  14
ATOM     14  C   UNL     1       0.389  10.053  20.794  0.00  0.00    +0.000 C 
ATOM     15  C   UNL     1       0.238   9.490  22.206  0.00  0.00    +0.000 C 
BRANCH  14  16
ATOM     16  C   UNL     1       1.203   9.116  19.910  0.00  0.00    +0.000 A 
ATOM     17  C   UNL     1       1.695   7.905  20.428  0.00  0.00    +0.000 A 
ATOM     18  C   UNL     1       2.407   7.012  19.620  0.00  0.00    +0.000 A 
ATOM     19  C   UNL     1       2.645   7.317  18.283  0.00  0.00    +0.000 A 
ATOM     20  C   UNL     1       2.178   8.519  17.756  0.00  0.00    +0.000 A 
ATOM     21  C   UNL     1       1.465   9.412  18.557  0.00  0.00    +0.000 A 
ENDBRANCH  14  16
ENDBRANCH  12  14
ENDBRANCH   3  10
BRANCH   5  22
ATOM     22  C   UNL     1      -3.647  12.726  22.191  0.00  0.00    +0.000 C 
ATOM     23  C   UNL     1      -3.676  14.016  22.999  0.00  0.00    +0.000 C 
ATOM     24  C   UNL     1      -4.546  12.881  23.411  0.00  0.00    +0.000 C 
ENDBRANCH   5  22
BRANCH   1  26
ATOM     25  C   UNL     1      -2.885   9.742  15.285  0.00  0.00    +0.000 C 
ATOM     26  C   UNL     1      -3.821  10.919  15.504  0.00  0.00    +0.000 C 
ENDBRANCH   1  26
BRANCH   7  27
ATOM     27  C   UNL     1      -7.118  13.450  18.856  0.00  0.00    +0.000 C 
BRANCH  27  28
ATOM     28  C   UNL     1      -7.075  14.695  18.002  0.00  0.00    +0.000 A 
ATOM     29  C   UNL     1      -7.379  14.631  16.633  0.00  0.00    +0.000 A 
ATOM     30  C   UNL     1      -7.431  15.795  15.863  0.00  0.00    +0.000 A 
ATOM     31  C   UNL     1      -7.166  17.033  16.447  0.00  0.00    +0.000 A 
ATOM     32  C   UNL     1      -6.825  17.105  17.796  0.00  0.00    +0.000 A 
ATOM     33  C   UNL     1      -6.773  15.944  18.569  0.00  0.00    +0.000 A 
ENDBRANCH  27  28
ENDBRANCH   7  27
TORSDOF 7
ENDMDL
MODEL 6
REMARK VINA RESULT:      -6.9      2.972      5.936
REMARK  Name = 
REMARK  9 active torsions:
REMARK  status: ('A' for Active; 'I' for Inactive)
REMARK    1  A    between atoms: C_1  and  C_2
REMARK    2  A    between atoms: C_2  and  C_3
REMARK    3  A    between atoms: C_5  and  C_6
REMARK    4  A    between atoms: N_8  and  C_9
REMARK    5  A    between atoms: C_9  and  C_10
REMARK    6  A    between atoms: C_9  and  C_11
REMARK    7  A    between atoms: C_18  and  C_19
REMARK    8  A    between atoms: N_23  and  C_24
REMARK    9  A    between atoms: C_24  and  C_25
REMARK                            x       y       z     vdW  Elec       q    Type
REMARK                         _______ _______ _______ _____ _____    ______ ____
ROOT
ATOM      1  C   UNL     1      -2.449  10.552  17.562  0.00  0.00    +0.000 A 
ATOM      2  C   UNL     1      -3.146  11.358  18.452  0.00  0.00    +0.000 A 
ATOM      3  C   UNL     1      -2.467  12.056  19.469  0.00  0.00    +0.000 A 
ATOM      4  C   UNL     1      -1.061  11.906  19.540  0.00  0.00    +0.000 A 
ATOM      5  C   UNL     1       0.083  12.391  20.249  0.00  0.00    +0.000 A 
ATOM      6  N   UNL     1       1.226  11.810  19.853  0.00  0.00    +0.000 NA
ATOM      7  N   UNL     1       0.836  10.934  18.912  0.00  0.00    +0.000 N 
ATOM      8  C   UNL     1      -0.500  11.016  18.619  0.00  0.00    +0.000 A 
ATOM      9  N   UNL     1      -1.123  10.339  17.632  0.00  0.00    +0.000 NA
ENDROOT
BRANCH   3  10
ATOM     10  C   UNL     1      -3.274  12.796  20.478  0.00  0.00    +0.000 C 
ATOM     11  O   UNL     1      -4.073  13.657  20.136  0.00  0.00    +0.000 OA
ATOM     12  N   UNL     1      -3.011  12.506  21.806  0.00  0.00    +0.000 N 
ATOM     13  H   UNL     1      -2.485  11.682  22.051  0.00  0.00    +0.000 HD
BRANCH  12  14
ATOM     14  C   UNL     1      -3.612  13.250  22.906  0.00  0.00    +0.000 C 
ATOM     15  C   UNL     1      -3.803  12.345  24.122  0.00  0.00    +0.000 C 
BRANCH  14  16
ATOM     16  C   UNL     1      -2.773  14.473  23.253  0.00  0.00    +0.000 A 
ATOM     17  C   UNL     1      -3.039  15.710  22.641  0.00  0.00    +0.000 A 
ATOM     18  C   UNL     1      -2.307  16.853  22.979  0.00  0.00    +0.000 A 
ATOM     19  C   UNL     1      -1.293  16.778  23.929  0.00  0.00    +0.000 A 
ATOM     20  C   UNL     1      -1.004  15.557  24.536  0.00  0.00    +0.000 A 
ATOM     21  C   UNL     1      -1.733  14.414  24.204  0.00  0.00    +0.000 A 
ENDBRANCH  14  16
ENDBRANCH  12  14
ENDBRANCH   3  10
BRANCH   5  22
ATOM     22  C   UNL     1       0.139  13.494  21.309  0.00  0.00    +0.000 C 
ATOM     23  C   UNL     1       1.384  14.368  21.355  0.00  0.00    +0.000 C 
ATOM     24  C   UNL     1       0.110  14.944  20.845  0.00  0.00    +0.000 C 
ENDBRANCH   5  22
BRANCH   1  26
ATOM     25  C   UNL     1      -3.093  10.517  15.141  0.00  0.00    +0.000 C 
ATOM     26  C   UNL     1      -3.208   9.815  16.484  0.00  0.00    +0.000 C 
ENDBRANCH   1  26
BRANCH   7  27
ATOM     27  C   UNL     1       1.832  10.136  18.219  0.00  0.00    +0.000 C 
BRANCH  27  28
ATOM     28  C   UNL     1       1.940   8.728  18.752  0.00  0.00    +0.000 A 
ATOM     29  C   UNL     1       2.511   7.712  17.970  0.00  0.00    +0.000 A 
ATOM     30  C   UNL     1       2.697   6.432  18.495  0.00  0.00    +0.000 A 
ATOM     31  C   UNL     1       2.302   6.147  19.801  0.00  0.00    +0.000 A 
ATOM     32  C   UNL     1       1.698   7.136  20.575  0.00  0.00    +0.000 A 
ATOM     33  C   UNL     1       1.510   8.417  20.052  0.00  0.00    +0.000 A 
ENDBRANCH  27  28
ENDBRANCH   7  27
TORSDOF 7
ENDMDL
MODEL 7
REMARK VINA RESULT:      -6.9      3.737      7.061
REMARK  Name = 
REMARK  9 active torsions:
REMARK  status: ('A' for Active; 'I' for Inactive)
REMARK    1  A    between atoms: C_1  and  C_2
REMARK    2  A    between atoms: C_2  and  C_3
REMARK    3  A    between atoms: C_5  and  C_6
REMARK    4  A    between atoms: N_8  and  C_9
REMARK    5  A    between atoms: C_9  and  C_10
REMARK    6  A    between atoms: C_9  and  C_11
REMARK    7  A    between atoms: C_18  and  C_19
REMARK    8  A    between atoms: N_23  and  C_24
REMARK    9  A    between atoms: C_24  and  C_25
REMARK                            x       y       z     vdW  Elec       q    Type
REMARK                         _______ _______ _______ _____ _____    ______ ____
ROOT
ATOM      1  C   UNL     1      -3.354  11.320  18.037  0.00  0.00    +0.000 A 
ATOM      2  C   UNL     1      -4.158  11.933  18.989  0.00  0.00    +0.000 A 
ATOM      3  C   UNL     1      -3.583  12.643  20.061  0.00  0.00    +0.000 A 
ATOM      4  C   UNL     1      -2.170  12.708  20.121  0.00  0.00    +0.000 A 
ATOM      5  C   UNL     1      -1.107  13.305  20.869  0.00  0.00    +0.000 A 
ATOM      6  N   UNL     1       0.108  12.944  20.427  0.00  0.00    +0.000 NA
ATOM      7  N   UNL     1      -0.153  12.098  19.417  0.00  0.00    +0.000 N 
ATOM      8  C   UNL     1      -1.488  11.994  19.130  0.00  0.00    +0.000 A 
ATOM      9  N   UNL     1      -2.010  11.311  18.090  0.00  0.00    +0.000 NA
ENDROOT
BRANCH   3  10
ATOM     10  C   UNL     1      -4.483  13.163  21.127  0.00  0.00    +0.000 C 
ATOM     11  O   UNL     1      -5.324  14.015  20.878  0.00  0.00    +0.000 OA
ATOM     12  N   UNL     1      -4.259  12.685  22.406  0.00  0.00    +0.000 N 
ATOM     13  H   UNL     1      -3.688  11.866  22.549  0.00  0.00    +0.000 HD
BRANCH  12  14
ATOM     14  C   UNL     1      -4.958  13.207  23.573  0.00  0.00    +0.000 C 
ATOM     15  C   UNL     1      -5.074  12.133  24.653  0.00  0.00    +0.000 C 
BRANCH  14  16
ATOM     16  C   UNL     1      -4.263  14.453  24.107  0.00  0.00    +0.000 A 
ATOM     17  C   UNL     1      -4.776  15.729  23.815  0.00  0.00    +0.000 A 
ATOM     18  C   UNL     1      -4.177  16.882  24.331  0.00  0.00    +0.000 A 
ATOM     19  C   UNL     1      -3.049  16.781  25.142  0.00  0.00    +0.000 A 
ATOM     20  C   UNL     1      -2.517  15.526  25.429  0.00  0.00    +0.000 A 
ATOM     21  C   UNL     1      -3.113  14.372  24.919  0.00  0.00    +0.000 A 
ENDBRANCH  14  16
ENDBRANCH  12  14
ENDBRANCH   3  10
BRANCH   5  22
ATOM     22  C   UNL     1      -1.211  14.313  22.017  0.00  0.00    +0.000 C 
ATOM     23  C   UNL     1      -0.229  15.476  22.027  0.00  0.00    +0.000 C 
ATOM     24  C   UNL     1      -1.657  15.733  21.693  0.00  0.00    +0.000 C 
ENDBRANCH   5  22
BRANCH   1  26
ATOM     25  C   UNL     1      -3.101  10.515  15.677  0.00  0.00    +0.000 C 
ATOM     26  C   UNL     1      -4.002  10.565  16.901  0.00  0.00    +0.000 C 
ENDBRANCH   1  26
BRANCH   7  27
ATOM     27  C   UNL     1       0.946  11.524  18.661  0.00  0.00    +0.000 C 
BRANCH  27  28
ATOM     28  C   UNL     1       1.258  10.100  19.054  0.00  0.00    +0.000 A 
ATOM     29  C   UNL     1       1.892   9.234  18.150  0.00  0.00    +0.000 A 
ATOM     30  C   UNL     1       2.264   7.946  18.543  0.00  0.00    +0.000 A 
ATOM     31  C   UNL     1       1.994   7.504  19.837  0.00  0.00    +0.000 A 
ATOM     32  C   UNL     1       1.329   8.340  20.731  0.00  0.00    +0.000 A 
ATOM     33  C   UNL     1       0.956   9.628  20.342  0.00  0.00    +0.000 A 
ENDBRANCH  27  28
ENDBRANCH   7  27
TORSDOF 7
ENDMDL
MODEL 8
REMARK VINA RESULT:      -6.7      2.983      8.607
REMARK  Name = 
REMARK  9 active torsions:
REMARK  status: ('A' for Active; 'I' for Inactive)
REMARK    1  A    between atoms: C_1  and  C_2
REMARK    2  A    between atoms: C_2  and  C_3
REMARK    3  A    between atoms: C_5  and  C_6
REMARK    4  A    between atoms: N_8  and  C_9
REMARK    5  A    between atoms: C_9  and  C_10
REMARK    6  A    between atoms: C_9  and  C_11
REMARK    7  A    between atoms: C_18  and  C_19
REMARK    8  A    between atoms: N_23  and  C_24
REMARK    9  A    between atoms: C_24  and  C_25
REMARK                            x       y       z     vdW  Elec       q    Type
REMARK                         _______ _______ _______ _____ _____    ______ ____
ROOT
ATOM      1  C   UNL     1      -2.584  10.396  17.024  0.00  0.00    +0.000 A 
ATOM      2  C   UNL     1      -1.364  10.036  17.581  0.00  0.00    +0.000 A 
ATOM      3  C   UNL     1      -0.973  10.541  18.836  0.00  0.00    +0.000 A 
ATOM      4  C   UNL     1      -1.870  11.415  19.497  0.00  0.00    +0.000 A 
ATOM      5  C   UNL     1      -2.041  12.122  20.730  0.00  0.00    +0.000 A 
ATOM      6  N   UNL     1      -3.163  12.858  20.757  0.00  0.00    +0.000 NA
ATOM      7  N   UNL     1      -3.710  12.660  19.546  0.00  0.00    +0.000 N 
ATOM      8  C   UNL     1      -3.034  11.738  18.792  0.00  0.00    +0.000 A 
ATOM      9  N   UNL     1      -3.436  11.266  17.594  0.00  0.00    +0.000 NA
ENDROOT
BRANCH   3  10
ATOM     10  C   UNL     1       0.399  10.235  19.326  0.00  0.00    +0.000 C 
ATOM     11  O   UNL     1       1.344  10.957  19.039  0.00  0.00    +0.000 OA
ATOM     12  N   UNL     1       0.545   9.062  20.046  0.00  0.00    +0.000 N 
ATOM     13  H   UNL     1      -0.265   8.587  20.412  0.00  0.00    +0.000 HD
BRANCH  12  14
ATOM     14  C   UNL     1       1.846   8.555  20.464  0.00  0.00    +0.000 C 
ATOM     15  C   UNL     1       1.949   8.537  21.988  0.00  0.00    +0.000 C 
BRANCH  14  16
ATOM     16  C   UNL     1       2.101   7.173  19.877  0.00  0.00    +0.000 A 
ATOM     17  C   UNL     1       1.761   6.021  20.608  0.00  0.00    +0.000 A 
ATOM     18  C   UNL     1       1.947   4.744  20.067  0.00  0.00    +0.000 A 
ATOM     19  C   UNL     1       2.483   4.597  18.791  0.00  0.00    +0.000 A 
ATOM     20  C   UNL     1       2.841   5.726  18.058  0.00  0.00    +0.000 A 
ATOM     21  C   UNL     1       2.654   7.002  18.591  0.00  0.00    +0.000 A 
ENDBRANCH  14  16
ENDBRANCH  12  14
ENDBRANCH   3  10
BRANCH   5  22
ATOM     22  C   UNL     1      -1.156  12.070  21.978  0.00  0.00    +0.000 C 
ATOM     23  C   UNL     1      -1.845  11.934  23.328  0.00  0.00    +0.000 C 
ATOM     24  C   UNL     1      -1.101  10.772  22.772  0.00  0.00    +0.000 C 
ENDBRANCH   5  22
BRANCH   1  26
ATOM     25  C   UNL     1      -4.044  10.683  15.008  0.00  0.00    +0.000 C 
ATOM     26  C   UNL     1      -2.971   9.838  15.675  0.00  0.00    +0.000 C 
ENDBRANCH   1  26
BRANCH   7  27
ATOM     27  C   UNL     1      -4.981  13.283  19.223  0.00  0.00    +0.000 C 
BRANCH  27  28
ATOM     28  C   UNL     1      -6.051  13.019  20.256  0.00  0.00    +0.000 A 
ATOM     29  C   UNL     1      -6.677  11.765  20.328  0.00  0.00    +0.000 A 
ATOM     30  C   UNL     1      -7.599  11.490  21.340  0.00  0.00    +0.000 A 
ATOM     31  C   UNL     1      -7.916  12.466  22.282  0.00  0.00    +0.000 A 
ATOM     32  C   UNL     1      -7.331  13.728  22.198  0.00  0.00    +0.000 A 
ATOM     33  C   UNL     1      -6.409  14.007  21.187  0.00  0.00    +0.000 A 
ENDBRANCH  27  28
ENDBRANCH   7  27
TORSDOF 7
ENDMDL
MODEL 9
REMARK VINA RESULT:      -6.7      3.111      6.239
REMARK  Name = 
REMARK  9 active torsions:
REMARK  status: ('A' for Active; 'I' for Inactive)
REMARK    1  A    between atoms: C_1  and  C_2
REMARK    2  A    between atoms: C_2  and  C_3
REMARK    3  A    between atoms: C_5  and  C_6
REMARK    4  A    between atoms: N_8  and  C_9
REMARK    5  A    between atoms: C_9  and  C_10
REMARK    6  A    between atoms: C_9  and  C_11
REMARK    7  A    between atoms: C_18  and  C_19
REMARK    8  A    between atoms: N_23  and  C_24
REMARK    9  A    between atoms: C_24  and  C_25
REMARK                            x       y       z     vdW  Elec       q    Type
REMARK                         _______ _______ _______ _____ _____    ______ ____
ROOT
ATOM      1  C   UNL     1      -2.552  10.750  17.892  0.00  0.00    +0.000 A 
ATOM      2  C   UNL     1      -3.061  11.619  18.848  0.00  0.00    +0.000 A 
ATOM      3  C   UNL     1      -2.201  12.270  19.754  0.00  0.00    +0.000 A 
ATOM      4  C   UNL     1      -0.814  12.007  19.644  0.00  0.00    +0.000 A 
ATOM      5  C   UNL     1       0.448  12.405  20.188  0.00  0.00    +0.000 A 
ATOM      6  N   UNL     1       1.480  11.731  19.658  0.00  0.00    +0.000 NA
ATOM      7  N   UNL     1       0.901  10.880  18.794  0.00  0.00    +0.000 N 
ATOM      8  C   UNL     1      -0.450  11.066  18.676  0.00  0.00    +0.000 A 
ATOM      9  N   UNL     1      -1.249  10.432  17.792  0.00  0.00    +0.000 NA
ENDROOT
BRANCH   3  10
ATOM     10  C   UNL     1      -2.807  13.082  20.845  0.00  0.00    +0.000 C 
ATOM     11  O   UNL     1      -2.438  12.953  22.004  0.00  0.00    +0.000 OA
ATOM     12  N   UNL     1      -3.847  13.919  20.481  0.00  0.00    +0.000 N 
ATOM     13  H   UNL     1      -4.009  14.134  19.509  0.00  0.00    +0.000 HD
BRANCH  12  14
ATOM     14  C   UNL     1      -4.634  14.664  21.455  0.00  0.00    +0.000 C 
ATOM     15  C   UNL     1      -5.117  15.984  20.857  0.00  0.00    +0.000 C 
BRANCH  14  16
ATOM     16  C   UNL     1      -5.802  13.826  21.960  0.00  0.00    +0.000 A 
ATOM     17  C   UNL     1      -6.456  12.931  21.095  0.00  0.00    +0.000 A 
ATOM     18  C   UNL     1      -7.502  12.123  21.552  0.00  0.00    +0.000 A 
ATOM     19  C   UNL     1      -7.916  12.199  22.879  0.00  0.00    +0.000 A 
ATOM     20  C   UNL     1      -7.290  13.091  23.747  0.00  0.00    +0.000 A 
ATOM     21  C   UNL     1      -6.244  13.898  23.297  0.00  0.00    +0.000 A 
ENDBRANCH  14  16
ENDBRANCH  12  14
ENDBRANCH   3  10
BRANCH   5  22
ATOM     22  C   UNL     1       0.730  13.510  21.209  0.00  0.00    +0.000 C 
ATOM     23  C   UNL     1       1.943  14.398  20.974  0.00  0.00    +0.000 C 
ATOM     24  C   UNL     1       0.580  14.959  20.765  0.00  0.00    +0.000 C 
ENDBRANCH   5  22
BRANCH   1  26
ATOM     25  C   UNL     1      -2.913   9.966  15.540  0.00  0.00    +0.000 C 
ATOM     26  C   UNL     1      -3.502  10.067  16.938  0.00  0.00    +0.000 C 
ENDBRANCH   1  26
BRANCH   7  27
ATOM     27  C   UNL     1       1.731   9.998  17.992  0.00  0.00    +0.000 C 
BRANCH  27  28
ATOM     28  C   UNL     1       1.925   8.636  18.616  0.00  0.00    +0.000 A 
ATOM     29  C   UNL     1       2.547   7.604  17.895  0.00  0.00    +0.000 A 
ATOM     30  C   UNL     1       2.810   6.374  18.502  0.00  0.00    +0.000 A 
ATOM     31  C   UNL     1       2.442   6.155  19.828  0.00  0.00    +0.000 A 
ATOM     32  C   UNL     1       1.788   7.157  20.542  0.00  0.00    +0.000 A 
ATOM     33  C   UNL     1       1.523   8.389  19.938  0.00  0.00    +0.000 A 
ENDBRANCH  27  28
ENDBRANCH   7  27
TORSDOF 7
ENDMDL
