MODEL 1
REMARK VINA RESULT:      -9.1      0.000      0.000
REMARK  Name = 
REMARK  5 active torsions:
REMARK  status: ('A' for Active; 'I' for Inactive)
REMARK    1  A    between atoms: C_1  and  N_2
REMARK    2  A    between atoms: C_8  and  C_9
REMARK    3  A    between atoms: N_21  and  C_22
REMARK    4  A    between atoms: C_22  and  C_23
REMARK    5  A    between atoms: C_22  and  C_24
REMARK                            x       y       z     vdW  Elec       q    Type
REMARK                         _______ _______ _______ _____ _____    ______ ____
ROOT
ATOM      1  C   UNL     1       0.779  10.697  19.689  0.00  0.00    +0.000 C 
ATOM      2  O   UNL     1       1.256  11.727  19.206  0.00  0.00    +0.000 OA
ATOM      3  N   UNL     1      -0.297  10.773  20.586  0.00  0.00    +0.000 N 
ATOM      4  C   UNL     1      -1.038  12.020  20.513  0.00  0.00    +0.000 C 
ATOM      5  C   UNL     1      -2.287  11.988  21.365  0.00  0.00    +0.000 C 
ATOM      6  C   UNL     1      -1.893  11.931  22.857  0.00  0.00    +0.000 C 
ATOM      7  C   UNL     1      -0.872  10.753  23.054  0.00  0.00    +0.000 C 
ATOM      8  C   UNL     1      -0.534   9.932  21.766  0.00  0.00    +0.000 C 
ATOM      9  C   UNL     1      -1.243  13.293  23.323  0.00  0.00    +0.000 C 
ATOM     10  C   UNL     1      -2.281  14.359  23.256  0.00  0.00    +0.000 A 
ATOM     11  C   UNL     1      -2.243  15.713  22.904  0.00  0.00    +0.000 A 
ATOM     12  N   UNL     1      -3.453  16.272  22.953  0.00  0.00    +0.000 NA
ATOM     13  N   UNL     1      -4.283  15.262  23.324  0.00  0.00    +0.000 N 
ATOM     14  C   UNL     1      -3.614  14.076  23.498  0.00  0.00    +0.000 A 
ATOM     15  C   UNL     1      -4.097  12.756  23.825  0.00  0.00    +0.000 C 
ATOM     16  O   UNL     1      -5.227  12.491  24.218  0.00  0.00    +0.000 OA
ATOM     17  N   UNL     1      -3.145  11.743  23.660  0.00  0.00    +0.000 N 
ATOM     18  H   UNL     1      -3.519  10.813  23.815  0.00  0.00    +0.000 HD
ENDROOT
BRANCH   1  26
ATOM     19  C   UNL     1       3.947   2.444  19.529  0.00  0.00    +0.000 C 
ATOM     20  N   UNL     1       3.981   3.564  18.606  0.00  0.00    +0.000 N 
ATOM     21  C   UNL     1       3.385   4.760  19.048  0.00  0.00    +0.000 A 
ATOM     22  C   UNL     1       3.339   5.825  18.145  0.00  0.00    +0.000 A 
ATOM     23  C   UNL     1       2.693   7.025  18.477  0.00  0.00    +0.000 A 
ATOM     24  C   UNL     1       2.613   8.115  17.586  0.00  0.00    +0.000 A 
ATOM     25  C   UNL     1       1.948   9.299  17.928  0.00  0.00    +0.000 A 
ATOM     26  C   UNL     1       1.335   9.413  19.177  0.00  0.00    +0.000 A 
ATOM     27  C   UNL     1       1.446   8.340  20.087  0.00  0.00    +0.000 A 
ATOM     28  C   UNL     1       2.112   7.139  19.744  0.00  0.00    +0.000 A 
ATOM     29  C   UNL     1       2.240   6.036  20.599  0.00  0.00    +0.000 A 
ATOM     30  N   UNL     1       2.840   4.860  20.275  0.00  0.00    +0.000 NA
ATOM     31  H   UNL     1       4.920   3.759  18.272  0.00  0.00    +0.000 HD
ENDBRANCH   1  26
BRANCH  13  32
ATOM     32  C   UNL     1      -5.709  15.543  23.502  0.00  0.00    +0.000 C 
ATOM     33  C   UNL     1      -5.904  16.954  24.055  0.00  0.00    +0.000 C 
ATOM     34  C   UNL     1      -6.534  15.370  22.217  0.00  0.00    +0.000 C 
ENDBRANCH  13  32
TORSDOF 2
ENDMDL
MODEL 2
REMARK VINA RESULT:      -8.9      2.893      4.503
REMARK  Name = 
REMARK  5 active torsions:
REMARK  status: ('A' for Active; 'I' for Inactive)
REMARK    1  A    between atoms: C_1  and  N_2
REMARK    2  A    between atoms: C_8  and  C_9
REMARK    3  A    between atoms: N_21  and  C_22
REMARK    4  A    between atoms: C_22  and  C_23
REMARK    5  A    between atoms: C_22  and  C_24
REMARK                            x       y       z     vdW  Elec       q    Type
REMARK                         _______ _______ _______ _____ _____    ______ ____
ROOT
ATOM      1  C   UNL     1       1.801   7.659  19.827  0.00  0.00    +0.000 C 
ATOM      2  O   UNL     1       1.486   7.333  20.973  0.00  0.00    +0.000 OA
ATOM      3  N   UNL     1       1.482   8.938  19.346  0.00  0.00    +0.000 N 
ATOM      4  C   UNL     1       1.214   9.911  20.391  0.00  0.00    +0.000 C 
ATOM      5  C   UNL     1       1.050  11.308  19.837  0.00  0.00    +0.000 C 
ATOM      6  C   UNL     1      -0.238  11.380  18.988  0.00  0.00    +0.000 C 
ATOM      7  C   UNL     1      -0.208  10.204  17.945  0.00  0.00    +0.000 C 
ATOM      8  C   UNL     1       1.067   9.301  17.985  0.00  0.00    +0.000 C 
ATOM      9  C   UNL     1      -1.523  11.263  19.898  0.00  0.00    +0.000 C 
ATOM     10  C   UNL     1      -1.591  12.465  20.776  0.00  0.00    +0.000 A 
ATOM     11  C   UNL     1      -1.997  12.663  22.100  0.00  0.00    +0.000 A 
ATOM     12  N   UNL     1      -1.840  13.932  22.482  0.00  0.00    +0.000 NA
ATOM     13  N   UNL     1      -1.310  14.554  21.397  0.00  0.00    +0.000 N 
ATOM     14  C   UNL     1      -1.123  13.693  20.343  0.00  0.00    +0.000 A 
ATOM     15  C   UNL     1      -0.542  13.906  19.039  0.00  0.00    +0.000 C 
ATOM     16  O   UNL     1      -0.279  14.997  18.549  0.00  0.00    +0.000 OA
ATOM     17  N   UNL     1      -0.285  12.727  18.330  0.00  0.00    +0.000 N 
ATOM     18  H   UNL     1       0.196  12.884  17.452  0.00  0.00    +0.000 HD
ENDROOT
BRANCH   1  26
ATOM     19  C   UNL     1       7.149   4.220  13.684  0.00  0.00    +0.000 C 
ATOM     20  N   UNL     1       6.209   3.664  14.639  0.00  0.00    +0.000 N 
ATOM     21  C   UNL     1       5.493   4.586  15.425  0.00  0.00    +0.000 A 
ATOM     22  C   UNL     1       4.641   4.069  16.404  0.00  0.00    +0.000 A 
ATOM     23  C   UNL     1       3.951   4.917  17.282  0.00  0.00    +0.000 A 
ATOM     24  C   UNL     1       3.094   4.432  18.291  0.00  0.00    +0.000 A 
ATOM     25  C   UNL     1       2.428   5.294  19.171  0.00  0.00    +0.000 A 
ATOM     26  C   UNL     1       2.615   6.673  19.063  0.00  0.00    +0.000 A 
ATOM     27  C   UNL     1       3.439   7.166  18.030  0.00  0.00    +0.000 A 
ATOM     28  C   UNL     1       4.120   6.299  17.142  0.00  0.00    +0.000 A 
ATOM     29  C   UNL     1       4.963   6.730  16.109  0.00  0.00    +0.000 A 
ATOM     30  N   UNL     1       5.656   5.914  15.272  0.00  0.00    +0.000 NA
ATOM     31  H   UNL     1       5.559   3.014  14.207  0.00  0.00    +0.000 HD
ENDBRANCH   1  26
BRANCH  13  32
ATOM     32  C   UNL     1      -1.034  15.990  21.465  0.00  0.00    +0.000 C 
ATOM     33  C   UNL     1      -2.239  16.784  20.963  0.00  0.00    +0.000 C 
ATOM     34  C   UNL     1      -0.643  16.474  22.871  0.00  0.00    +0.000 C 
ENDBRANCH  13  32
TORSDOF 2
ENDMDL
MODEL 3
REMARK VINA RESULT:      -8.5      2.739      4.032
REMARK  Name = 
REMARK  5 active torsions:
REMARK  status: ('A' for Active; 'I' for Inactive)
REMARK    1  A    between atoms: C_1  and  N_2
REMARK    2  A    between atoms: C_8  and  C_9
REMARK    3  A    between atoms: N_21  and  C_22
REMARK    4  A    between atoms: C_22  and  C_23
REMARK    5  A    between atoms: C_22  and  C_24
REMARK                            x       y       z     vdW  Elec       q    Type
REMARK                         _______ _______ _______ _____ _____    ______ ____
ROOT
ATOM      1  C   UNL     1       1.224   8.363  20.680  0.00  0.00    +0.000 C 
ATOM      2  O   UNL     1       0.817   8.179  21.829  0.00  0.00    +0.000 OA
ATOM      3  N   UNL     1       1.032   9.604  20.055  0.00  0.00    +0.000 N 
ATOM      4  C   UNL     1       0.774  10.696  20.979  0.00  0.00    +0.000 C 
ATOM      5  C   UNL     1       0.749  12.037  20.280  0.00  0.00    +0.000 C 
ATOM      6  C   UNL     1      -0.477  12.107  19.343  0.00  0.00    +0.000 C 
ATOM      7  C   UNL     1      -0.472  10.832  18.426  0.00  0.00    +0.000 C 
ATOM      8  C   UNL     1       0.728   9.852  18.640  0.00  0.00    +0.000 C 
ATOM      9  C   UNL     1      -1.819  12.173  20.172  0.00  0.00    +0.000 C 
ATOM     10  C   UNL     1      -1.851  13.461  20.920  0.00  0.00    +0.000 A 
ATOM     11  C   UNL     1      -2.320  13.822  22.188  0.00  0.00    +0.000 A 
ATOM     12  N   UNL     1      -2.092  15.109  22.453  0.00  0.00    +0.000 NA
ATOM     13  N   UNL     1      -1.453  15.579  21.350  0.00  0.00    +0.000 N 
ATOM     14  C   UNL     1      -1.267  14.603  20.401  0.00  0.00    +0.000 A 
ATOM     15  C   UNL     1      -0.594  14.640  19.125  0.00  0.00    +0.000 C 
ATOM     16  O   UNL     1      -0.221  15.655  18.549  0.00  0.00    +0.000 OA
ATOM     17  N   UNL     1      -0.383  13.380  18.554  0.00  0.00    +0.000 N 
ATOM     18  H   UNL     1       0.160  13.412  17.700  0.00  0.00    +0.000 HD
ENDROOT
BRANCH   1  26
ATOM     19  C   UNL     1       6.357   3.854  15.068  0.00  0.00    +0.000 C 
ATOM     20  N   UNL     1       5.442   3.481  16.131  0.00  0.00    +0.000 N 
ATOM     21  C   UNL     1       4.757   4.534  16.767  0.00  0.00    +0.000 A 
ATOM     22  C   UNL     1       3.931   4.203  17.844  0.00  0.00    +0.000 A 
ATOM     23  C   UNL     1       3.275   5.198  18.583  0.00  0.00    +0.000 A 
ATOM     24  C   UNL     1       2.446   4.904  19.685  0.00  0.00    +0.000 A 
ATOM     25  C   UNL     1       1.813   5.913  20.423  0.00  0.00    +0.000 A 
ATOM     26  C   UNL     1       2.007   7.250  20.074  0.00  0.00    +0.000 A 
ATOM     27  C   UNL     1       2.803   7.548  18.948  0.00  0.00    +0.000 A 
ATOM     28  C   UNL     1       3.450   6.533  18.203  0.00  0.00    +0.000 A 
ATOM     29  C   UNL     1       4.265   6.770  17.088  0.00  0.00    +0.000 A 
ATOM     30  N   UNL     1       4.926   5.814  16.384  0.00  0.00    +0.000 NA
ATOM     31  H   UNL     1       4.774   2.776  15.835  0.00  0.00    +0.000 HD
ENDBRANCH   1  26
BRANCH  13  32
ATOM     32  C   UNL     1      -1.075  16.992  21.295  0.00  0.00    +0.000 C 
ATOM     33  C   UNL     1      -2.043  17.830  22.129  0.00  0.00    +0.000 C 
ATOM     34  C   UNL     1       0.368  17.259  21.751  0.00  0.00    +0.000 C 
ENDBRANCH  13  32
TORSDOF 2
ENDMDL
MODEL 4
REMARK VINA RESULT:      -8.4      1.522      1.893
REMARK  Name = 
REMARK  5 active torsions:
REMARK  status: ('A' for Active; 'I' for Inactive)
REMARK    1  A    between atoms: C_1  and  N_2
REMARK    2  A    between atoms: C_8  and  C_9
REMARK    3  A    between atoms: N_21  and  C_22
REMARK    4  A    between atoms: C_22  and  C_23
REMARK    5  A    between atoms: C_22  and  C_24
REMARK                            x       y       z     vdW  Elec       q    Type
REMARK                         _______ _______ _______ _____ _____    ______ ____
ROOT
ATOM      1  C   UNL     1       1.630   9.317  18.659  0.00  0.00    +0.000 C 
ATOM      2  O   UNL     1       1.758  10.131  17.742  0.00  0.00    +0.000 OA
ATOM      3  N   UNL     1       0.772   9.596  19.733  0.00  0.00    +0.000 N 
ATOM      4  C   UNL     1      -0.225  10.612  19.443  0.00  0.00    +0.000 C 
ATOM      5  C   UNL     1      -1.233  10.754  20.561  0.00  0.00    +0.000 C 
ATOM      6  C   UNL     1      -0.537  11.330  21.814  0.00  0.00    +0.000 C 
ATOM      7  C   UNL     1       0.736  10.461  22.115  0.00  0.00    +0.000 C 
ATOM      8  C   UNL     1       0.974   9.256  21.147  0.00  0.00    +0.000 C 
ATOM      9  C   UNL     1      -0.123  12.837  21.588  0.00  0.00    +0.000 C 
ATOM     10  C   UNL     1      -1.361  13.652  21.445  0.00  0.00    +0.000 A 
ATOM     11  C   UNL     1      -1.697  14.756  20.654  0.00  0.00    +0.000 A 
ATOM     12  N   UNL     1      -2.964  15.131  20.837  0.00  0.00    +0.000 NA
ATOM     13  N   UNL     1      -3.456  14.247  21.744  0.00  0.00    +0.000 N 
ATOM     14  C   UNL     1      -2.520  13.317  22.125  0.00  0.00    +0.000 A 
ATOM     15  C   UNL     1      -2.622  12.177  23.003  0.00  0.00    +0.000 C 
ATOM     16  O   UNL     1      -3.559  11.943  23.756  0.00  0.00    +0.000 OA
ATOM     17  N   UNL     1      -1.525  11.309  22.943  0.00  0.00    +0.000 N 
ATOM     18  H   UNL     1      -1.644  10.473  23.502  0.00  0.00    +0.000 HD
ENDROOT
BRANCH   1  26
ATOM     19  C   UNL     1       4.681   1.188  20.327  0.00  0.00    +0.000 C 
ATOM     20  N   UNL     1       5.038   2.235  19.387  0.00  0.00    +0.000 N 
ATOM     21  C   UNL     1       4.318   3.440  19.486  0.00  0.00    +0.000 A 
ATOM     22  C   UNL     1       4.593   4.431  18.541  0.00  0.00    +0.000 A 
ATOM     23  C   UNL     1       3.867   5.630  18.519  0.00  0.00    +0.000 A 
ATOM     24  C   UNL     1       4.106   6.646  17.571  0.00  0.00    +0.000 A 
ATOM     25  C   UNL     1       3.357   7.829  17.553  0.00  0.00    +0.000 A 
ATOM     26  C   UNL     1       2.337   8.017  18.488  0.00  0.00    +0.000 A 
ATOM     27  C   UNL     1       2.121   7.021  19.464  0.00  0.00    +0.000 A 
ATOM     28  C   UNL     1       2.870   5.821  19.482  0.00  0.00    +0.000 A 
ATOM     29  C   UNL     1       2.689   4.792  20.415  0.00  0.00    +0.000 A 
ATOM     30  N   UNL     1       3.370   3.615  20.426  0.00  0.00    +0.000 NA
ATOM     31  H   UNL     1       6.034   2.436  19.394  0.00  0.00    +0.000 HD
ENDBRANCH   1  26
BRANCH  13  32
ATOM     32  C   UNL     1      -4.840  14.391  22.198  0.00  0.00    +0.000 C 
ATOM     33  C   UNL     1      -4.898  15.274  23.444  0.00  0.00    +0.000 C 
ATOM     34  C   UNL     1      -5.784  14.949  21.122  0.00  0.00    +0.000 C 
ENDBRANCH  13  32
TORSDOF 2
ENDMDL
MODEL 5
REMARK VINA RESULT:      -8.3      2.619      3.209
REMARK  Name = 
REMARK  5 active torsions:
REMARK  status: ('A' for Active; 'I' for Inactive)
REMARK    1  A    between atoms: C_1  and  N_2
REMARK    2  A    between atoms: C_8  and  C_9
REMARK    3  A    between atoms: N_21  and  C_22
REMARK    4  A    between atoms: C_22  and  C_23
REMARK    5  A    between atoms: C_22  and  C_24
REMARK                            x       y       z     vdW  Elec       q    Type
REMARK                         _______ _______ _______ _____ _____    ______ ____
ROOT
ATOM      1  C   UNL     1       1.114   9.161  20.962  0.00  0.00    +0.000 C 
ATOM      2  O   UNL     1       1.270   9.002  22.175  0.00  0.00    +0.000 OA
ATOM      3  N   UNL     1       0.624  10.379  20.469  0.00  0.00    +0.000 N 
ATOM      4  C   UNL     1       0.773  11.492  21.392  0.00  0.00    +0.000 C 
ATOM      5  C   UNL     1       0.397  12.811  20.756  0.00  0.00    +0.000 C 
ATOM      6  C   UNL     1      -1.120  12.830  20.466  0.00  0.00    +0.000 C 
ATOM      7  C   UNL     1      -1.487  11.529  19.666  0.00  0.00    +0.000 C 
ATOM      8  C   UNL     1      -0.289  10.580  19.336  0.00  0.00    +0.000 C 
ATOM      9  C   UNL     1      -1.952  12.893  21.807  0.00  0.00    +0.000 C 
ATOM     10  C   UNL     1      -1.685  14.200  22.469  0.00  0.00    +0.000 A 
ATOM     11  C   UNL     1      -1.548  14.588  23.806  0.00  0.00    +0.000 A 
ATOM     12  N   UNL     1      -1.266  15.887  23.919  0.00  0.00    +0.000 NA
ATOM     13  N   UNL     1      -1.202  16.338  22.639  0.00  0.00    +0.000 N 
ATOM     14  C   UNL     1      -1.431  15.339  21.724  0.00  0.00    +0.000 A 
ATOM     15  C   UNL     1      -1.401  15.353  20.281  0.00  0.00    +0.000 C 
ATOM     16  O   UNL     1      -1.357  16.358  19.582  0.00  0.00    +0.000 OA
ATOM     17  N   UNL     1      -1.429  14.081  19.698  0.00  0.00    +0.000 N 
ATOM     18  H   UNL     1      -1.326  14.100  18.690  0.00  0.00    +0.000 HD
ENDROOT
BRANCH   1  26
ATOM     19  C   UNL     1       3.859   1.162  18.383  0.00  0.00    +0.000 C 
ATOM     20  N   UNL     1       3.898   2.488  17.795  0.00  0.00    +0.000 N 
ATOM     21  C   UNL     1       3.386   3.538  18.580  0.00  0.00    +0.000 A 
ATOM     22  C   UNL     1       3.344   4.809  18.002  0.00  0.00    +0.000 A 
ATOM     23  C   UNL     1       2.777   5.895  18.685  0.00  0.00    +0.000 A 
ATOM     24  C   UNL     1       2.703   7.188  18.128  0.00  0.00    +0.000 A 
ATOM     25  C   UNL     1       2.115   8.256  18.818  0.00  0.00    +0.000 A 
ATOM     26  C   UNL     1       1.577   8.046  20.089  0.00  0.00    +0.000 A 
ATOM     27  C   UNL     1       1.684   6.764  20.667  0.00  0.00    +0.000 A 
ATOM     28  C   UNL     1       2.271   5.680  19.971  0.00  0.00    +0.000 A 
ATOM     29  C   UNL     1       2.390   4.383  20.488  0.00  0.00    +0.000 A 
ATOM     30  N   UNL     1       2.913   3.320  19.822  0.00  0.00    +0.000 NA
ATOM     31  H   UNL     1       4.826   2.736  17.465  0.00  0.00    +0.000 HD
ENDBRANCH   1  26
BRANCH  13  32
ATOM     32  C   UNL     1      -0.933  17.756  22.397  0.00  0.00    +0.000 C 
ATOM     33  C   UNL     1      -1.431  18.596  23.572  0.00  0.00    +0.000 C 
ATOM     34  C   UNL     1       0.550  18.062  22.133  0.00  0.00    +0.000 C 
ENDBRANCH  13  32
TORSDOF 2
ENDMDL
MODEL 6
REMARK VINA RESULT:      -8.2      2.034      2.639
REMARK  Name = 
REMARK  5 active torsions:
REMARK  status: ('A' for Active; 'I' for Inactive)
REMARK    1  A    between atoms: C_1  and  N_2
REMARK    2  A    between atoms: C_8  and  C_9
REMARK    3  A    between atoms: N_21  and  C_22
REMARK    4  A    between atoms: C_22  and  C_23
REMARK    5  A    between atoms: C_22  and  C_24
REMARK                            x       y       z     vdW  Elec       q    Type
REMARK                         _______ _______ _______ _____ _____    ______ ____
ROOT
ATOM      1  C   UNL     1       0.245  10.243  20.967  0.00  0.00    +0.000 C 
ATOM      2  O   UNL     1       0.387   9.859  22.130  0.00  0.00    +0.000 OA
ATOM      3  N   UNL     1      -0.456  11.428  20.697  0.00  0.00    +0.000 N 
ATOM      4  C   UNL     1      -0.558  12.325  21.836  0.00  0.00    +0.000 C 
ATOM      5  C   UNL     1      -1.162  13.658  21.456  0.00  0.00    +0.000 C 
ATOM      6  C   UNL     1      -2.642  13.461  21.064  0.00  0.00    +0.000 C 
ATOM      7  C   UNL     1      -2.722  12.316  19.991  0.00  0.00    +0.000 C 
ATOM      8  C   UNL     1      -1.351  11.696  19.565  0.00  0.00    +0.000 C 
ATOM      9  C   UNL     1      -3.515  13.082  22.325  0.00  0.00    +0.000 C 
ATOM     10  C   UNL     1      -3.531  14.244  23.256  0.00  0.00    +0.000 A 
ATOM     11  C   UNL     1      -3.517  14.355  24.651  0.00  0.00    +0.000 A 
ATOM     12  N   UNL     1      -3.497  15.628  25.047  0.00  0.00    +0.000 NA
ATOM     13  N   UNL     1      -3.479  16.346  23.894  0.00  0.00    +0.000 N 
ATOM     14  C   UNL     1      -3.478  15.542  22.780  0.00  0.00    +0.000 A 
ATOM     15  C   UNL     1      -3.402  15.870  21.377  0.00  0.00    +0.000 C 
ATOM     16  O   UNL     1      -3.531  16.992  20.902  0.00  0.00    +0.000 OA
ATOM     17  N   UNL     1      -3.162  14.769  20.546  0.00  0.00    +0.000 N 
ATOM     18  H   UNL     1      -3.031  15.022  19.574  0.00  0.00    +0.000 HD
ENDROOT
BRANCH   1  26
ATOM     19  C   UNL     1       4.975   3.837  17.124  0.00  0.00    +0.000 C 
ATOM     20  N   UNL     1       4.593   5.185  16.746  0.00  0.00    +0.000 N 
ATOM     21  C   UNL     1       3.858   5.919  17.695  0.00  0.00    +0.000 A 
ATOM     22  C   UNL     1       3.415   7.190  17.319  0.00  0.00    +0.000 A 
ATOM     23  C   UNL     1       2.610   7.956  18.175  0.00  0.00    +0.000 A 
ATOM     24  C   UNL     1       2.131   9.235  17.824  0.00  0.00    +0.000 A 
ATOM     25  C   UNL     1       1.312   9.977  18.685  0.00  0.00    +0.000 A 
ATOM     26  C   UNL     1       0.945   9.446  19.921  0.00  0.00    +0.000 A 
ATOM     27  C   UNL     1       1.454   8.183  20.294  0.00  0.00    +0.000 A 
ATOM     28  C   UNL     1       2.276   7.426  19.426  0.00  0.00    +0.000 A 
ATOM     29  C   UNL     1       2.797   6.162  19.735  0.00  0.00    +0.000 A 
ATOM     30  N   UNL     1       3.554   5.402  18.900  0.00  0.00    +0.000 NA
ATOM     31  H   UNL     1       5.386   5.737  16.434  0.00  0.00    +0.000 HD
ENDBRANCH   1  26
BRANCH  13  32
ATOM     32  C   UNL     1      -3.483  17.808  23.966  0.00  0.00    +0.000 C 
ATOM     33  C   UNL     1      -4.177  18.272  25.246  0.00  0.00    +0.000 C 
ATOM     34  C   UNL     1      -2.079  18.430  23.882  0.00  0.00    +0.000 C 
ENDBRANCH  13  32
TORSDOF 2
ENDMDL
MODEL 7
REMARK VINA RESULT:      -8.1      2.824      3.760
REMARK  Name = 
REMARK  5 active torsions:
REMARK  status: ('A' for Active; 'I' for Inactive)
REMARK    1  A    between atoms: C_1  and  N_2
REMARK    2  A    between atoms: C_8  and  C_9
REMARK    3  A    between atoms: N_21  and  C_22
REMARK    4  A    between atoms: C_22  and  C_23
REMARK    5  A    between atoms: C_22  and  C_24
REMARK                            x       y       z     vdW  Elec       q    Type
REMARK                         _______ _______ _______ _____ _____    ______ ____
ROOT
ATOM      1  C   UNL     1       1.197   8.956  20.503  0.00  0.00    +0.000 C 
ATOM      2  O   UNL     1       1.111   8.852  21.728  0.00  0.00    +0.000 OA
ATOM      3  N   UNL     1       0.918  10.181  19.879  0.00  0.00    +0.000 N 
ATOM      4  C   UNL     1       0.991  11.327  20.770  0.00  0.00    +0.000 C 
ATOM      5  C   UNL     1       0.858  12.635  20.024  0.00  0.00    +0.000 C 
ATOM      6  C   UNL     1      -0.571  12.760  19.452  0.00  0.00    +0.000 C 
ATOM      7  C   UNL     1      -0.897  11.451  18.647  0.00  0.00    +0.000 C 
ATOM      8  C   UNL     1       0.252  10.393  18.587  0.00  0.00    +0.000 C 
ATOM      9  C   UNL     1      -1.627  12.963  20.608  0.00  0.00    +0.000 C 
ATOM     10  C   UNL     1      -1.372  14.279  21.257  0.00  0.00    +0.000 A 
ATOM     11  C   UNL     1      -1.451  14.727  22.580  0.00  0.00    +0.000 A 
ATOM     12  N   UNL     1      -1.080  16.003  22.695  0.00  0.00    +0.000 NA
ATOM     13  N   UNL     1      -0.741  16.377  21.433  0.00  0.00    +0.000 N 
ATOM     14  C   UNL     1      -0.884  15.351  20.530  0.00  0.00    +0.000 A 
ATOM     15  C   UNL     1      -0.586  15.284  19.120  0.00  0.00    +0.000 C 
ATOM     16  O   UNL     1      -0.324  16.242  18.403  0.00  0.00    +0.000 OA
ATOM     17  N   UNL     1      -0.619  13.988  18.591  0.00  0.00    +0.000 N 
ATOM     18  H   UNL     1      -0.330  13.944  17.621  0.00  0.00    +0.000 HD
ENDROOT
BRANCH   1  26
ATOM     19  C   UNL     1       4.080   0.750  18.915  0.00  0.00    +0.000 C 
ATOM     20  N   UNL     1       4.162   2.012  18.202  0.00  0.00    +0.000 N 
ATOM     21  C   UNL     1       3.603   3.132  18.844  0.00  0.00    +0.000 A 
ATOM     22  C   UNL     1       3.602   4.340  18.142  0.00  0.00    +0.000 A 
ATOM     23  C   UNL     1       2.995   5.486  18.675  0.00  0.00    +0.000 A 
ATOM     24  C   UNL     1       2.962   6.717  17.989  0.00  0.00    +0.000 A 
ATOM     25  C   UNL     1       2.334   7.846  18.530  0.00  0.00    +0.000 A 
ATOM     26  C   UNL     1       1.713   7.762  19.776  0.00  0.00    +0.000 A 
ATOM     27  C   UNL     1       1.778   6.544  20.485  0.00  0.00    +0.000 A 
ATOM     28  C   UNL     1       2.405   5.398  19.940  0.00  0.00    +0.000 A 
ATOM     29  C   UNL     1       2.486   4.159  20.590  0.00  0.00    +0.000 A 
ATOM     30  N   UNL     1       3.049   3.037  20.068  0.00  0.00    +0.000 NA
ATOM     31  H   UNL     1       5.110   2.229  17.911  0.00  0.00    +0.000 HD
ENDBRANCH   1  26
BRANCH  13  32
ATOM     32  C   UNL     1      -0.306  17.753  21.192  0.00  0.00    +0.000 C 
ATOM     33  C   UNL     1      -1.496  18.619  20.781  0.00  0.00    +0.000 C 
ATOM     34  C   UNL     1       0.409  18.391  22.394  0.00  0.00    +0.000 C 
ENDBRANCH  13  32
TORSDOF 2
ENDMDL
MODEL 8
REMARK VINA RESULT:      -7.8      1.723      2.236
REMARK  Name = 
REMARK  5 active torsions:
REMARK  status: ('A' for Active; 'I' for Inactive)
REMARK    1  A    between atoms: C_1  and  N_2
REMARK    2  A    between atoms: C_8  and  C_9
REMARK    3  A    between atoms: N_21  and  C_22
REMARK    4  A    between atoms: C_22  and  C_23
REMARK    5  A    between atoms: C_22  and  C_24
REMARK                            x       y       z     vdW  Elec       q    Type
REMARK                         _______ _______ _______ _____ _____    ______ ____
ROOT
ATOM      1  C   UNL     1       1.382   9.748  19.097  0.00  0.00    +0.000 C 
ATOM      2  O   UNL     1       1.571  10.634  18.261  0.00  0.00    +0.000 OA
ATOM      3  N   UNL     1       0.453   9.941  20.131  0.00  0.00    +0.000 N 
ATOM      4  C   UNL     1      -0.523  10.983  19.860  0.00  0.00    +0.000 C 
ATOM      5  C   UNL     1      -1.604  11.036  20.915  0.00  0.00    +0.000 C 
ATOM      6  C   UNL     1      -0.994  11.502  22.256  0.00  0.00    +0.000 C 
ATOM      7  C   UNL     1       0.257  10.604  22.569  0.00  0.00    +0.000 C 
ATOM      8  C   UNL     1       0.560   9.483  21.522  0.00  0.00    +0.000 C 
ATOM      9  C   UNL     1      -0.567  13.020  22.184  0.00  0.00    +0.000 C 
ATOM     10  C   UNL     1      -1.793  13.850  22.027  0.00  0.00    +0.000 A 
ATOM     11  C   UNL     1      -2.075  15.019  21.310  0.00  0.00    +0.000 A 
ATOM     12  N   UNL     1      -3.352  15.383  21.439  0.00  0.00    +0.000 NA
ATOM     13  N   UNL     1      -3.903  14.429  22.233  0.00  0.00    +0.000 N 
ATOM     14  C   UNL     1      -2.994  13.466  22.597  0.00  0.00    +0.000 A 
ATOM     15  C   UNL     1      -3.155  12.257  23.369  0.00  0.00    +0.000 C 
ATOM     16  O   UNL     1      -4.141  11.966  24.035  0.00  0.00    +0.000 OA
ATOM     17  N   UNL     1      -2.055  11.392  23.310  0.00  0.00    +0.000 N 
ATOM     18  H   UNL     1      -2.211  10.513  23.789  0.00  0.00    +0.000 HD
ENDROOT
BRANCH   1  26
ATOM     19  C   UNL     1       6.483   3.599  15.310  0.00  0.00    +0.000 C 
ATOM     20  N   UNL     1       5.457   3.577  16.336  0.00  0.00    +0.000 N 
ATOM     21  C   UNL     1       4.828   4.804  16.621  0.00  0.00    +0.000 A 
ATOM     22  C   UNL     1       3.893   4.818  17.658  0.00  0.00    +0.000 A 
ATOM     23  C   UNL     1       3.278   6.014  18.060  0.00  0.00    +0.000 A 
ATOM     24  C   UNL     1       2.342   6.070  19.113  0.00  0.00    +0.000 A 
ATOM     25  C   UNL     1       1.753   7.276  19.512  0.00  0.00    +0.000 A 
ATOM     26  C   UNL     1       2.100   8.463  18.866  0.00  0.00    +0.000 A 
ATOM     27  C   UNL     1       3.006   8.407  17.785  0.00  0.00    +0.000 A 
ATOM     28  C   UNL     1       3.610   7.192  17.382  0.00  0.00    +0.000 A 
ATOM     29  C   UNL     1       4.527   7.077  16.330  0.00  0.00    +0.000 A 
ATOM     30  N   UNL     1       5.147   5.928  15.953  0.00  0.00    +0.000 NA
ATOM     31  H   UNL     1       4.750   2.870  16.158  0.00  0.00    +0.000 HD
ENDBRANCH   1  26
BRANCH  13  32
ATOM     32  C   UNL     1      -5.315  14.541  22.604  0.00  0.00    +0.000 C 
ATOM     33  C   UNL     1      -5.473  15.468  23.808  0.00  0.00    +0.000 C 
ATOM     34  C   UNL     1      -6.215  15.025  21.455  0.00  0.00    +0.000 C 
ENDBRANCH  13  32
TORSDOF 2
ENDMDL
MODEL 9
REMARK VINA RESULT:      -7.7      2.096      2.822
REMARK  Name = 
REMARK  5 active torsions:
REMARK  status: ('A' for Active; 'I' for Inactive)
REMARK    1  A    between atoms: C_1  and  N_2
REMARK    2  A    between atoms: C_8  and  C_9
REMARK    3  A    between atoms: N_21  and  C_22
REMARK    4  A    between atoms: C_22  and  C_23
REMARK    5  A    between atoms: C_22  and  C_24
REMARK                            x       y       z     vdW  Elec       q    Type
REMARK                         _______ _______ _______ _____ _____    ______ ____
ROOT
ATOM      1  C   UNL     1      -0.482  10.644  20.684  0.00  0.00    +0.000 C 
ATOM      2  O   UNL     1      -0.267  10.474  21.887  0.00  0.00    +0.000 OA
ATOM      3  N   UNL     1      -1.415  11.603  20.264  0.00  0.00    +0.000 N 
ATOM      4  C   UNL     1      -1.711  12.616  21.262  0.00  0.00    +0.000 C 
ATOM      5  C   UNL     1      -2.581  13.721  20.709  0.00  0.00    +0.000 C 
ATOM      6  C   UNL     1      -3.985  13.162  20.388  0.00  0.00    +0.000 C 
ATOM      7  C   UNL     1      -3.814  11.881  19.494  0.00  0.00    +0.000 C 
ATOM      8  C   UNL     1      -2.341  11.507  19.128  0.00  0.00    +0.000 C 
ATOM      9  C   UNL     1      -4.764  12.798  21.712  0.00  0.00    +0.000 C 
ATOM     10  C   UNL     1      -5.030  14.055  22.465  0.00  0.00    +0.000 A 
ATOM     11  C   UNL     1      -5.049  14.370  23.828  0.00  0.00    +0.000 A 
ATOM     12  N   UNL     1      -5.301  15.664  24.035  0.00  0.00    +0.000 NA
ATOM     13  N   UNL     1      -5.429  16.192  22.789  0.00  0.00    +0.000 N 
ATOM     14  C   UNL     1      -5.251  15.251  21.805  0.00  0.00    +0.000 A 
ATOM     15  C   UNL     1      -5.238  15.377  20.367  0.00  0.00    +0.000 C 
ATOM     16  O   UNL     1      -5.599  16.364  19.738  0.00  0.00    +0.000 OA
ATOM     17  N   UNL     1      -4.767  14.241  19.699  0.00  0.00    +0.000 N 
ATOM     18  H   UNL     1      -4.686  14.369  18.697  0.00  0.00    +0.000 HD
ENDROOT
BRANCH   1  26
ATOM     19  C   UNL     1       4.941   4.396  17.564  0.00  0.00    +0.000 C 
ATOM     20  N   UNL     1       4.562   5.726  17.122  0.00  0.00    +0.000 N 
ATOM     21  C   UNL     1       3.683   6.438  17.960  0.00  0.00    +0.000 A 
ATOM     22  C   UNL     1       3.245   7.688  17.515  0.00  0.00    +0.000 A 
ATOM     23  C   UNL     1       2.309   8.429  18.250  0.00  0.00    +0.000 A 
ATOM     24  C   UNL     1       1.832   9.687  17.825  0.00  0.00    +0.000 A 
ATOM     25  C   UNL     1       0.882  10.403  18.563  0.00  0.00    +0.000 A 
ATOM     26  C   UNL     1       0.378   9.867  19.748  0.00  0.00    +0.000 A 
ATOM     27  C   UNL     1       0.881   8.627  20.199  0.00  0.00    +0.000 A 
ATOM     28  C   UNL     1       1.835   7.896  19.453  0.00  0.00    +0.000 A 
ATOM     29  C   UNL     1       2.358   6.655  19.842  0.00  0.00    +0.000 A 
ATOM     30  N   UNL     1       3.245   5.918  19.122  0.00  0.00    +0.000 NA
ATOM     31  H   UNL     1       5.368   6.306  16.909  0.00  0.00    +0.000 HD
ENDBRANCH   1  26
BRANCH  13  32
ATOM     32  C   UNL     1      -5.742  17.615  22.649  0.00  0.00    +0.000 C 
ATOM     33  C   UNL     1      -6.483  18.117  23.887  0.00  0.00    +0.000 C 
ATOM     34  C   UNL     1      -4.506  18.493  22.392  0.00  0.00    +0.000 C 
ENDBRANCH  13  32
TORSDOF 2
ENDMDL
