MODEL 1
REMARK VINA RESULT:      -6.5      0.000      0.000
REMARK  Name = 
REMARK  9 active torsions:
REMARK  status: ('A' for Active; 'I' for Inactive)
REMARK    1  A    between atoms: C_1  and  C_2
REMARK    2  A    between atoms: C_6  and  C_7
REMARK    3  A    between atoms: C_10  and  N_11
REMARK    4  A    between atoms: C_12  and  C_14
REMARK    5  A    between atoms: C_20  and  C_21
REMARK    6  A    between atoms: C_21  and  O_23
REMARK    7  A    between atoms: O_23  and  C_24
REMARK    8  A    between atoms: C_24  and  C_25
REMARK    9  A    between atoms: C_24  and  C_26
REMARK                            x       y       z     vdW  Elec       q    Type
REMARK                         _______ _______ _______ _____ _____    ______ ____
ROOT
ATOM      1  C   UNL     1      -0.707  12.556  19.094  0.00  0.00    +0.000 A 
ATOM      2  C   UNL     1      -1.479  11.959  18.108  0.00  0.00    +0.000 A 
ATOM      3  S   UNL     1      -1.163  10.290  17.936  0.00  0.00    +0.000 S 
ATOM      4  C   UNL     1       0.122  10.376  19.039  0.00  0.00    +0.000 A 
ATOM      5  C   UNL     1       0.216  11.598  19.687  0.00  0.00    +0.000 A 
ENDROOT
BRANCH   1  11
ATOM      6  C   UNL     1       0.381  17.353  18.093  0.00  0.00    +0.000 C 
ATOM      7  C   UNL     1      -0.384  16.335  18.888  0.00  0.00    +0.000 A 
ATOM      8  C   UNL     1      -1.284  16.732  19.879  0.00  0.00    +0.000 A 
ATOM      9  C   UNL     1      -1.959  15.777  20.637  0.00  0.00    +0.000 A 
ATOM     10  C   UNL     1      -1.745  14.417  20.403  0.00  0.00    +0.000 A 
ATOM     11  C   UNL     1      -0.872  13.988  19.392  0.00  0.00    +0.000 A 
ATOM     12  C   UNL     1      -0.192  14.964  18.644  0.00  0.00    +0.000 A 
ENDBRANCH   1  11
BRANCH   4  13
ATOM     13  N   UNL     1       0.819   9.192  19.161  0.00  0.00    +0.000 N 
ATOM     14  C   UNL     1       1.880   8.955  18.291  0.00  0.00    +0.000 C 
ATOM     15  O   UNL     1       2.254   9.709  17.398  0.00  0.00    +0.000 OA
ATOM     16  H   UNL     1       0.304   8.356  19.413  0.00  0.00    +0.000 HD
BRANCH  14  17
ATOM     17  C   UNL     1       2.555   7.643  18.474  0.00  0.00    +0.000 A 
ATOM     18  C   UNL     1       3.543   7.256  17.578  0.00  0.00    +0.000 A 
ATOM     19  N   UNL     1       4.290   6.139  17.761  0.00  0.00    +0.000 NA
ATOM     20  C   UNL     1       4.008   5.431  18.878  0.00  0.00    +0.000 A 
ATOM     21  C   UNL     1       3.000   5.798  19.755  0.00  0.00    +0.000 A 
ATOM     22  N   UNL     1       2.237   6.907  19.579  0.00  0.00    +0.000 NA
ENDBRANCH  14  17
ENDBRANCH   4  13
BRANCH   5  23
ATOM     23  C   UNL     1       1.031  11.860  20.875  0.00  0.00    +0.000 C 
ATOM     24  O   UNL     1       1.724  12.867  20.990  0.00  0.00    +0.000 OA
BRANCH  23  25
ATOM     25  O   UNL     1       0.941  10.904  21.840  0.00  0.00    +0.000 OA
BRANCH  25  26
ATOM     26  C   UNL     1      -0.384  10.594  22.300  0.00  0.00    +0.000 C 
ATOM     27  C   UNL     1      -0.296   9.495  23.349  0.00  0.00    +0.000 C 
ATOM     28  C   UNL     1      -0.974  11.867  22.896  0.00  0.00    +0.000 C 
ENDBRANCH  25  26
ENDBRANCH  23  25
ENDBRANCH   5  23
TORSDOF 6
ENDMDL
MODEL 2
REMARK VINA RESULT:      -6.4      0.349      1.361
REMARK  Name = 
REMARK  9 active torsions:
REMARK  status: ('A' for Active; 'I' for Inactive)
REMARK    1  A    between atoms: C_1  and  C_2
REMARK    2  A    between atoms: C_6  and  C_7
REMARK    3  A    between atoms: C_10  and  N_11
REMARK    4  A    between atoms: C_12  and  C_14
REMARK    5  A    between atoms: C_20  and  C_21
REMARK    6  A    between atoms: C_21  and  O_23
REMARK    7  A    between atoms: O_23  and  C_24
REMARK    8  A    between atoms: C_24  and  C_25
REMARK    9  A    between atoms: C_24  and  C_26
REMARK                            x       y       z     vdW  Elec       q    Type
REMARK                         _______ _______ _______ _____ _____    ______ ____
ROOT
ATOM      1  C   UNL     1      -0.677  12.529  19.140  0.00  0.00    +0.000 A 
ATOM      2  C   UNL     1      -1.456  11.924  18.165  0.00  0.00    +0.000 A 
ATOM      3  S   UNL     1      -1.123  10.259  17.986  0.00  0.00    +0.000 S 
ATOM      4  C   UNL     1       0.177  10.359  19.071  0.00  0.00    +0.000 A 
ATOM      5  C   UNL     1       0.266  11.581  19.718  0.00  0.00    +0.000 A 
ENDROOT
BRANCH   1  11
ATOM      6  C   UNL     1      -2.817  16.156  21.871  0.00  0.00    +0.000 C 
ATOM      7  C   UNL     1      -1.858  15.738  20.795  0.00  0.00    +0.000 A 
ATOM      8  C   UNL     1      -1.097  16.686  20.107  0.00  0.00    +0.000 A 
ATOM      9  C   UNL     1      -0.239  16.287  19.084  0.00  0.00    +0.000 A 
ATOM     10  C   UNL     1      -0.128  14.936  18.746  0.00  0.00    +0.000 A 
ATOM     11  C   UNL     1      -0.854  13.958  19.442  0.00  0.00    +0.000 A 
ATOM     12  C   UNL     1      -1.722  14.378  20.465  0.00  0.00    +0.000 A 
ENDBRANCH   1  11
BRANCH   4  13
ATOM     13  N   UNL     1       0.890   9.183  19.181  0.00  0.00    +0.000 N 
ATOM     14  C   UNL     1       1.919   8.944  18.274  0.00  0.00    +0.000 C 
ATOM     15  O   UNL     1       2.251   9.690  17.358  0.00  0.00    +0.000 OA
ATOM     16  H   UNL     1       0.393   8.345  19.463  0.00  0.00    +0.000 HD
BRANCH  14  17
ATOM     17  C   UNL     1       2.613   7.641  18.449  0.00  0.00    +0.000 A 
ATOM     18  C   UNL     1       3.605   7.274  17.550  0.00  0.00    +0.000 A 
ATOM     19  N   UNL     1       4.369   6.166  17.725  0.00  0.00    +0.000 NA
ATOM     20  C   UNL     1       4.098   5.448  18.838  0.00  0.00    +0.000 A 
ATOM     21  C   UNL     1       3.086   5.794  19.718  0.00  0.00    +0.000 A 
ATOM     22  N   UNL     1       2.307   6.893  19.550  0.00  0.00    +0.000 NA
ENDBRANCH  14  17
ENDBRANCH   4  13
BRANCH   5  23
ATOM     23  C   UNL     1       1.095  11.852  20.896  0.00  0.00    +0.000 C 
ATOM     24  O   UNL     1       1.922  12.758  20.924  0.00  0.00    +0.000 OA
BRANCH  23  25
ATOM     25  O   UNL     1       0.858  11.026  21.952  0.00  0.00    +0.000 OA
BRANCH  25  26
ATOM     26  C   UNL     1      -0.515  10.663  22.174  0.00  0.00    +0.000 C 
ATOM     27  C   UNL     1      -0.558   9.323  22.895  0.00  0.00    +0.000 C 
ATOM     28  C   UNL     1      -1.149  11.758  23.023  0.00  0.00    +0.000 C 
ENDBRANCH  25  26
ENDBRANCH  23  25
ENDBRANCH   5  23
TORSDOF 6
ENDMDL
MODEL 3
REMARK VINA RESULT:      -6.1      2.470      3.799
REMARK  Name = 
REMARK  9 active torsions:
REMARK  status: ('A' for Active; 'I' for Inactive)
REMARK    1  A    between atoms: C_1  and  C_2
REMARK    2  A    between atoms: C_6  and  C_7
REMARK    3  A    between atoms: C_10  and  N_11
REMARK    4  A    between atoms: C_12  and  C_14
REMARK    5  A    between atoms: C_20  and  C_21
REMARK    6  A    between atoms: C_21  and  O_23
REMARK    7  A    between atoms: O_23  and  C_24
REMARK    8  A    between atoms: C_24  and  C_25
REMARK    9  A    between atoms: C_24  and  C_26
REMARK                            x       y       z     vdW  Elec       q    Type
REMARK                         _______ _______ _______ _____ _____    ______ ____
ROOT
ATOM      1  C   UNL     1       1.492   9.687  18.590  0.00  0.00    +0.000 A 
ATOM      2  C   UNL     1       2.191   9.285  17.462  0.00  0.00    +0.000 A 
ATOM      3  S   UNL     1       2.857   7.721  17.613  0.00  0.00    +0.000 S 
ATOM      4  C   UNL     1       2.379   7.629  19.238  0.00  0.00    +0.000 A 
ATOM      5  C   UNL     1       1.561   8.675  19.635  0.00  0.00    +0.000 A 
ENDROOT
BRANCH   1  11
ATOM      6  C   UNL     1       1.770  14.680  19.023  0.00  0.00    +0.000 C 
ATOM      7  C   UNL     1       0.955  13.442  18.785  0.00  0.00    +0.000 A 
ATOM      8  C   UNL     1      -0.419  13.526  18.544  0.00  0.00    +0.000 A 
ATOM      9  C   UNL     1      -1.170  12.366  18.362  0.00  0.00    +0.000 A 
ATOM     10  C   UNL     1      -0.553  11.115  18.411  0.00  0.00    +0.000 A 
ATOM     11  C   UNL     1       0.830  11.001  18.618  0.00  0.00    +0.000 A 
ATOM     12  C   UNL     1       1.571  12.179  18.809  0.00  0.00    +0.000 A 
ENDBRANCH   1  11
BRANCH   4  13
ATOM     13  N   UNL     1       2.827   6.491  19.877  0.00  0.00    +0.000 N 
ATOM     14  C   UNL     1       2.375   5.255  19.424  0.00  0.00    +0.000 C 
ATOM     15  O   UNL     1       1.588   5.077  18.499  0.00  0.00    +0.000 OA
ATOM     16  H   UNL     1       2.971   6.530  20.880  0.00  0.00    +0.000 HD
BRANCH  14  17
ATOM     17  C   UNL     1       2.885   4.086  20.190  0.00  0.00    +0.000 A 
ATOM     18  C   UNL     1       2.214   3.680  21.335  0.00  0.00    +0.000 A 
ATOM     19  N   UNL     1       2.544   2.546  22.004  0.00  0.00    +0.000 NA
ATOM     20  C   UNL     1       3.569   1.840  21.475  0.00  0.00    +0.000 A 
ATOM     21  C   UNL     1       4.261   2.263  20.352  0.00  0.00    +0.000 A 
ATOM     22  N   UNL     1       3.949   3.400  19.679  0.00  0.00    +0.000 NA
ENDBRANCH  14  17
ENDBRANCH   4  13
BRANCH   5  23
ATOM     23  C   UNL     1       0.777   8.707  20.873  0.00  0.00    +0.000 C 
ATOM     24  O   UNL     1       0.134   7.742  21.270  0.00  0.00    +0.000 OA
BRANCH  23  25
ATOM     25  O   UNL     1       0.840   9.890  21.546  0.00  0.00    +0.000 OA
BRANCH  25  26
ATOM     26  C   UNL     1      -0.406  10.393  22.054  0.00  0.00    +0.000 C 
ATOM     27  C   UNL     1      -0.601   9.877  23.473  0.00  0.00    +0.000 C 
ATOM     28  C   UNL     1      -0.330  11.914  22.036  0.00  0.00    +0.000 C 
ENDBRANCH  25  26
ENDBRANCH  23  25
ENDBRANCH   5  23
TORSDOF 6
ENDMDL
MODEL 4
REMARK VINA RESULT:      -6.1      3.517      8.105
REMARK  Name = 
REMARK  9 active torsions:
REMARK  status: ('A' for Active; 'I' for Inactive)
REMARK    1  A    between atoms: C_1  and  C_2
REMARK    2  A    between atoms: C_6  and  C_7
REMARK    3  A    between atoms: C_10  and  N_11
REMARK    4  A    between atoms: C_12  and  C_14
REMARK    5  A    between atoms: C_20  and  C_21
REMARK    6  A    between atoms: C_21  and  O_23
REMARK    7  A    between atoms: O_23  and  C_24
REMARK    8  A    between atoms: C_24  and  C_25
REMARK    9  A    between atoms: C_24  and  C_26
REMARK                            x       y       z     vdW  Elec       q    Type
REMARK                         _______ _______ _______ _____ _____    ______ ____
ROOT
ATOM      1  C   UNL     1       0.527   9.472  20.830  0.00  0.00    +0.000 A 
ATOM      2  C   UNL     1       0.484   9.142  22.176  0.00  0.00    +0.000 A 
ATOM      3  S   UNL     1      -0.573  10.140  23.072  0.00  0.00    +0.000 S 
ATOM      4  C   UNL     1      -0.849  11.130  21.723  0.00  0.00    +0.000 A 
ATOM      5  C   UNL     1      -0.309  10.630  20.548  0.00  0.00    +0.000 A 
ENDROOT
BRANCH   1  11
ATOM      6  C   UNL     1       3.142   5.313  19.799  0.00  0.00    +0.000 C 
ATOM      7  C   UNL     1       2.615   6.652  19.373  0.00  0.00    +0.000 A 
ATOM      8  C   UNL     1       2.876   7.150  18.094  0.00  0.00    +0.000 A 
ATOM      9  C   UNL     1       2.412   8.411  17.725  0.00  0.00    +0.000 A 
ATOM     10  C   UNL     1       1.677   9.181  18.628  0.00  0.00    +0.000 A 
ATOM     11  C   UNL     1       1.370   8.694  19.907  0.00  0.00    +0.000 A 
ATOM     12  C   UNL     1       1.853   7.424  20.267  0.00  0.00    +0.000 A 
ENDBRANCH   1  11
BRANCH   4  13
ATOM     13  N   UNL     1      -1.624  12.236  22.005  0.00  0.00    +0.000 N 
ATOM     14  C   UNL     1      -0.986  13.419  22.365  0.00  0.00    +0.000 C 
ATOM     15  O   UNL     1       0.227  13.573  22.471  0.00  0.00    +0.000 OA
ATOM     16  H   UNL     1      -2.511  12.092  22.475  0.00  0.00    +0.000 HD
BRANCH  14  17
ATOM     17  C   UNL     1      -1.900  14.550  22.679  0.00  0.00    +0.000 A 
ATOM     18  C   UNL     1      -3.152  14.597  22.081  0.00  0.00    +0.000 A 
ATOM     19  N   UNL     1      -4.084  15.522  22.423  0.00  0.00    +0.000 NA
ATOM     20  C   UNL     1      -3.708  16.391  23.388  0.00  0.00    +0.000 A 
ATOM     21  C   UNL     1      -2.448  16.366  23.962  0.00  0.00    +0.000 A 
ATOM     22  N   UNL     1      -1.502  15.453  23.622  0.00  0.00    +0.000 NA
ENDBRANCH  14  17
ENDBRANCH   4  13
BRANCH   5  23
ATOM     23  C   UNL     1      -0.629  11.114  19.203  0.00  0.00    +0.000 C 
ATOM     24  O   UNL     1      -0.132  12.132  18.734  0.00  0.00    +0.000 OA
BRANCH  23  25
ATOM     25  O   UNL     1      -1.506  10.329  18.518  0.00  0.00    +0.000 OA
BRANCH  25  26
ATOM     26  C   UNL     1      -2.285  10.988  17.506  0.00  0.00    +0.000 C 
ATOM     27  C   UNL     1      -2.595   9.991  16.398  0.00  0.00    +0.000 C 
ATOM     28  C   UNL     1      -3.567  11.485  18.163  0.00  0.00    +0.000 C 
ENDBRANCH  25  26
ENDBRANCH  23  25
ENDBRANCH   5  23
TORSDOF 6
ENDMDL
MODEL 5
REMARK VINA RESULT:      -6.0      2.816      7.945
REMARK  Name = 
REMARK  9 active torsions:
REMARK  status: ('A' for Active; 'I' for Inactive)
REMARK    1  A    between atoms: C_1  and  C_2
REMARK    2  A    between atoms: C_6  and  C_7
REMARK    3  A    between atoms: C_10  and  N_11
REMARK    4  A    between atoms: C_12  and  C_14
REMARK    5  A    between atoms: C_20  and  C_21
REMARK    6  A    between atoms: C_21  and  O_23
REMARK    7  A    between atoms: O_23  and  C_24
REMARK    8  A    between atoms: C_24  and  C_25
REMARK    9  A    between atoms: C_24  and  C_26
REMARK                            x       y       z     vdW  Elec       q    Type
REMARK                         _______ _______ _______ _____ _____    ______ ____
ROOT
ATOM      1  C   UNL     1       0.994   8.809  20.807  0.00  0.00    +0.000 A 
ATOM      2  C   UNL     1       0.612   8.671  22.133  0.00  0.00    +0.000 A 
ATOM      3  S   UNL     1      -0.158  10.064  22.752  0.00  0.00    +0.000 S 
ATOM      4  C   UNL     1       0.164  10.926  21.327  0.00  0.00    +0.000 A 
ATOM      5  C   UNL     1       0.680  10.141  20.308  0.00  0.00    +0.000 A 
ENDROOT
BRANCH   1  11
ATOM      6  C   UNL     1       2.151   3.931  20.552  0.00  0.00    +0.000 C 
ATOM      7  C   UNL     1       2.185   5.305  19.949  0.00  0.00    +0.000 A 
ATOM      8  C   UNL     1       2.791   5.528  18.711  0.00  0.00    +0.000 A 
ATOM      9  C   UNL     1       2.849   6.815  18.180  0.00  0.00    +0.000 A 
ATOM     10  C   UNL     1       2.294   7.888  18.879  0.00  0.00    +0.000 A 
ATOM     11  C   UNL     1       1.649   7.690  20.109  0.00  0.00    +0.000 A 
ATOM     12  C   UNL     1       1.607   6.388  20.635  0.00  0.00    +0.000 A 
ENDBRANCH   1  11
BRANCH   4  13
ATOM     13  N   UNL     1      -0.206  12.253  21.394  0.00  0.00    +0.000 N 
ATOM     14  C   UNL     1       0.793  13.222  21.379  0.00  0.00    +0.000 C 
ATOM     15  O   UNL     1       2.000  13.003  21.323  0.00  0.00    +0.000 OA
ATOM     16  H   UNL     1      -1.004  12.500  21.970  0.00  0.00    +0.000 HD
BRANCH  14  17
ATOM     17  C   UNL     1       0.305  14.623  21.485  0.00  0.00    +0.000 A 
ATOM     18  C   UNL     1      -0.216  15.247  20.360  0.00  0.00    +0.000 A 
ATOM     19  N   UNL     1      -0.800  16.470  20.415  0.00  0.00    +0.000 NA
ATOM     20  C   UNL     1      -0.840  17.037  21.642  0.00  0.00    +0.000 A 
ATOM     21  C   UNL     1      -0.290  16.429  22.760  0.00  0.00    +0.000 A 
ATOM     22  N   UNL     1       0.306  15.211  22.717  0.00  0.00    +0.000 NA
ENDBRANCH  14  17
ENDBRANCH   4  13
BRANCH   5  23
ATOM     23  C   UNL     1       0.783  10.544  18.903  0.00  0.00    +0.000 C 
ATOM     24  O   UNL     1       1.700  11.242  18.484  0.00  0.00    +0.000 OA
BRANCH  23  25
ATOM     25  O   UNL     1      -0.214  10.066  18.108  0.00  0.00    +0.000 OA
BRANCH  25  26
ATOM     26  C   UNL     1      -1.525  10.604  18.348  0.00  0.00    +0.000 C 
ATOM     27  C   UNL     1      -1.520  12.085  17.996  0.00  0.00    +0.000 C 
ATOM     28  C   UNL     1      -2.504   9.839  17.465  0.00  0.00    +0.000 C 
ENDBRANCH  25  26
ENDBRANCH  23  25
ENDBRANCH   5  23
TORSDOF 6
ENDMDL
MODEL 6
REMARK VINA RESULT:      -6.0      3.157      8.027
REMARK  Name = 
REMARK  9 active torsions:
REMARK  status: ('A' for Active; 'I' for Inactive)
REMARK    1  A    between atoms: C_1  and  C_2
REMARK    2  A    between atoms: C_6  and  C_7
REMARK    3  A    between atoms: C_10  and  N_11
REMARK    4  A    between atoms: C_12  and  C_14
REMARK    5  A    between atoms: C_20  and  C_21
REMARK    6  A    between atoms: C_21  and  O_23
REMARK    7  A    between atoms: O_23  and  C_24
REMARK    8  A    between atoms: C_24  and  C_25
REMARK    9  A    between atoms: C_24  and  C_26
REMARK                            x       y       z     vdW  Elec       q    Type
REMARK                         _______ _______ _______ _____ _____    ______ ____
ROOT
ATOM      1  C   UNL     1       0.937   9.013  20.696  0.00  0.00    +0.000 A 
ATOM      2  C   UNL     1       0.850   8.678  22.040  0.00  0.00    +0.000 A 
ATOM      3  S   UNL     1      -0.165   9.728  22.923  0.00  0.00    +0.000 S 
ATOM      4  C   UNL     1      -0.359  10.741  21.576  0.00  0.00    +0.000 A 
ATOM      5  C   UNL     1       0.173  10.219  20.408  0.00  0.00    +0.000 A 
ENDROOT
BRANCH   1  11
ATOM      6  C   UNL     1       3.308   4.708  19.673  0.00  0.00    +0.000 C 
ATOM      7  C   UNL     1       2.877   6.083  19.252  0.00  0.00    +0.000 A 
ATOM      8  C   UNL     1       3.200   6.578  17.987  0.00  0.00    +0.000 A 
ATOM      9  C   UNL     1       2.825   7.870  17.623  0.00  0.00    +0.000 A 
ATOM     10  C   UNL     1       2.118   8.675  18.518  0.00  0.00    +0.000 A 
ATOM     11  C   UNL     1       1.751   8.193  19.784  0.00  0.00    +0.000 A 
ATOM     12  C   UNL     1       2.144   6.892  20.139  0.00  0.00    +0.000 A 
ENDBRANCH   1  11
BRANCH   4  13
ATOM     13  N   UNL     1      -1.075  11.888  21.852  0.00  0.00    +0.000 N 
ATOM     14  C   UNL     1      -0.387  13.095  21.938  0.00  0.00    +0.000 C 
ATOM     15  O   UNL     1       0.824  13.238  21.802  0.00  0.00    +0.000 OA
ATOM     16  H   UNL     1      -1.861  11.820  22.489  0.00  0.00    +0.000 HD
BRANCH  14  17
ATOM     17  C   UNL     1      -1.234  14.273  22.267  0.00  0.00    +0.000 A 
ATOM     18  C   UNL     1      -1.117  14.864  23.517  0.00  0.00    +0.000 A 
ATOM     19  N   UNL     1      -1.757  16.017  23.836  0.00  0.00    +0.000 NA
ATOM     20  C   UNL     1      -2.514  16.549  22.850  0.00  0.00    +0.000 A 
ATOM     21  C   UNL     1      -2.658  15.942  21.614  0.00  0.00    +0.000 A 
ATOM     22  N   UNL     1      -2.032  14.783  21.285  0.00  0.00    +0.000 NA
ENDBRANCH  14  17
ENDBRANCH   4  13
BRANCH   5  23
ATOM     23  C   UNL     1      -0.093  10.728  19.060  0.00  0.00    +0.000 C 
ATOM     24  O   UNL     1       0.544  11.654  18.569  0.00  0.00    +0.000 OA
BRANCH  23  25
ATOM     25  O   UNL     1      -1.091  10.077  18.401  0.00  0.00    +0.000 OA
BRANCH  25  26
ATOM     26  C   UNL     1      -1.936  10.891  17.572  0.00  0.00    +0.000 C 
ATOM     27  C   UNL     1      -2.591  10.007  16.520  0.00  0.00    +0.000 C 
ATOM     28  C   UNL     1      -2.985  11.531  18.473  0.00  0.00    +0.000 C 
ENDBRANCH  25  26
ENDBRANCH  23  25
ENDBRANCH   5  23
TORSDOF 6
ENDMDL
MODEL 7
REMARK VINA RESULT:      -6.0      2.826      8.989
REMARK  Name = 
REMARK  9 active torsions:
REMARK  status: ('A' for Active; 'I' for Inactive)
REMARK    1  A    between atoms: C_1  and  C_2
REMARK    2  A    between atoms: C_6  and  C_7
REMARK    3  A    between atoms: C_10  and  N_11
REMARK    4  A    between atoms: C_12  and  C_14
REMARK    5  A    between atoms: C_20  and  C_21
REMARK    6  A    between atoms: C_21  and  O_23
REMARK    7  A    between atoms: O_23  and  C_24
REMARK    8  A    between atoms: C_24  and  C_25
REMARK    9  A    between atoms: C_24  and  C_26
REMARK                            x       y       z     vdW  Elec       q    Type
REMARK                         _______ _______ _______ _____ _____    ______ ____
ROOT
ATOM      1  C   UNL     1       2.077   5.799  19.622  0.00  0.00    +0.000 A 
ATOM      2  C   UNL     1       1.164   5.914  20.660  0.00  0.00    +0.000 A 
ATOM      3  S   UNL     1       0.713   7.531  20.973  0.00  0.00    +0.000 S 
ATOM      4  C   UNL     1       1.853   8.109  19.858  0.00  0.00    +0.000 A 
ATOM      5  C   UNL     1       2.452   7.110  19.108  0.00  0.00    +0.000 A 
ENDROOT
BRANCH   1  11
ATOM      6  C   UNL     1       4.846   1.704  20.495  0.00  0.00    +0.000 C 
ATOM      7  C   UNL     1       3.865   2.448  19.635  0.00  0.00    +0.000 A 
ATOM      8  C   UNL     1       3.364   1.876  18.464  0.00  0.00    +0.000 A 
ATOM      9  C   UNL     1       2.484   2.592  17.655  0.00  0.00    +0.000 A 
ATOM     10  C   UNL     1       2.091   3.883  18.015  0.00  0.00    +0.000 A 
ATOM     11  C   UNL     1       2.553   4.471  19.202  0.00  0.00    +0.000 A 
ATOM     12  C   UNL     1       3.447   3.739  20.002  0.00  0.00    +0.000 A 
ENDBRANCH   1  11
BRANCH   4  13
ATOM     13  N   UNL     1       1.946   9.485  19.834  0.00  0.00    +0.000 N 
ATOM     14  C   UNL     1       1.091  10.193  18.994  0.00  0.00    +0.000 C 
ATOM     15  O   UNL     1       0.253   9.699  18.246  0.00  0.00    +0.000 OA
ATOM     16  H   UNL     1       2.864   9.906  19.929  0.00  0.00    +0.000 HD
BRANCH  14  17
ATOM     17  C   UNL     1       1.281  11.668  19.010  0.00  0.00    +0.000 A 
ATOM     18  C   UNL     1       2.314  12.228  18.270  0.00  0.00    +0.000 A 
ATOM     19  N   UNL     1       2.462  13.570  18.132  0.00  0.00    +0.000 NA
ATOM     20  C   UNL     1       1.533  14.322  18.765  0.00  0.00    +0.000 A 
ATOM     21  C   UNL     1       0.523  13.765  19.532  0.00  0.00    +0.000 A 
ATOM     22  N   UNL     1       0.369  12.425  19.687  0.00  0.00    +0.000 NA
ENDBRANCH  14  17
ENDBRANCH   4  13
BRANCH   5  23
ATOM     23  C   UNL     1       3.246   7.327  17.896  0.00  0.00    +0.000 C 
ATOM     24  O   UNL     1       2.897   8.099  17.009  0.00  0.00    +0.000 OA
BRANCH  23  25
ATOM     25  O   UNL     1       4.406   6.615  17.850  0.00  0.00    +0.000 OA
BRANCH  25  26
ATOM     26  C   UNL     1       5.213   6.799  16.675  0.00  0.00    +0.000 C 
ATOM     27  C   UNL     1       6.646   7.082  17.104  0.00  0.00    +0.000 C 
ATOM     28  C   UNL     1       5.135   5.515  15.858  0.00  0.00    +0.000 C 
ENDBRANCH  25  26
ENDBRANCH  23  25
ENDBRANCH   5  23
TORSDOF 6
ENDMDL
MODEL 8
REMARK VINA RESULT:      -6.0      3.037      8.401
REMARK  Name = 
REMARK  9 active torsions:
REMARK  status: ('A' for Active; 'I' for Inactive)
REMARK    1  A    between atoms: C_1  and  C_2
REMARK    2  A    between atoms: C_6  and  C_7
REMARK    3  A    between atoms: C_10  and  N_11
REMARK    4  A    between atoms: C_12  and  C_14
REMARK    5  A    between atoms: C_20  and  C_21
REMARK    6  A    between atoms: C_21  and  O_23
REMARK    7  A    between atoms: O_23  and  C_24
REMARK    8  A    between atoms: C_24  and  C_25
REMARK    9  A    between atoms: C_24  and  C_26
REMARK                            x       y       z     vdW  Elec       q    Type
REMARK                         _______ _______ _______ _____ _____    ______ ____
ROOT
ATOM      1  C   UNL     1       2.712   7.237  18.192  0.00  0.00    +0.000 A 
ATOM      2  C   UNL     1       2.837   8.343  17.363  0.00  0.00    +0.000 A 
ATOM      3  S   UNL     1       2.202   9.768  18.056  0.00  0.00    +0.000 S 
ATOM      4  C   UNL     1       1.596   8.903  19.384  0.00  0.00    +0.000 A 
ATOM      5  C   UNL     1       2.015   7.582  19.423  0.00  0.00    +0.000 A 
ENDROOT
BRANCH   1  11
ATOM      6  C   UNL     1       6.598   4.284  17.018  0.00  0.00    +0.000 C 
ATOM      7  C   UNL     1       5.122   4.464  17.225  0.00  0.00    +0.000 A 
ATOM      8  C   UNL     1       4.240   3.394  17.055  0.00  0.00    +0.000 A 
ATOM      9  C   UNL     1       2.868   3.585  17.213  0.00  0.00    +0.000 A 
ATOM     10  C   UNL     1       2.369   4.845  17.549  0.00  0.00    +0.000 A 
ATOM     11  C   UNL     1       3.233   5.930  17.759  0.00  0.00    +0.000 A 
ATOM     12  C   UNL     1       4.612   5.723  17.587  0.00  0.00    +0.000 A 
ENDBRANCH   1  11
BRANCH   4  13
ATOM     13  N   UNL     1       0.843   9.676  20.243  0.00  0.00    +0.000 N 
ATOM     14  C   UNL     1      -0.355  10.210  19.777  0.00  0.00    +0.000 C 
ATOM     15  O   UNL     1      -0.809  10.067  18.646  0.00  0.00    +0.000 OA
ATOM     16  H   UNL     1       1.330  10.277  20.899  0.00  0.00    +0.000 HD
BRANCH  14  17
ATOM     17  C   UNL     1      -1.086  11.053  20.761  0.00  0.00    +0.000 A 
ATOM     18  C   UNL     1      -0.778  10.943  22.110  0.00  0.00    +0.000 A 
ATOM     19  N   UNL     1      -1.307  11.773  23.044  0.00  0.00    +0.000 NA
ATOM     20  C   UNL     1      -2.153  12.714  22.568  0.00  0.00    +0.000 A 
ATOM     21  C   UNL     1      -2.487  12.803  21.226  0.00  0.00    +0.000 A 
ATOM     22  N   UNL     1      -1.973  11.973  20.282  0.00  0.00    +0.000 NA
ENDBRANCH  14  17
ENDBRANCH   4  13
BRANCH   5  23
ATOM     23  C   UNL     1       1.888   6.693  20.580  0.00  0.00    +0.000 C 
ATOM     24  O   UNL     1       1.157   6.949  21.531  0.00  0.00    +0.000 OA
BRANCH  23  25
ATOM     25  O   UNL     1       2.635   5.557  20.500  0.00  0.00    +0.000 OA
BRANCH  25  26
ATOM     26  C   UNL     1       2.063   4.381  21.096  0.00  0.00    +0.000 C 
ATOM     27  C   UNL     1       0.784   4.026  20.350  0.00  0.00    +0.000 C 
ATOM     28  C   UNL     1       3.089   3.261  20.980  0.00  0.00    +0.000 C 
ENDBRANCH  25  26
ENDBRANCH  23  25
ENDBRANCH   5  23
TORSDOF 6
ENDMDL
MODEL 9
REMARK VINA RESULT:      -5.9      4.084      8.461
REMARK  Name = 
REMARK  9 active torsions:
REMARK  status: ('A' for Active; 'I' for Inactive)
REMARK    1  A    between atoms: C_1  and  C_2
REMARK    2  A    between atoms: C_6  and  C_7
REMARK    3  A    between atoms: C_10  and  N_11
REMARK    4  A    between atoms: C_12  and  C_14
REMARK    5  A    between atoms: C_20  and  C_21
REMARK    6  A    between atoms: C_21  and  O_23
REMARK    7  A    between atoms: O_23  and  C_24
REMARK    8  A    between atoms: C_24  and  C_25
REMARK    9  A    between atoms: C_24  and  C_26
REMARK                            x       y       z     vdW  Elec       q    Type
REMARK                         _______ _______ _______ _____ _____    ______ ____
ROOT
ATOM      1  C   UNL     1      -0.139  11.085  20.085  0.00  0.00    +0.000 A 
ATOM      2  C   UNL     1       0.212  11.803  21.219  0.00  0.00    +0.000 A 
ATOM      3  S   UNL     1      -0.965  12.955  21.667  0.00  0.00    +0.000 S 
ATOM      4  C   UNL     1      -1.868  12.640  20.266  0.00  0.00    +0.000 A 
ATOM      5  C   UNL     1      -1.408  11.550  19.543  0.00  0.00    +0.000 A 
ENDROOT
BRANCH   1  11
ATOM      6  C   UNL     1       1.996   6.572  20.616  0.00  0.00    +0.000 C 
ATOM      7  C   UNL     1       1.769   7.812  19.800  0.00  0.00    +0.000 A 
ATOM      8  C   UNL     1       2.359   7.958  18.543  0.00  0.00    +0.000 A 
ATOM      9  C   UNL     1       2.171   9.130  17.812  0.00  0.00    +0.000 A 
ATOM     10  C   UNL     1       1.385  10.162  18.330  0.00  0.00    +0.000 A 
ATOM     11  C   UNL     1       0.753  10.030  19.576  0.00  0.00    +0.000 A 
ATOM     12  C   UNL     1       0.960   8.846  20.303  0.00  0.00    +0.000 A 
ENDBRANCH   1  11
BRANCH   4  13
ATOM     13  N   UNL     1      -2.954  13.477  20.114  0.00  0.00    +0.000 N 
ATOM     14  C   UNL     1      -4.129  13.170  20.795  0.00  0.00    +0.000 C 
ATOM     15  O   UNL     1      -4.299  12.197  21.524  0.00  0.00    +0.000 OA
ATOM     16  H   UNL     1      -3.108  13.902  19.207  0.00  0.00    +0.000 HD
BRANCH  14  17
ATOM     17  C   UNL     1      -5.255  14.110  20.550  0.00  0.00    +0.000 A 
ATOM     18  C   UNL     1      -5.005  15.475  20.518  0.00  0.00    +0.000 A 
ATOM     19  N   UNL     1      -5.956  16.377  20.168  0.00  0.00    +0.000 NA
ATOM     20  C   UNL     1      -7.161  15.853  19.851  0.00  0.00    +0.000 A 
ATOM     21  C   UNL     1      -7.421  14.494  19.915  0.00  0.00    +0.000 A 
ATOM     22  N   UNL     1      -6.483  13.581  20.274  0.00  0.00    +0.000 NA
ENDBRANCH  14  17
ENDBRANCH   4  13
BRANCH   5  23
ATOM     23  C   UNL     1      -2.145  10.881  18.468  0.00  0.00    +0.000 C 
ATOM     24  O   UNL     1      -2.095   9.668  18.292  0.00  0.00    +0.000 OA
BRANCH  23  25
ATOM     25  O   UNL     1      -2.897  11.715  17.699  0.00  0.00    +0.000 OA
BRANCH  25  26
ATOM     26  C   UNL     1      -3.971  11.103  16.967  0.00  0.00    +0.000 C 
ATOM     27  C   UNL     1      -5.201  11.995  17.060  0.00  0.00    +0.000 C 
ATOM     28  C   UNL     1      -3.516  10.955  15.520  0.00  0.00    +0.000 C 
ENDBRANCH  25  26
ENDBRANCH  23  25
ENDBRANCH   5  23
TORSDOF 6
ENDMDL
