MODEL 1
REMARK VINA RESULT:      -7.3      0.000      0.000
REMARK  Name = 
REMARK  4 active torsions:
REMARK  status: ('A' for Active; 'I' for Inactive)
REMARK    1  A    between atoms: C_1  and  C_2
REMARK    2  A    between atoms: C_5  and  C_6
REMARK    3  A    between atoms: N_7  and  N_8
REMARK    4  A    between atoms: C_9  and  C_11
REMARK                            x       y       z     vdW  Elec       q    Type
REMARK                         _______ _______ _______ _____ _____    ______ ____
ROOT
ATOM      1  N   UNL     1       4.663   4.569  17.380  0.00  0.00    +0.000 NA
ATOM      2  C   UNL     1       3.648   5.273  17.764  0.00  0.00    +0.000 C 
ATOM      3  N   UNL     1       3.458   6.625  17.653  0.00  0.00    +0.000 N 
ATOM      4  H   UNL     1       4.306   7.179  17.702  0.00  0.00    +0.000 HD
ATOM      5  H   UNL     1       2.736   7.023  18.249  0.00  0.00    +0.000 HD
ENDROOT
BRANCH   1  12
ATOM      6  C   UNL     1       5.389   4.333  14.228  0.00  0.00    +0.000 C 
ATOM      7  C   UNL     1       6.091   5.018  15.335  0.00  0.00    +0.000 A 
ATOM      8  N   UNL     1       7.256   5.620  15.192  0.00  0.00    +0.000 NA
ATOM      9  N   UNL     1       7.701   6.005  16.424  0.00  0.00    +0.000 NA
ATOM     10  C   UNL     1       6.795   5.646  17.303  0.00  0.00    +0.000 A 
ATOM     11  C   UNL     1       6.856   5.842  18.769  0.00  0.00    +0.000 C 
ATOM     12  N   UNL     1       5.710   5.061  16.669  0.00  0.00    +0.000 N 
ENDBRANCH   1  12
BRANCH   2  13
ATOM     13  C   UNL     1       2.597   4.493  18.507  0.00  0.00    +0.000 A 
ATOM     14  C   UNL     1       2.181   4.941  19.769  0.00  0.00    +0.000 A 
ATOM     15  C   UNL     1       1.224   4.226  20.488  0.00  0.00    +0.000 A 
ATOM     16  C   UNL     1       0.680   3.062  19.952  0.00  0.00    +0.000 A 
ATOM     17  C   UNL     1       1.083   2.618  18.689  0.00  0.00    +0.000 A 
ATOM     18  C   UNL     1       2.039   3.332  17.962  0.00  0.00    +0.000 A 
ENDBRANCH   2  13
TORSDOF 2
ENDMDL
MODEL 2
REMARK VINA RESULT:      -7.3      0.126      1.210
REMARK  Name = 
REMARK  4 active torsions:
REMARK  status: ('A' for Active; 'I' for Inactive)
REMARK    1  A    between atoms: C_1  and  C_2
REMARK    2  A    between atoms: C_5  and  C_6
REMARK    3  A    between atoms: N_7  and  N_8
REMARK    4  A    between atoms: C_9  and  C_11
REMARK                            x       y       z     vdW  Elec       q    Type
REMARK                         _______ _______ _______ _____ _____    ______ ____
ROOT
ATOM      1  N   UNL     1       4.706   4.575  17.488  0.00  0.00    +0.000 NA
ATOM      2  C   UNL     1       3.661   5.257  17.829  0.00  0.00    +0.000 C 
ATOM      3  N   UNL     1       3.415   6.591  17.643  0.00  0.00    +0.000 N 
ATOM      4  H   UNL     1       4.238   7.182  17.662  0.00  0.00    +0.000 HD
ATOM      5  H   UNL     1       2.674   6.991  18.214  0.00  0.00    +0.000 HD
ENDROOT
BRANCH   1  12
ATOM      6  C   UNL     1       5.363   4.335  14.321  0.00  0.00    +0.000 C 
ATOM      7  C   UNL     1       6.085   5.026  15.411  0.00  0.00    +0.000 A 
ATOM      8  N   UNL     1       7.245   5.634  15.240  0.00  0.00    +0.000 NA
ATOM      9  N   UNL     1       7.715   6.024  16.460  0.00  0.00    +0.000 NA
ATOM     10  C   UNL     1       6.830   5.662  17.360  0.00  0.00    +0.000 A 
ATOM     11  C   UNL     1       6.922   5.863  18.824  0.00  0.00    +0.000 C 
ATOM     12  N   UNL     1       5.734   5.071  16.753  0.00  0.00    +0.000 N 
ENDBRANCH   1  12
BRANCH   2  13
ATOM     13  C   UNL     1       2.640   4.476  18.613  0.00  0.00    +0.000 A 
ATOM     14  C   UNL     1       1.971   3.412  17.991  0.00  0.00    +0.000 A 
ATOM     15  C   UNL     1       1.007   2.684  18.687  0.00  0.00    +0.000 A 
ATOM     16  C   UNL     1       0.706   3.016  20.006  0.00  0.00    +0.000 A 
ATOM     17  C   UNL     1       1.380   4.068  20.634  0.00  0.00    +0.000 A 
ATOM     18  C   UNL     1       2.349   4.797  19.943  0.00  0.00    +0.000 A 
ENDBRANCH   2  13
TORSDOF 2
ENDMDL
MODEL 3
REMARK VINA RESULT:      -7.3      0.917      2.296
REMARK  Name = 
REMARK  4 active torsions:
REMARK  status: ('A' for Active; 'I' for Inactive)
REMARK    1  A    between atoms: C_1  and  C_2
REMARK    2  A    between atoms: C_5  and  C_6
REMARK    3  A    between atoms: N_7  and  N_8
REMARK    4  A    between atoms: C_9  and  C_11
REMARK                            x       y       z     vdW  Elec       q    Type
REMARK                         _______ _______ _______ _____ _____    ______ ____
ROOT
ATOM      1  N   UNL     1       4.760   4.853  17.163  0.00  0.00    +0.000 NA
ATOM      2  C   UNL     1       4.719   4.167  18.260  0.00  0.00    +0.000 C 
ATOM      3  N   UNL     1       5.752   3.566  18.928  0.00  0.00    +0.000 N 
ATOM      4  H   UNL     1       6.505   3.233  18.336  0.00  0.00    +0.000 HD
ATOM      5  H   UNL     1       5.489   2.855  19.606  0.00  0.00    +0.000 HD
ENDROOT
BRANCH   1  12
ATOM      6  C   UNL     1       7.166   6.844  18.042  0.00  0.00    +0.000 C 
ATOM      7  C   UNL     1       6.980   6.026  16.823  0.00  0.00    +0.000 A 
ATOM      8  N   UNL     1       7.811   6.056  15.798  0.00  0.00    +0.000 NA
ATOM      9  N   UNL     1       7.274   5.319  14.782  0.00  0.00    +0.000 NA
ATOM     10  C   UNL     1       6.128   4.837  15.205  0.00  0.00    +0.000 A 
ATOM     11  C   UNL     1       5.186   3.991  14.437  0.00  0.00    +0.000 C 
ATOM     12  N   UNL     1       5.906   5.201  16.523  0.00  0.00    +0.000 N 
ENDBRANCH   1  12
BRANCH   2  13
ATOM     13  C   UNL     1       3.332   3.940  18.797  0.00  0.00    +0.000 A 
ATOM     14  C   UNL     1       2.975   4.513  20.027  0.00  0.00    +0.000 A 
ATOM     15  C   UNL     1       1.702   4.301  20.557  0.00  0.00    +0.000 A 
ATOM     16  C   UNL     1       0.783   3.518  19.864  0.00  0.00    +0.000 A 
ATOM     17  C   UNL     1       1.131   2.955  18.632  0.00  0.00    +0.000 A 
ATOM     18  C   UNL     1       2.402   3.167  18.094  0.00  0.00    +0.000 A 
ENDBRANCH   2  13
TORSDOF 2
ENDMDL
MODEL 4
REMARK VINA RESULT:      -7.3      0.918      2.589
REMARK  Name = 
REMARK  4 active torsions:
REMARK  status: ('A' for Active; 'I' for Inactive)
REMARK    1  A    between atoms: C_1  and  C_2
REMARK    2  A    between atoms: C_5  and  C_6
REMARK    3  A    between atoms: N_7  and  N_8
REMARK    4  A    between atoms: C_9  and  C_11
REMARK                            x       y       z     vdW  Elec       q    Type
REMARK                         _______ _______ _______ _____ _____    ______ ____
ROOT
ATOM      1  N   UNL     1       4.733   4.793  17.194  0.00  0.00    +0.000 NA
ATOM      2  C   UNL     1       4.709   4.126  18.303  0.00  0.00    +0.000 C 
ATOM      3  N   UNL     1       5.758   3.572  18.987  0.00  0.00    +0.000 N 
ATOM      4  H   UNL     1       6.524   3.254  18.406  0.00  0.00    +0.000 HD
ATOM      5  H   UNL     1       5.514   2.865  19.676  0.00  0.00    +0.000 HD
ENDROOT
BRANCH   1  12
ATOM      6  C   UNL     1       7.083   6.851  18.066  0.00  0.00    +0.000 C 
ATOM      7  C   UNL     1       6.922   6.023  16.852  0.00  0.00    +0.000 A 
ATOM      8  N   UNL     1       7.752   6.071  15.827  0.00  0.00    +0.000 NA
ATOM      9  N   UNL     1       7.237   5.315  14.814  0.00  0.00    +0.000 NA
ATOM     10  C   UNL     1       6.104   4.804  15.238  0.00  0.00    +0.000 A 
ATOM     11  C   UNL     1       5.185   3.930  14.473  0.00  0.00    +0.000 C 
ATOM     12  N   UNL     1       5.870   5.169  16.553  0.00  0.00    +0.000 N 
ENDBRANCH   1  12
BRANCH   2  13
ATOM     13  C   UNL     1       3.326   3.861  18.837  0.00  0.00    +0.000 A 
ATOM     14  C   UNL     1       2.445   3.071  18.084  0.00  0.00    +0.000 A 
ATOM     15  C   UNL     1       1.152   2.826  18.545  0.00  0.00    +0.000 A 
ATOM     16  C   UNL     1       0.734   3.370  19.757  0.00  0.00    +0.000 A 
ATOM     17  C   UNL     1       1.613   4.148  20.516  0.00  0.00    +0.000 A 
ATOM     18  C   UNL     1       2.910   4.393  20.061  0.00  0.00    +0.000 A 
ENDBRANCH   2  13
TORSDOF 2
ENDMDL
MODEL 5
REMARK VINA RESULT:      -7.2      2.537      5.858
REMARK  Name = 
REMARK  4 active torsions:
REMARK  status: ('A' for Active; 'I' for Inactive)
REMARK    1  A    between atoms: C_1  and  C_2
REMARK    2  A    between atoms: C_5  and  C_6
REMARK    3  A    between atoms: N_7  and  N_8
REMARK    4  A    between atoms: C_9  and  C_11
REMARK                            x       y       z     vdW  Elec       q    Type
REMARK                         _______ _______ _______ _____ _____    ______ ____
ROOT
ATOM      1  N   UNL     1       3.625   4.818  18.869  0.00  0.00    +0.000 NA
ATOM      2  C   UNL     1       4.855   4.429  18.964  0.00  0.00    +0.000 C 
ATOM      3  N   UNL     1       5.340   3.250  19.463  0.00  0.00    +0.000 N 
ATOM      4  H   UNL     1       4.787   2.844  20.209  0.00  0.00    +0.000 HD
ATOM      5  H   UNL     1       6.328   3.243  19.705  0.00  0.00    +0.000 HD
ENDROOT
BRANCH   1  12
ATOM      6  C   UNL     1       2.563   2.077  17.497  0.00  0.00    +0.000 C 
ATOM      7  C   UNL     1       2.035   2.858  18.636  0.00  0.00    +0.000 A 
ATOM      8  N   UNL     1       0.911   2.559  19.261  0.00  0.00    +0.000 NA
ATOM      9  N   UNL     1       0.627   3.558  20.146  0.00  0.00    +0.000 NA
ATOM     10  C   UNL     1       1.588   4.449  20.061  0.00  0.00    +0.000 A 
ATOM     11  C   UNL     1       1.693   5.714  20.824  0.00  0.00    +0.000 C 
ATOM     12  N   UNL     1       2.552   4.036  19.157  0.00  0.00    +0.000 N 
ENDBRANCH   1  12
BRANCH   2  13
ATOM     13  C   UNL     1       5.866   5.466  18.554  0.00  0.00    +0.000 A 
ATOM     14  C   UNL     1       5.559   6.336  17.497  0.00  0.00    +0.000 A 
ATOM     15  C   UNL     1       6.486   7.293  17.082  0.00  0.00    +0.000 A 
ATOM     16  C   UNL     1       7.720   7.384  17.720  0.00  0.00    +0.000 A 
ATOM     17  C   UNL     1       8.025   6.528  18.782  0.00  0.00    +0.000 A 
ATOM     18  C   UNL     1       7.100   5.571  19.204  0.00  0.00    +0.000 A 
ENDBRANCH   2  13
TORSDOF 2
ENDMDL
MODEL 6
REMARK VINA RESULT:      -7.2      2.530      5.822
REMARK  Name = 
REMARK  4 active torsions:
REMARK  status: ('A' for Active; 'I' for Inactive)
REMARK    1  A    between atoms: C_1  and  C_2
REMARK    2  A    between atoms: C_5  and  C_6
REMARK    3  A    between atoms: N_7  and  N_8
REMARK    4  A    between atoms: C_9  and  C_11
REMARK                            x       y       z     vdW  Elec       q    Type
REMARK                         _______ _______ _______ _____ _____    ______ ____
ROOT
ATOM      1  N   UNL     1       3.628   4.828  18.865  0.00  0.00    +0.000 NA
ATOM      2  C   UNL     1       4.860   4.440  18.950  0.00  0.00    +0.000 C 
ATOM      3  N   UNL     1       5.349   3.265  19.454  0.00  0.00    +0.000 N 
ATOM      4  H   UNL     1       4.805   2.866  20.211  0.00  0.00    +0.000 HD
ATOM      5  H   UNL     1       6.340   3.259  19.685  0.00  0.00    +0.000 HD
ENDROOT
BRANCH   1  12
ATOM      6  C   UNL     1       2.561   2.065  17.544  0.00  0.00    +0.000 C 
ATOM      7  C   UNL     1       2.039   2.863  18.674  0.00  0.00    +0.000 A 
ATOM      8  N   UNL     1       0.920   2.572  19.311  0.00  0.00    +0.000 NA
ATOM      9  N   UNL     1       0.640   3.585  20.183  0.00  0.00    +0.000 NA
ATOM     10  C   UNL     1       1.600   4.476  20.077  0.00  0.00    +0.000 A 
ATOM     11  C   UNL     1       1.709   5.753  20.818  0.00  0.00    +0.000 C 
ATOM     12  N   UNL     1       2.559   4.050  19.172  0.00  0.00    +0.000 N 
ENDBRANCH   1  12
BRANCH   2  13
ATOM     13  C   UNL     1       5.866   5.472  18.518  0.00  0.00    +0.000 A 
ATOM     14  C   UNL     1       7.096   5.548  19.189  0.00  0.00    +0.000 A 
ATOM     15  C   UNL     1       8.038   6.508  18.822  0.00  0.00    +0.000 A 
ATOM     16  C   UNL     1       7.757   7.396  17.787  0.00  0.00    +0.000 A 
ATOM     17  C   UNL     1       6.538   7.316  17.108  0.00  0.00    +0.000 A 
ATOM     18  C   UNL     1       5.592   6.354  17.468  0.00  0.00    +0.000 A 
ENDBRANCH   2  13
TORSDOF 2
ENDMDL
MODEL 7
REMARK VINA RESULT:      -7.1      0.368      2.330
REMARK  Name = 
REMARK  4 active torsions:
REMARK  status: ('A' for Active; 'I' for Inactive)
REMARK    1  A    between atoms: C_1  and  C_2
REMARK    2  A    between atoms: C_5  and  C_6
REMARK    3  A    between atoms: N_7  and  N_8
REMARK    4  A    between atoms: C_9  and  C_11
REMARK                            x       y       z     vdW  Elec       q    Type
REMARK                         _______ _______ _______ _____ _____    ______ ____
ROOT
ATOM      1  N   UNL     1       4.909   4.609  17.402  0.00  0.00    +0.000 NA
ATOM      2  C   UNL     1       3.878   5.305  17.758  0.00  0.00    +0.000 C 
ATOM      3  N   UNL     1       3.684   6.656  17.650  0.00  0.00    +0.000 N 
ATOM      4  H   UNL     1       4.526   7.214  17.729  0.00  0.00    +0.000 HD
ATOM      5  H   UNL     1       2.942   7.046  18.226  0.00  0.00    +0.000 HD
ENDROOT
BRANCH   1  12
ATOM      6  C   UNL     1       7.344   6.512  18.388  0.00  0.00    +0.000 C 
ATOM      7  C   UNL     1       7.055   5.914  17.066  0.00  0.00    +0.000 A 
ATOM      8  N   UNL     1       7.775   6.159  15.988  0.00  0.00    +0.000 NA
ATOM      9  N   UNL     1       7.155   5.590  14.912  0.00  0.00    +0.000 NA
ATOM     10  C   UNL     1       6.070   4.994  15.350  0.00  0.00    +0.000 A 
ATOM     11  C   UNL     1       5.075   4.259  14.538  0.00  0.00    +0.000 C 
ATOM     12  N   UNL     1       5.975   5.112  16.727  0.00  0.00    +0.000 N 
ENDBRANCH   1  12
BRANCH   2  13
ATOM     13  C   UNL     1       2.809   4.514  18.463  0.00  0.00    +0.000 A 
ATOM     14  C   UNL     1       2.347   3.324  17.881  0.00  0.00    +0.000 A 
ATOM     15  C   UNL     1       1.343   2.582  18.503  0.00  0.00    +0.000 A 
ATOM     16  C   UNL     1       0.797   3.025  19.705  0.00  0.00    +0.000 A 
ATOM     17  C   UNL     1       1.264   4.203  20.295  0.00  0.00    +0.000 A 
ATOM     18  C   UNL     1       2.272   4.948  19.679  0.00  0.00    +0.000 A 
ENDBRANCH   2  13
TORSDOF 2
ENDMDL
MODEL 8
REMARK VINA RESULT:      -7.1      0.422      1.998
REMARK  Name = 
REMARK  4 active torsions:
REMARK  status: ('A' for Active; 'I' for Inactive)
REMARK    1  A    between atoms: C_1  and  C_2
REMARK    2  A    between atoms: C_5  and  C_6
REMARK    3  A    between atoms: N_7  and  N_8
REMARK    4  A    between atoms: C_9  and  C_11
REMARK                            x       y       z     vdW  Elec       q    Type
REMARK                         _______ _______ _______ _____ _____    ______ ____
ROOT
ATOM      1  N   UNL     1       4.914   4.727  17.434  0.00  0.00    +0.000 NA
ATOM      2  C   UNL     1       3.889   5.449  17.756  0.00  0.00    +0.000 C 
ATOM      3  N   UNL     1       3.711   6.797  17.593  0.00  0.00    +0.000 N 
ATOM      4  H   UNL     1       4.559   7.348  17.653  0.00  0.00    +0.000 HD
ATOM      5  H   UNL     1       2.970   7.218  18.148  0.00  0.00    +0.000 HD
ENDROOT
BRANCH   1  12
ATOM      6  C   UNL     1       7.380   6.618  18.362  0.00  0.00    +0.000 C 
ATOM      7  C   UNL     1       7.082   5.985  17.059  0.00  0.00    +0.000 A 
ATOM      8  N   UNL     1       7.807   6.183  15.974  0.00  0.00    +0.000 NA
ATOM      9  N   UNL     1       7.177   5.591  14.917  0.00  0.00    +0.000 NA
ATOM     10  C   UNL     1       6.082   5.028  15.372  0.00  0.00    +0.000 A 
ATOM     11  C   UNL     1       5.074   4.284  14.582  0.00  0.00    +0.000 C 
ATOM     12  N   UNL     1       5.988   5.190  16.744  0.00  0.00    +0.000 N 
ENDBRANCH   1  12
BRANCH   2  13
ATOM     13  C   UNL     1       2.808   4.699  18.487  0.00  0.00    +0.000 A 
ATOM     14  C   UNL     1       2.485   5.076  19.799  0.00  0.00    +0.000 A 
ATOM     15  C   UNL     1       1.502   4.385  20.507  0.00  0.00    +0.000 A 
ATOM     16  C   UNL     1       0.839   3.317  19.909  0.00  0.00    +0.000 A 
ATOM     17  C   UNL     1       1.150   2.945  18.598  0.00  0.00    +0.000 A 
ATOM     18  C   UNL     1       2.130   3.636  17.883  0.00  0.00    +0.000 A 
ENDBRANCH   2  13
TORSDOF 2
ENDMDL
MODEL 9
REMARK VINA RESULT:      -7.1      0.907      1.249
REMARK  Name = 
REMARK  4 active torsions:
REMARK  status: ('A' for Active; 'I' for Inactive)
REMARK    1  A    between atoms: C_1  and  C_2
REMARK    2  A    between atoms: C_5  and  C_6
REMARK    3  A    between atoms: N_7  and  N_8
REMARK    4  A    between atoms: C_9  and  C_11
REMARK                            x       y       z     vdW  Elec       q    Type
REMARK                         _______ _______ _______ _____ _____    ______ ____
ROOT
ATOM      1  N   UNL     1       4.612   5.003  17.122  0.00  0.00    +0.000 NA
ATOM      2  C   UNL     1       4.621   4.250  18.174  0.00  0.00    +0.000 C 
ATOM      3  N   UNL     1       5.650   3.497  18.674  0.00  0.00    +0.000 N 
ATOM      4  H   UNL     1       6.286   3.130  17.976  0.00  0.00    +0.000 HD
ATOM      5  H   UNL     1       5.388   2.772  19.337  0.00  0.00    +0.000 HD
ENDROOT
BRANCH   1  12
ATOM      6  C   UNL     1       5.656   3.690  14.346  0.00  0.00    +0.000 C 
ATOM      7  C   UNL     1       6.220   4.776  15.177  0.00  0.00    +0.000 A 
ATOM      8  N   UNL     1       7.373   5.362  14.917  0.00  0.00    +0.000 NA
ATOM      9  N   UNL     1       7.680   6.197  15.952  0.00  0.00    +0.000 NA
ATOM     10  C   UNL     1       6.703   6.120  16.826  0.00  0.00    +0.000 A 
ATOM     11  C   UNL     1       6.610   6.839  18.117  0.00  0.00    +0.000 C 
ATOM     12  N   UNL     1       5.707   5.273  16.366  0.00  0.00    +0.000 N 
ENDBRANCH   1  12
BRANCH   2  13
ATOM     13  C   UNL     1       3.288   4.132  18.864  0.00  0.00    +0.000 A 
ATOM     14  C   UNL     1       3.054   4.881  20.027  0.00  0.00    +0.000 A 
ATOM     15  C   UNL     1       1.836   4.775  20.697  0.00  0.00    +0.000 A 
ATOM     16  C   UNL     1       0.848   3.923  20.210  0.00  0.00    +0.000 A 
ATOM     17  C   UNL     1       1.073   3.184  19.045  0.00  0.00    +0.000 A 
ATOM     18  C   UNL     1       2.289   3.289  18.367  0.00  0.00    +0.000 A 
ENDBRANCH   2  13
TORSDOF 2
ENDMDL
