MODEL 1
REMARK VINA RESULT:      -8.0      0.000      0.000
REMARK  Name = 
REMARK  9 active torsions:
REMARK  status: ('A' for Active; 'I' for Inactive)
REMARK    1  A    between atoms: C_1  and  O_2
REMARK    2  A    between atoms: O_2  and  C_3
REMARK    3  A    between atoms: C_8  and  C_9
REMARK    4  A    between atoms: C_9  and  C_10
REMARK    5  A    between atoms: C_10  and  N_11
REMARK    6  A    between atoms: C_13  and  C_14
REMARK    7  A    between atoms: N_16  and  C_17
REMARK    8  A    between atoms: C_17  and  C_18
REMARK    9  A    between atoms: C_25  and  O_26
REMARK                            x       y       z     vdW  Elec       q    Type
REMARK                         _______ _______ _______ _____ _____    ______ ____
ROOT
ATOM      1  N   UNL     1       2.863   5.427  18.833  0.00  0.00    +0.000 N 
ATOM      2  C   UNL     1       2.511   6.451  17.878  0.00  0.00    +0.000 C 
ATOM      3  C   UNL     1       2.033   7.541  18.767  0.00  0.00    +0.000 C 
ATOM      4  C   UNL     1       2.008   7.174  20.058  0.00  0.00    +0.000 C 
ATOM      5  C   UNL     1       2.490   5.773  20.124  0.00  0.00    +0.000 C 
ATOM      6  O   UNL     1       2.534   5.077  21.120  0.00  0.00    +0.000 OA
ENDROOT
BRANCH   3   7
ATOM      7  C   UNL     1       1.633   8.898  18.364  0.00  0.00    +0.000 C 
ATOM      8  O   UNL     1       2.248   9.471  17.467  0.00  0.00    +0.000 OA
ATOM      9  N   UNL     1       0.575   9.458  19.027  0.00  0.00    +0.000 N 
ATOM     10  H   UNL     1       0.113   8.986  19.790  0.00  0.00    +0.000 HD
BRANCH   9  11
ATOM     11  C   UNL     1       0.157  10.820  18.751  0.00  0.00    +0.000 C 
BRANCH  11  12
ATOM     12  C   UNL     1      -1.280  10.904  18.299  0.00  0.00    +0.000 A 
ATOM     13  C   UNL     1      -1.746  10.082  17.256  0.00  0.00    +0.000 A 
ATOM     14  C   UNL     1      -3.089  10.110  16.874  0.00  0.00    +0.000 A 
ATOM     15  C   UNL     1      -3.972  10.954  17.534  0.00  0.00    +0.000 A 
ATOM     16  F   UNL     1      -5.262  10.972  17.175  0.00  0.00    +0.000 F 
ATOM     17  C   UNL     1      -3.538  11.765  18.575  0.00  0.00    +0.000 A 
ATOM     18  C   UNL     1      -2.197  11.741  18.958  0.00  0.00    +0.000 A 
ENDBRANCH  11  12
ENDBRANCH   9  11
ENDBRANCH   3   7
BRANCH   4  19
ATOM     19  O   UNL     1       1.622   7.903  21.149  0.00  0.00    +0.000 OA
ATOM     20  H   UNL     1       0.690   7.660  21.343  0.00  0.00    +0.000 HD
ENDBRANCH   4  19
BRANCH   1  21
ATOM     21  C   UNL     1       3.219   4.063  18.469  0.00  0.00    +0.000 C 
BRANCH  21  22
ATOM     22  C   UNL     1       4.704   3.733  18.638  0.00  0.00    +0.000 C 
BRANCH  22  28
ATOM     23  C   UNL     1       6.790   4.581  17.423  0.00  0.00    +0.000 A 
ATOM     24  C   UNL     1       7.427   4.947  16.231  0.00  0.00    +0.000 A 
ATOM     25  C   UNL     1       6.746   4.886  15.015  0.00  0.00    +0.000 A 
ATOM     26  C   UNL     1       5.434   4.428  14.975  0.00  0.00    +0.000 A 
ATOM     27  C   UNL     1       4.806   4.022  16.151  0.00  0.00    +0.000 A 
ATOM     28  C   UNL     1       5.473   4.090  17.385  0.00  0.00    +0.000 A 
BRANCH  23  30
ATOM     29  C   UNL     1       7.874   5.960  18.996  0.00  0.00    +0.000 C 
ATOM     30  O   UNL     1       7.396   4.659  18.652  0.00  0.00    +0.000 OA
ENDBRANCH  23  30
ENDBRANCH  22  28
ENDBRANCH  21  22
ENDBRANCH   1  21
TORSDOF 8
ENDMDL
MODEL 2
REMARK VINA RESULT:      -7.8      0.984      1.864
REMARK  Name = 
REMARK  9 active torsions:
REMARK  status: ('A' for Active; 'I' for Inactive)
REMARK    1  A    between atoms: C_1  and  O_2
REMARK    2  A    between atoms: O_2  and  C_3
REMARK    3  A    between atoms: C_8  and  C_9
REMARK    4  A    between atoms: C_9  and  C_10
REMARK    5  A    between atoms: C_10  and  N_11
REMARK    6  A    between atoms: C_13  and  C_14
REMARK    7  A    between atoms: N_16  and  C_17
REMARK    8  A    between atoms: C_17  and  C_18
REMARK    9  A    between atoms: C_25  and  O_26
REMARK                            x       y       z     vdW  Elec       q    Type
REMARK                         _______ _______ _______ _____ _____    ______ ____
ROOT
ATOM      1  N   UNL     1       3.055   5.403  18.513  0.00  0.00    +0.000 N 
ATOM      2  C   UNL     1       2.671   6.475  17.627  0.00  0.00    +0.000 C 
ATOM      3  C   UNL     1       2.209   7.510  18.587  0.00  0.00    +0.000 C 
ATOM      4  C   UNL     1       2.220   7.071  19.855  0.00  0.00    +0.000 C 
ATOM      5  C   UNL     1       2.713   5.673  19.830  0.00  0.00    +0.000 C 
ATOM      6  O   UNL     1       2.787   4.923  20.784  0.00  0.00    +0.000 OA
ENDROOT
BRANCH   3   7
ATOM      7  C   UNL     1       1.789   8.884  18.272  0.00  0.00    +0.000 C 
ATOM      8  O   UNL     1       2.426   9.540  17.450  0.00  0.00    +0.000 OA
ATOM      9  N   UNL     1       0.688   9.365  18.926  0.00  0.00    +0.000 N 
ATOM     10  H   UNL     1       0.206   8.824  19.629  0.00  0.00    +0.000 HD
BRANCH   9  11
ATOM     11  C   UNL     1       0.245  10.734  18.737  0.00  0.00    +0.000 C 
BRANCH  11  12
ATOM     12  C   UNL     1      -1.207  10.822  18.333  0.00  0.00    +0.000 A 
ATOM     13  C   UNL     1      -1.720   9.968  17.339  0.00  0.00    +0.000 A 
ATOM     14  C   UNL     1      -3.076  10.001  17.004  0.00  0.00    +0.000 A 
ATOM     15  C   UNL     1      -3.924  10.881  17.663  0.00  0.00    +0.000 A 
ATOM     16  F   UNL     1      -5.225  10.904  17.349  0.00  0.00    +0.000 F 
ATOM     17  C   UNL     1      -3.442  11.724  18.657  0.00  0.00    +0.000 A 
ATOM     18  C   UNL     1      -2.088  11.695  18.992  0.00  0.00    +0.000 A 
ENDBRANCH  11  12
ENDBRANCH   9  11
ENDBRANCH   3   7
BRANCH   4  19
ATOM     19  O   UNL     1       1.858   7.735  20.995  0.00  0.00    +0.000 OA
ATOM     20  H   UNL     1       2.152   8.666  20.892  0.00  0.00    +0.000 HD
ENDBRANCH   4  19
BRANCH   1  21
ATOM     21  C   UNL     1       3.409   4.064  18.063  0.00  0.00    +0.000 C 
BRANCH  21  22
ATOM     22  C   UNL     1       4.614   4.016  17.121  0.00  0.00    +0.000 C 
BRANCH  22  28
ATOM     23  C   UNL     1       6.382   5.824  16.732  0.00  0.00    +0.000 A 
ATOM     24  C   UNL     1       7.419   6.624  17.229  0.00  0.00    +0.000 A 
ATOM     25  C   UNL     1       7.822   6.518  18.560  0.00  0.00    +0.000 A 
ATOM     26  C   UNL     1       7.172   5.636  19.415  0.00  0.00    +0.000 A 
ATOM     27  C   UNL     1       6.112   4.866  18.941  0.00  0.00    +0.000 A 
ATOM     28  C   UNL     1       5.702   4.951  17.600  0.00  0.00    +0.000 A 
BRANCH  23  30
ATOM     29  C   UNL     1       6.731   5.030  14.542  0.00  0.00    +0.000 C 
ATOM     30  O   UNL     1       5.971   5.856  15.424  0.00  0.00    +0.000 OA
ENDBRANCH  23  30
ENDBRANCH  22  28
ENDBRANCH  21  22
ENDBRANCH   1  21
TORSDOF 8
ENDMDL
MODEL 3
REMARK VINA RESULT:      -7.8      3.723      9.144
REMARK  Name = 
REMARK  9 active torsions:
REMARK  status: ('A' for Active; 'I' for Inactive)
REMARK    1  A    between atoms: C_1  and  O_2
REMARK    2  A    between atoms: O_2  and  C_3
REMARK    3  A    between atoms: C_8  and  C_9
REMARK    4  A    between atoms: C_9  and  C_10
REMARK    5  A    between atoms: C_10  and  N_11
REMARK    6  A    between atoms: C_13  and  C_14
REMARK    7  A    between atoms: N_16  and  C_17
REMARK    8  A    between atoms: C_17  and  C_18
REMARK    9  A    between atoms: C_25  and  O_26
REMARK                            x       y       z     vdW  Elec       q    Type
REMARK                         _______ _______ _______ _____ _____    ______ ____
ROOT
ATOM      1  N   UNL     1      -0.981  10.905  21.020  0.00  0.00    +0.000 N 
ATOM      2  C   UNL     1      -0.406  10.312  19.837  0.00  0.00    +0.000 C 
ATOM      3  C   UNL     1       0.731   9.544  20.406  0.00  0.00    +0.000 C 
ATOM      4  C   UNL     1       0.870   9.741  21.727  0.00  0.00    +0.000 C 
ATOM      5  C   UNL     1      -0.202  10.676  22.145  0.00  0.00    +0.000 C 
ATOM      6  O   UNL     1      -0.348  11.147  23.256  0.00  0.00    +0.000 OA
ENDROOT
BRANCH   3   7
ATOM      7  C   UNL     1       1.636   8.637  19.683  0.00  0.00    +0.000 C 
ATOM      8  O   UNL     1       1.951   8.893  18.522  0.00  0.00    +0.000 OA
ATOM      9  N   UNL     1       2.084   7.535  20.358  0.00  0.00    +0.000 N 
ATOM     10  H   UNL     1       1.777   7.322  21.296  0.00  0.00    +0.000 HD
BRANCH   9  11
ATOM     11  C   UNL     1       2.918   6.544  19.702  0.00  0.00    +0.000 C 
BRANCH  11  12
ATOM     12  C   UNL     1       2.170   5.269  19.398  0.00  0.00    +0.000 A 
ATOM     13  C   UNL     1       2.148   4.754  18.088  0.00  0.00    +0.000 A 
ATOM     14  C   UNL     1       1.511   3.542  17.811  0.00  0.00    +0.000 A 
ATOM     15  C   UNL     1       0.898   2.839  18.840  0.00  0.00    +0.000 A 
ATOM     16  F   UNL     1       0.297   1.672  18.576  0.00  0.00    +0.000 F 
ATOM     17  C   UNL     1       0.917   3.322  20.143  0.00  0.00    +0.000 A 
ATOM     18  C   UNL     1       1.552   4.533  20.422  0.00  0.00    +0.000 A 
ENDBRANCH  11  12
ENDBRANCH   9  11
ENDBRANCH   3   7
BRANCH   4  19
ATOM     19  O   UNL     1       1.801   9.213  22.579  0.00  0.00    +0.000 OA
ATOM     20  H   UNL     1       2.142   9.952  23.127  0.00  0.00    +0.000 HD
ENDBRANCH   4  19
BRANCH   1  21
ATOM     21  C   UNL     1      -2.027  11.918  20.995  0.00  0.00    +0.000 C 
BRANCH  21  22
ATOM     22  C   UNL     1      -2.246  12.563  19.624  0.00  0.00    +0.000 C 
BRANCH  22  28
ATOM     23  C   UNL     1      -3.662  11.534  17.759  0.00  0.00    +0.000 A 
ATOM     24  C   UNL     1      -4.921  11.198  17.245  0.00  0.00    +0.000 A 
ATOM     25  C   UNL     1      -6.082  11.496  17.959  0.00  0.00    +0.000 A 
ATOM     26  C   UNL     1      -5.994  12.102  19.207  0.00  0.00    +0.000 A 
ATOM     27  C   UNL     1      -4.744  12.402  19.745  0.00  0.00    +0.000 A 
ATOM     28  C   UNL     1      -3.566  12.120  19.033  0.00  0.00    +0.000 A 
BRANCH  23  30
ATOM     29  C   UNL     1      -2.362   9.983  16.551  0.00  0.00    +0.000 C 
ATOM     30  O   UNL     1      -2.490  11.302  17.083  0.00  0.00    +0.000 OA
ENDBRANCH  23  30
ENDBRANCH  22  28
ENDBRANCH  21  22
ENDBRANCH   1  21
TORSDOF 8
ENDMDL
MODEL 4
REMARK VINA RESULT:      -7.6      5.038      8.463
REMARK  Name = 
REMARK  9 active torsions:
REMARK  status: ('A' for Active; 'I' for Inactive)
REMARK    1  A    between atoms: C_1  and  O_2
REMARK    2  A    between atoms: O_2  and  C_3
REMARK    3  A    between atoms: C_8  and  C_9
REMARK    4  A    between atoms: C_9  and  C_10
REMARK    5  A    between atoms: C_10  and  N_11
REMARK    6  A    between atoms: C_13  and  C_14
REMARK    7  A    between atoms: N_16  and  C_17
REMARK    8  A    between atoms: C_17  and  C_18
REMARK    9  A    between atoms: C_25  and  O_26
REMARK                            x       y       z     vdW  Elec       q    Type
REMARK                         _______ _______ _______ _____ _____    ______ ____
ROOT
ATOM      1  N   UNL     1       4.963   5.698  18.120  0.00  0.00    +0.000 N 
ATOM      2  C   UNL     1       5.056   5.821  16.685  0.00  0.00    +0.000 C 
ATOM      3  C   UNL     1       6.342   5.134  16.405  0.00  0.00    +0.000 C 
ATOM      4  C   UNL     1       6.972   4.752  17.527  0.00  0.00    +0.000 C 
ATOM      5  C   UNL     1       6.119   5.162  18.669  0.00  0.00    +0.000 C 
ATOM      6  O   UNL     1       6.399   5.052  19.847  0.00  0.00    +0.000 OA
ENDROOT
BRANCH   3   7
ATOM      7  C   UNL     1       6.923   4.848  15.084  0.00  0.00    +0.000 C 
ATOM      8  O   UNL     1       7.878   5.512  14.684  0.00  0.00    +0.000 OA
ATOM      9  N   UNL     1       6.354   3.837  14.359  0.00  0.00    +0.000 N 
ATOM     10  H   UNL     1       5.543   3.335  14.689  0.00  0.00    +0.000 HD
BRANCH   9  11
ATOM     11  C   UNL     1       6.809   3.534  13.014  0.00  0.00    +0.000 C 
BRANCH  11  12
ATOM     12  C   UNL     1       5.668   3.272  12.062  0.00  0.00    +0.000 A 
ATOM     13  C   UNL     1       5.509   2.002  11.477  0.00  0.00    +0.000 A 
ATOM     14  C   UNL     1       4.420   1.735  10.643  0.00  0.00    +0.000 A 
ATOM     15  C   UNL     1       3.485   2.732  10.397  0.00  0.00    +0.000 A 
ATOM     16  F   UNL     1       2.435   2.471   9.607  0.00  0.00    +0.000 F 
ATOM     17  C   UNL     1       3.614   3.989  10.974  0.00  0.00    +0.000 A 
ATOM     18  C   UNL     1       4.702   4.259  11.805  0.00  0.00    +0.000 A 
ENDBRANCH  11  12
ENDBRANCH   9  11
ENDBRANCH   3   7
BRANCH   4  19
ATOM     19  O   UNL     1       8.171   4.106  17.660  0.00  0.00    +0.000 OA
ATOM     20  H   UNL     1       8.105   3.270  17.150  0.00  0.00    +0.000 HD
ENDBRANCH   4  19
BRANCH   1  21
ATOM     21  C   UNL     1       3.963   6.377  18.931  0.00  0.00    +0.000 C 
BRANCH  21  22
ATOM     22  C   UNL     1       2.527   5.910  18.681  0.00  0.00    +0.000 C 
BRANCH  22  28
ATOM     23  C   UNL     1       1.750   3.482  18.900  0.00  0.00    +0.000 A 
ATOM     24  C   UNL     1       1.433   2.385  19.711  0.00  0.00    +0.000 A 
ATOM     25  C   UNL     1       1.525   2.479  21.100  0.00  0.00    +0.000 A 
ATOM     26  C   UNL     1       1.965   3.659  21.689  0.00  0.00    +0.000 A 
ATOM     27  C   UNL     1       2.322   4.742  20.888  0.00  0.00    +0.000 A 
ATOM     28  C   UNL     1       2.223   4.668  19.489  0.00  0.00    +0.000 A 
BRANCH  23  30
ATOM     29  C   UNL     1       2.753   2.877  16.856  0.00  0.00    +0.000 C 
ATOM     30  O   UNL     1       1.639   3.460  17.532  0.00  0.00    +0.000 OA
ENDBRANCH  23  30
ENDBRANCH  22  28
ENDBRANCH  21  22
ENDBRANCH   1  21
TORSDOF 8
ENDMDL
MODEL 5
REMARK VINA RESULT:      -7.6      3.500      9.062
REMARK  Name = 
REMARK  9 active torsions:
REMARK  status: ('A' for Active; 'I' for Inactive)
REMARK    1  A    between atoms: C_1  and  O_2
REMARK    2  A    between atoms: O_2  and  C_3
REMARK    3  A    between atoms: C_8  and  C_9
REMARK    4  A    between atoms: C_9  and  C_10
REMARK    5  A    between atoms: C_10  and  N_11
REMARK    6  A    between atoms: C_13  and  C_14
REMARK    7  A    between atoms: N_16  and  C_17
REMARK    8  A    between atoms: C_17  and  C_18
REMARK    9  A    between atoms: C_25  and  O_26
REMARK                            x       y       z     vdW  Elec       q    Type
REMARK                         _______ _______ _______ _____ _____    ______ ____
ROOT
ATOM      1  N   UNL     1      -0.406  10.732  20.415  0.00  0.00    +0.000 N 
ATOM      2  C   UNL     1       0.241  10.086  19.299  0.00  0.00    +0.000 C 
ATOM      3  C   UNL     1       1.158   9.142  19.987  0.00  0.00    +0.000 C 
ATOM      4  C   UNL     1       1.133   9.284  21.321  0.00  0.00    +0.000 C 
ATOM      5  C   UNL     1       0.160  10.361  21.627  0.00  0.00    +0.000 C 
ATOM      6  O   UNL     1      -0.075  10.822  22.727  0.00  0.00    +0.000 OA
ENDROOT
BRANCH   3   7
ATOM      7  C   UNL     1       2.015   8.125  19.357  0.00  0.00    +0.000 C 
ATOM      8  O   UNL     1       2.202   8.157  18.141  0.00  0.00    +0.000 OA
ATOM      9  N   UNL     1       2.567   7.180  20.177  0.00  0.00    +0.000 N 
ATOM     10  H   UNL     1       2.365   7.148  21.165  0.00  0.00    +0.000 HD
BRANCH   9  11
ATOM     11  C   UNL     1       3.364   6.094  19.636  0.00  0.00    +0.000 C 
BRANCH  11  12
ATOM     12  C   UNL     1       2.543   4.858  19.356  0.00  0.00    +0.000 A 
ATOM     13  C   UNL     1       1.707   4.320  20.353  0.00  0.00    +0.000 A 
ATOM     14  C   UNL     1       0.898   3.214  20.081  0.00  0.00    +0.000 A 
ATOM     15  C   UNL     1       0.917   2.646  18.814  0.00  0.00    +0.000 A 
ATOM     16  F   UNL     1       0.133   1.593  18.552  0.00  0.00    +0.000 F 
ATOM     17  C   UNL     1       1.725   3.167  17.811  0.00  0.00    +0.000 A 
ATOM     18  C   UNL     1       2.535   4.271  18.080  0.00  0.00    +0.000 A 
ENDBRANCH  11  12
ENDBRANCH   9  11
ENDBRANCH   3   7
BRANCH   4  19
ATOM     19  O   UNL     1       1.842   8.601  22.270  0.00  0.00    +0.000 OA
ATOM     20  H   UNL     1       1.500   7.680  22.278  0.00  0.00    +0.000 HD
ENDBRANCH   4  19
BRANCH   1  21
ATOM     21  C   UNL     1      -1.277  11.892  20.291  0.00  0.00    +0.000 C 
BRANCH  21  22
ATOM     22  C   UNL     1      -1.627  12.263  18.848  0.00  0.00    +0.000 C 
BRANCH  22  28
ATOM     23  C   UNL     1      -3.469  11.409  17.292  0.00  0.00    +0.000 A 
ATOM     24  C   UNL     1      -4.826  11.156  17.053  0.00  0.00    +0.000 A 
ATOM     25  C   UNL     1      -5.785  11.455  18.022  0.00  0.00    +0.000 A 
ATOM     26  C   UNL     1      -5.394  11.978  19.248  0.00  0.00    +0.000 A 
ATOM     27  C   UNL     1      -4.043  12.194  19.510  0.00  0.00    +0.000 A 
ATOM     28  C   UNL     1      -3.066  11.911  18.541  0.00  0.00    +0.000 A 
BRANCH  23  30
ATOM     29  C   UNL     1      -2.933  10.493  15.189  0.00  0.00    +0.000 C 
ATOM     30  O   UNL     1      -2.488  11.173  16.362  0.00  0.00    +0.000 OA
ENDBRANCH  23  30
ENDBRANCH  22  28
ENDBRANCH  21  22
ENDBRANCH   1  21
TORSDOF 8
ENDMDL
MODEL 6
REMARK VINA RESULT:      -7.5      2.364      2.743
REMARK  Name = 
REMARK  9 active torsions:
REMARK  status: ('A' for Active; 'I' for Inactive)
REMARK    1  A    between atoms: C_1  and  O_2
REMARK    2  A    between atoms: O_2  and  C_3
REMARK    3  A    between atoms: C_8  and  C_9
REMARK    4  A    between atoms: C_9  and  C_10
REMARK    5  A    between atoms: C_10  and  N_11
REMARK    6  A    between atoms: C_13  and  C_14
REMARK    7  A    between atoms: N_16  and  C_17
REMARK    8  A    between atoms: C_17  and  C_18
REMARK    9  A    between atoms: C_25  and  O_26
REMARK                            x       y       z     vdW  Elec       q    Type
REMARK                         _______ _______ _______ _____ _____    ______ ____
ROOT
ATOM      1  N   UNL     1       2.938   5.446  18.848  0.00  0.00    +0.000 N 
ATOM      2  C   UNL     1       2.687   6.535  17.935  0.00  0.00    +0.000 C 
ATOM      3  C   UNL     1       2.160   7.579  18.850  0.00  0.00    +0.000 C 
ATOM      4  C   UNL     1       2.020   7.134  20.108  0.00  0.00    +0.000 C 
ATOM      5  C   UNL     1       2.466   5.720  20.124  0.00  0.00    +0.000 C 
ATOM      6  O   UNL     1       2.413   4.963  21.073  0.00  0.00    +0.000 OA
ENDROOT
BRANCH   3   7
ATOM      7  C   UNL     1       1.822   8.968  18.503  0.00  0.00    +0.000 C 
ATOM      8  O   UNL     1       2.182   9.429  17.422  0.00  0.00    +0.000 OA
ATOM      9  N   UNL     1       1.110   9.685  19.426  0.00  0.00    +0.000 N 
ATOM     10  H   UNL     1       0.863   9.300  20.325  0.00  0.00    +0.000 HD
BRANCH   9  11
ATOM     11  C   UNL     1       0.797  11.086  19.205  0.00  0.00    +0.000 C 
BRANCH  11  12
ATOM     12  C   UNL     1       0.185  11.740  20.420  0.00  0.00    +0.000 A 
ATOM     13  C   UNL     1      -0.541  10.973  21.350  0.00  0.00    +0.000 A 
ATOM     14  C   UNL     1      -1.057  11.561  22.507  0.00  0.00    +0.000 A 
ATOM     15  C   UNL     1      -0.845  12.913  22.743  0.00  0.00    +0.000 A 
ATOM     16  F   UNL     1      -1.331  13.473  23.858  0.00  0.00    +0.000 F 
ATOM     17  C   UNL     1      -0.121  13.688  21.845  0.00  0.00    +0.000 A 
ATOM     18  C   UNL     1       0.394  13.104  20.687  0.00  0.00    +0.000 A 
ENDBRANCH  11  12
ENDBRANCH   9  11
ENDBRANCH   3   7
BRANCH   4  19
ATOM     19  O   UNL     1       1.560   7.804  21.208  0.00  0.00    +0.000 OA
ATOM     20  H   UNL     1       0.996   8.539  20.883  0.00  0.00    +0.000 HD
ENDBRANCH   4  19
BRANCH   1  21
ATOM     21  C   UNL     1       3.294   4.097  18.427  0.00  0.00    +0.000 C 
BRANCH  21  22
ATOM     22  C   UNL     1       4.783   3.768  18.567  0.00  0.00    +0.000 C 
BRANCH  22  28
ATOM     23  C   UNL     1       6.859   4.548  17.292  0.00  0.00    +0.000 A 
ATOM     24  C   UNL     1       7.471   4.902  16.082  0.00  0.00    +0.000 A 
ATOM     25  C   UNL     1       6.748   4.881  14.889  0.00  0.00    +0.000 A 
ATOM     26  C   UNL     1       5.419   4.475  14.888  0.00  0.00    +0.000 A 
ATOM     27  C   UNL     1       4.814   4.081  16.080  0.00  0.00    +0.000 A 
ATOM     28  C   UNL     1       5.524   4.108  17.293  0.00  0.00    +0.000 A 
BRANCH  23  30
ATOM     29  C   UNL     1       7.742   5.903  19.005  0.00  0.00    +0.000 C 
ATOM     30  O   UNL     1       7.509   4.589  18.500  0.00  0.00    +0.000 OA
ENDBRANCH  23  30
ENDBRANCH  22  28
ENDBRANCH  21  22
ENDBRANCH   1  21
TORSDOF 8
ENDMDL
MODEL 7
REMARK VINA RESULT:      -7.4      3.267      4.985
REMARK  Name = 
REMARK  9 active torsions:
REMARK  status: ('A' for Active; 'I' for Inactive)
REMARK    1  A    between atoms: C_1  and  O_2
REMARK    2  A    between atoms: O_2  and  C_3
REMARK    3  A    between atoms: C_8  and  C_9
REMARK    4  A    between atoms: C_9  and  C_10
REMARK    5  A    between atoms: C_10  and  N_11
REMARK    6  A    between atoms: C_13  and  C_14
REMARK    7  A    between atoms: N_16  and  C_17
REMARK    8  A    between atoms: C_17  and  C_18
REMARK    9  A    between atoms: C_25  and  O_26
REMARK                            x       y       z     vdW  Elec       q    Type
REMARK                         _______ _______ _______ _____ _____    ______ ____
ROOT
ATOM      1  N   UNL     1       1.494   8.355  19.732  0.00  0.00    +0.000 N 
ATOM      2  C   UNL     1       1.117   8.366  21.124  0.00  0.00    +0.000 C 
ATOM      3  C   UNL     1       0.537   9.725  21.270  0.00  0.00    +0.000 C 
ATOM      4  C   UNL     1       0.652  10.452  20.147  0.00  0.00    +0.000 C 
ATOM      5  C   UNL     1       1.329   9.600  19.141  0.00  0.00    +0.000 C 
ATOM      6  O   UNL     1       1.673   9.943  18.027  0.00  0.00    +0.000 OA
ENDROOT
BRANCH   3   7
ATOM      7  C   UNL     1      -0.121  10.283  22.461  0.00  0.00    +0.000 C 
ATOM      8  O   UNL     1       0.263   9.946  23.580  0.00  0.00    +0.000 OA
ATOM      9  N   UNL     1      -1.146  11.164  22.253  0.00  0.00    +0.000 N 
ATOM     10  H   UNL     1      -1.473  11.392  21.325  0.00  0.00    +0.000 HD
BRANCH   9  11
ATOM     11  C   UNL     1      -1.904  11.707  23.366  0.00  0.00    +0.000 C 
BRANCH  11  12
ATOM     12  C   UNL     1      -3.186  12.369  22.924  0.00  0.00    +0.000 A 
ATOM     13  C   UNL     1      -3.388  12.692  21.569  0.00  0.00    +0.000 A 
ATOM     14  C   UNL     1      -4.597  13.249  21.144  0.00  0.00    +0.000 A 
ATOM     15  C   UNL     1      -5.608  13.479  22.068  0.00  0.00    +0.000 A 
ATOM     16  F   UNL     1      -6.771  14.003  21.657  0.00  0.00    +0.000 F 
ATOM     17  C   UNL     1      -5.436  13.157  23.408  0.00  0.00    +0.000 A 
ATOM     18  C   UNL     1      -4.229  12.603  23.836  0.00  0.00    +0.000 A 
ENDBRANCH  11  12
ENDBRANCH   9  11
ENDBRANCH   3   7
BRANCH   4  19
ATOM     19  O   UNL     1       0.244  11.737  19.913  0.00  0.00    +0.000 OA
ATOM     20  H   UNL     1       0.216  12.193  20.782  0.00  0.00    +0.000 HD
ENDBRANCH   4  19
BRANCH   1  21
ATOM     21  C   UNL     1       2.288   7.303  19.112  0.00  0.00    +0.000 C 
BRANCH  21  22
ATOM     22  C   UNL     1       2.434   6.040  19.965  0.00  0.00    +0.000 C 
BRANCH  22  28
ATOM     23  C   UNL     1       1.699   3.641  19.467  0.00  0.00    +0.000 A 
ATOM     24  C   UNL     1       1.750   2.509  18.643  0.00  0.00    +0.000 A 
ATOM     25  C   UNL     1       2.535   2.506  17.490  0.00  0.00    +0.000 A 
ATOM     26  C   UNL     1       3.249   3.644  17.132  0.00  0.00    +0.000 A 
ATOM     27  C   UNL     1       3.171   4.788  17.923  0.00  0.00    +0.000 A 
ATOM     28  C   UNL     1       2.395   4.803  19.095  0.00  0.00    +0.000 A 
BRANCH  23  30
ATOM     29  C   UNL     1       1.390   2.747  21.625  0.00  0.00    +0.000 C 
ATOM     30  O   UNL     1       0.977   3.687  20.633  0.00  0.00    +0.000 OA
ENDBRANCH  23  30
ENDBRANCH  22  28
ENDBRANCH  21  22
ENDBRANCH   1  21
TORSDOF 8
ENDMDL
MODEL 8
REMARK VINA RESULT:      -7.3      3.217      4.885
REMARK  Name = 
REMARK  9 active torsions:
REMARK  status: ('A' for Active; 'I' for Inactive)
REMARK    1  A    between atoms: C_1  and  O_2
REMARK    2  A    between atoms: O_2  and  C_3
REMARK    3  A    between atoms: C_8  and  C_9
REMARK    4  A    between atoms: C_9  and  C_10
REMARK    5  A    between atoms: C_10  and  N_11
REMARK    6  A    between atoms: C_13  and  C_14
REMARK    7  A    between atoms: N_16  and  C_17
REMARK    8  A    between atoms: C_17  and  C_18
REMARK    9  A    between atoms: C_25  and  O_26
REMARK                            x       y       z     vdW  Elec       q    Type
REMARK                         _______ _______ _______ _____ _____    ______ ____
ROOT
ATOM      1  N   UNL     1       1.677   8.238  19.534  0.00  0.00    +0.000 N 
ATOM      2  C   UNL     1       1.361   8.399  20.933  0.00  0.00    +0.000 C 
ATOM      3  C   UNL     1       0.791   9.770  20.957  0.00  0.00    +0.000 C 
ATOM      4  C   UNL     1       0.858  10.373  19.760  0.00  0.00    +0.000 C 
ATOM      5  C   UNL     1       1.489   9.414  18.822  0.00  0.00    +0.000 C 
ATOM      6  O   UNL     1       1.784   9.635  17.664  0.00  0.00    +0.000 OA
ENDROOT
BRANCH   3   7
ATOM      7  C   UNL     1       0.187  10.456  22.110  0.00  0.00    +0.000 C 
ATOM      8  O   UNL     1       0.375  10.018  23.244  0.00  0.00    +0.000 OA
ATOM      9  N   UNL     1      -0.568  11.566  21.849  0.00  0.00    +0.000 N 
ATOM     10  H   UNL     1      -0.745  11.882  20.908  0.00  0.00    +0.000 HD
BRANCH   9  11
ATOM     11  C   UNL     1      -1.266  12.263  22.915  0.00  0.00    +0.000 C 
BRANCH  11  12
ATOM     12  C   UNL     1      -2.725  12.490  22.600  0.00  0.00    +0.000 A 
ATOM     13  C   UNL     1      -3.665  12.608  23.640  0.00  0.00    +0.000 A 
ATOM     14  C   UNL     1      -5.006  12.880  23.358  0.00  0.00    +0.000 A 
ATOM     15  C   UNL     1      -5.411  13.039  22.039  0.00  0.00    +0.000 A 
ATOM     16  F   UNL     1      -6.694  13.310  21.770  0.00  0.00    +0.000 F 
ATOM     17  C   UNL     1      -4.498  12.938  20.997  0.00  0.00    +0.000 A 
ATOM     18  C   UNL     1      -3.158  12.665  21.275  0.00  0.00    +0.000 A 
ENDBRANCH  11  12
ENDBRANCH   9  11
ENDBRANCH   3   7
BRANCH   4  19
ATOM     19  O   UNL     1       0.442  11.628  19.408  0.00  0.00    +0.000 OA
ATOM     20  H   UNL     1      -0.277  11.877  20.027  0.00  0.00    +0.000 HD
ENDBRANCH   4  19
BRANCH   1  21
ATOM     21  C   UNL     1       2.441   7.121  18.996  0.00  0.00    +0.000 C 
BRANCH  21  22
ATOM     22  C   UNL     1       2.462   5.882  19.896  0.00  0.00    +0.000 C 
BRANCH  22  28
ATOM     23  C   UNL     1       1.694   3.475  19.497  0.00  0.00    +0.000 A 
ATOM     24  C   UNL     1       1.709   2.319  18.705  0.00  0.00    +0.000 A 
ATOM     25  C   UNL     1       2.453   2.276  17.526  0.00  0.00    +0.000 A 
ATOM     26  C   UNL     1       3.161   3.396  17.109  0.00  0.00    +0.000 A 
ATOM     27  C   UNL     1       3.118   4.564  17.868  0.00  0.00    +0.000 A 
ATOM     28  C   UNL     1       2.385   4.621  19.065  0.00  0.00    +0.000 A 
BRANCH  23  30
ATOM     29  C   UNL     1       1.497   2.692  21.710  0.00  0.00    +0.000 C 
ATOM     30  O   UNL     1       1.014   3.561  20.685  0.00  0.00    +0.000 OA
ENDBRANCH  23  30
ENDBRANCH  22  28
ENDBRANCH  21  22
ENDBRANCH   1  21
TORSDOF 8
ENDMDL
MODEL 9
REMARK VINA RESULT:      -7.3      4.167     10.126
REMARK  Name = 
REMARK  9 active torsions:
REMARK  status: ('A' for Active; 'I' for Inactive)
REMARK    1  A    between atoms: C_1  and  O_2
REMARK    2  A    between atoms: O_2  and  C_3
REMARK    3  A    between atoms: C_8  and  C_9
REMARK    4  A    between atoms: C_9  and  C_10
REMARK    5  A    between atoms: C_10  and  N_11
REMARK    6  A    between atoms: C_13  and  C_14
REMARK    7  A    between atoms: N_16  and  C_17
REMARK    8  A    between atoms: C_17  and  C_18
REMARK    9  A    between atoms: C_25  and  O_26
REMARK                            x       y       z     vdW  Elec       q    Type
REMARK                         _______ _______ _______ _____ _____    ______ ____
ROOT
ATOM      1  N   UNL     1      -0.608  11.821  19.989  0.00  0.00    +0.000 N 
ATOM      2  C   UNL     1       0.571  11.010  20.171  0.00  0.00    +0.000 C 
ATOM      3  C   UNL     1       0.515  10.124  18.981  0.00  0.00    +0.000 C 
ATOM      4  C   UNL     1      -0.597  10.315  18.254  0.00  0.00    +0.000 C 
ATOM      5  C   UNL     1      -1.381  11.380  18.924  0.00  0.00    +0.000 C 
ATOM      6  O   UNL     1      -2.485  11.770  18.597  0.00  0.00    +0.000 OA
ENDROOT
BRANCH   3   7
ATOM      7  C   UNL     1       1.525   9.139  18.564  0.00  0.00    +0.000 C 
ATOM      8  O   UNL     1       1.985   9.186  17.424  0.00  0.00    +0.000 OA
ATOM      9  N   UNL     1       1.903   8.205  19.489  0.00  0.00    +0.000 N 
ATOM     10  H   UNL     1       1.480   8.159  20.404  0.00  0.00    +0.000 HD
BRANCH   9  11
ATOM     11  C   UNL     1       2.836   7.147  19.145  0.00  0.00    +0.000 C 
BRANCH  11  12
ATOM     12  C   UNL     1       2.183   5.787  19.112  0.00  0.00    +0.000 A 
ATOM     13  C   UNL     1       2.135   5.052  17.913  0.00  0.00    +0.000 A 
ATOM     14  C   UNL     1       1.587   3.767  17.889  0.00  0.00    +0.000 A 
ATOM     15  C   UNL     1       1.091   3.211  19.061  0.00  0.00    +0.000 A 
ATOM     16  F   UNL     1       0.576   1.975  19.040  0.00  0.00    +0.000 F 
ATOM     17  C   UNL     1       1.139   3.914  20.259  0.00  0.00    +0.000 A 
ATOM     18  C   UNL     1       1.684   5.198  20.285  0.00  0.00    +0.000 A 
ENDBRANCH  11  12
ENDBRANCH   9  11
ENDBRANCH   3   7
BRANCH   4  19
ATOM     19  O   UNL     1      -0.990   9.681  17.107  0.00  0.00    +0.000 OA
ATOM     20  H   UNL     1      -1.065  10.368  16.409  0.00  0.00    +0.000 HD
ENDBRANCH   4  19
BRANCH   1  21
ATOM     21  C   UNL     1      -1.126  12.741  20.992  0.00  0.00    +0.000 C 
BRANCH  21  22
ATOM     22  C   UNL     1      -1.584  12.066  22.287  0.00  0.00    +0.000 C 
BRANCH  22  28
ATOM     23  C   UNL     1      -3.546  13.191  23.484  0.00  0.00    +0.000 A 
ATOM     24  C   UNL     1      -4.024  14.195  24.336  0.00  0.00    +0.000 A 
ATOM     25  C   UNL     1      -3.150  15.127  24.896  0.00  0.00    +0.000 A 
ATOM     26  C   UNL     1      -1.787  15.045  24.637  0.00  0.00    +0.000 A 
ATOM     27  C   UNL     1      -1.297  14.025  23.824  0.00  0.00    +0.000 A 
ATOM     28  C   UNL     1      -2.165  13.086  23.242  0.00  0.00    +0.000 A 
BRANCH  23  30
ATOM     29  C   UNL     1      -5.087  12.777  21.752  0.00  0.00    +0.000 C 
ATOM     30  O   UNL     1      -4.363  12.273  22.874  0.00  0.00    +0.000 OA
ENDBRANCH  23  30
ENDBRANCH  22  28
ENDBRANCH  21  22
ENDBRANCH   1  21
TORSDOF 8
ENDMDL
