MODEL 1
REMARK VINA RESULT:      -7.8      0.000      0.000
REMARK  Name = 
REMARK  2 active torsions:
REMARK  status: ('A' for Active; 'I' for Inactive)
REMARK    1  A    between atoms: C_2  and  C_3
REMARK    2  A    between atoms: N_5  and  C_6
REMARK                            x       y       z     vdW  Elec       q    Type
REMARK                         _______ _______ _______ _____ _____    ______ ____
ROOT
ATOM      1  C   UNL     1       4.514   5.632  18.629  0.00  0.00    +0.000 A 
ATOM      2  N   UNL     1       3.734   6.664  18.490  0.00  0.00    +0.000 NA
ATOM      3  N   UNL     1       2.584   6.776  19.239  0.00  0.00    +0.000 N 
ATOM      4  C   UNL     1       2.092   5.739  20.035  0.00  0.00    +0.000 A 
ATOM      5  O   UNL     1       1.055   5.750  20.697  0.00  0.00    +0.000 OA
ATOM      6  C   UNL     1       2.892   4.501  20.064  0.00  0.00    +0.000 A 
ATOM      7  C   UNL     1       2.377   3.371  20.720  0.00  0.00    +0.000 A 
ATOM      8  C   UNL     1       3.121   2.197  20.778  0.00  0.00    +0.000 A 
ATOM      9  C   UNL     1       4.397   2.167  20.224  0.00  0.00    +0.000 A 
ATOM     10  C   UNL     1       4.914   3.296  19.577  0.00  0.00    +0.000 A 
ATOM     11  C   UNL     1       4.142   4.460  19.454  0.00  0.00    +0.000 A 
ENDROOT
BRANCH   1  13
ATOM     12  O   UNL     1       6.803   6.196  18.351  0.00  0.00    +0.000 OA
ATOM     13  C   UNL     1       5.832   5.645  17.836  0.00  0.00    +0.000 C 
ATOM     14  N   UNL     1       5.893   5.051  16.571  0.00  0.00    +0.000 N 
ATOM     15  C   UNL     1       4.852   4.193  15.976  0.00  0.00    +0.000 C 
ATOM     16  C   UNL     1       4.765   4.350  14.453  0.00  0.00    +0.000 C 
ATOM     17  N   UNL     1       6.089   4.197  13.866  0.00  0.00    +0.000 N 
ATOM     18  C   UNL     1       6.288   3.385  12.787  0.00  0.00    +0.000 A 
ATOM     19  N   UNL     1       5.268   2.621  12.362  0.00  0.00    +0.000 NA
ATOM     20  C   UNL     1       5.482   1.796  11.323  0.00  0.00    +0.000 A 
ATOM     21  C   UNL     1       6.684   1.700  10.675  0.00  0.00    +0.000 A 
ATOM     22  C   UNL     1       7.670   2.513  11.163  0.00  0.00    +0.000 A 
ATOM     23  N   UNL     1       7.497   3.349  12.204  0.00  0.00    +0.000 NA
ATOM     24  C   UNL     1       7.136   5.071  14.389  0.00  0.00    +0.000 C 
ATOM     25  C   UNL     1       7.211   4.930  15.923  0.00  0.00    +0.000 C 
ENDBRANCH   1  13
BRANCH   3  26
ATOM     26  C   UNL     1       1.977   8.076  19.179  0.00  0.00    +0.000 A 
ATOM     27  C   UNL     1       1.439   8.700  20.315  0.00  0.00    +0.000 A 
ATOM     28  C   UNL     1       0.856   9.970  20.244  0.00  0.00    +0.000 A 
ATOM     29  C   UNL     1       0.795  10.643  19.029  0.00  0.00    +0.000 A 
ATOM     30  C   UNL     1       1.333  10.050  17.890  0.00  0.00    +0.000 A 
ATOM     31  C   UNL     1       1.932   8.787  17.966  0.00  0.00    +0.000 A 
ENDBRANCH   3  26
TORSDOF 2
ENDMDL
MODEL 2
REMARK VINA RESULT:      -7.6      8.869     11.292
REMARK  Name = 
REMARK  2 active torsions:
REMARK  status: ('A' for Active; 'I' for Inactive)
REMARK    1  A    between atoms: C_2  and  C_3
REMARK    2  A    between atoms: N_5  and  C_6
REMARK                            x       y       z     vdW  Elec       q    Type
REMARK                         _______ _______ _______ _____ _____    ______ ____
ROOT
ATOM      1  C   UNL     1      -2.551  11.396  18.935  0.00  0.00    +0.000 A 
ATOM      2  N   UNL     1      -3.382  12.130  19.614  0.00  0.00    +0.000 NA
ATOM      3  N   UNL     1      -4.676  12.307  19.176  0.00  0.00    +0.000 N 
ATOM      4  C   UNL     1      -5.118  11.883  17.920  0.00  0.00    +0.000 A 
ATOM      5  O   UNL     1      -6.242  12.041  17.445  0.00  0.00    +0.000 OA
ATOM      6  C   UNL     1      -4.125  11.193  17.077  0.00  0.00    +0.000 A 
ATOM      7  C   UNL     1      -4.459  10.876  15.750  0.00  0.00    +0.000 A 
ATOM      8  C   UNL     1      -3.547  10.208  14.940  0.00  0.00    +0.000 A 
ATOM      9  C   UNL     1      -2.322   9.813  15.469  0.00  0.00    +0.000 A 
ATOM     10  C   UNL     1      -1.992  10.120  16.795  0.00  0.00    +0.000 A 
ATOM     11  C   UNL     1      -2.878  10.855  17.595  0.00  0.00    +0.000 A 
ENDROOT
BRANCH   1  13
ATOM     12  O   UNL     1      -0.972  10.096  20.139  0.00  0.00    +0.000 OA
ATOM     13  C   UNL     1      -1.163  11.160  19.556  0.00  0.00    +0.000 C 
ATOM     14  N   UNL     1      -0.176  12.145  19.454  0.00  0.00    +0.000 N 
ATOM     15  C   UNL     1      -0.247  13.346  18.601  0.00  0.00    +0.000 C 
ATOM     16  C   UNL     1       0.467  14.551  19.226  0.00  0.00    +0.000 C 
ATOM     17  N   UNL     1       1.812  14.170  19.630  0.00  0.00    +0.000 N 
ATOM     18  C   UNL     1       2.887  14.946  19.305  0.00  0.00    +0.000 A 
ATOM     19  N   UNL     1       2.698  15.994  18.486  0.00  0.00    +0.000 NA
ATOM     20  C   UNL     1       3.768  16.731  18.140  0.00  0.00    +0.000 A 
ATOM     21  C   UNL     1       5.036  16.470  18.585  0.00  0.00    +0.000 A 
ATOM     22  C   UNL     1       5.146  15.391  19.418  0.00  0.00    +0.000 A 
ATOM     23  N   UNL     1       4.100  14.625  19.784  0.00  0.00    +0.000 NA
ATOM     24  C   UNL     1       1.921  13.020  20.523  0.00  0.00    +0.000 C 
ATOM     25  C   UNL     1       1.187  11.813  19.906  0.00  0.00    +0.000 C 
ENDBRANCH   1  13
BRANCH   3  26
ATOM     26  C   UNL     1      -5.542  12.906  20.152  0.00  0.00    +0.000 A 
ATOM     27  C   UNL     1      -5.534  14.285  20.409  0.00  0.00    +0.000 A 
ATOM     28  C   UNL     1      -6.389  14.857  21.358  0.00  0.00    +0.000 A 
ATOM     29  C   UNL     1      -7.270  14.057  22.075  0.00  0.00    +0.000 A 
ATOM     30  C   UNL     1      -7.307  12.686  21.829  0.00  0.00    +0.000 A 
ATOM     31  C   UNL     1      -6.463  12.119  20.867  0.00  0.00    +0.000 A 
ENDBRANCH   3  26
TORSDOF 2
ENDMDL
MODEL 3
REMARK VINA RESULT:      -7.6      3.441      6.855
REMARK  Name = 
REMARK  2 active torsions:
REMARK  status: ('A' for Active; 'I' for Inactive)
REMARK    1  A    between atoms: C_2  and  C_3
REMARK    2  A    between atoms: N_5  and  C_6
REMARK                            x       y       z     vdW  Elec       q    Type
REMARK                         _______ _______ _______ _____ _____    ______ ____
ROOT
ATOM      1  C   UNL     1       0.625  10.271  19.494  0.00  0.00    +0.000 A 
ATOM      2  N   UNL     1       1.460  11.240  19.732  0.00  0.00    +0.000 NA
ATOM      3  N   UNL     1       1.116  12.543  19.449  0.00  0.00    +0.000 N 
ATOM      4  C   UNL     1      -0.036  12.888  18.738  0.00  0.00    +0.000 A 
ATOM      5  O   UNL     1      -0.386  14.022  18.414  0.00  0.00    +0.000 OA
ATOM      6  C   UNL     1      -0.904  11.773  18.321  0.00  0.00    +0.000 A 
ATOM      7  C   UNL     1      -1.995  12.037  17.476  0.00  0.00    +0.000 A 
ATOM      8  C   UNL     1      -2.841  11.005  17.083  0.00  0.00    +0.000 A 
ATOM      9  C   UNL     1      -2.628   9.720  17.574  0.00  0.00    +0.000 A 
ATOM     10  C   UNL     1      -1.546   9.458  18.424  0.00  0.00    +0.000 A 
ATOM     11  C   UNL     1      -0.648  10.480  18.767  0.00  0.00    +0.000 A 
ENDROOT
BRANCH   1  13
ATOM     12  O   UNL     1       0.574   8.434  20.995  0.00  0.00    +0.000 OA
ATOM     13  C   UNL     1       1.047   8.862  19.945  0.00  0.00    +0.000 C 
ATOM     14  N   UNL     1       1.947   8.121  19.172  0.00  0.00    +0.000 N 
ATOM     15  C   UNL     1       2.391   8.465  17.809  0.00  0.00    +0.000 C 
ATOM     16  C   UNL     1       3.839   8.035  17.541  0.00  0.00    +0.000 C 
ATOM     17  N   UNL     1       4.012   6.636  17.903  0.00  0.00    +0.000 N 
ATOM     18  C   UNL     1       4.632   5.764  17.055  0.00  0.00    +0.000 A 
ATOM     19  N   UNL     1       4.954   6.189  15.821  0.00  0.00    +0.000 NA
ATOM     20  C   UNL     1       5.530   5.313  14.979  0.00  0.00    +0.000 A 
ATOM     21  C   UNL     1       5.807   4.016  15.318  0.00  0.00    +0.000 A 
ATOM     22  C   UNL     1       5.454   3.662  16.590  0.00  0.00    +0.000 A 
ATOM     23  N   UNL     1       4.872   4.507  17.462  0.00  0.00    +0.000 NA
ATOM     24  C   UNL     1       3.637   6.267  19.265  0.00  0.00    +0.000 C 
ATOM     25  C   UNL     1       2.189   6.716  19.544  0.00  0.00    +0.000 C 
ENDBRANCH   1  13
BRANCH   3  26
ATOM     26  C   UNL     1       2.014  13.514  20.009  0.00  0.00    +0.000 A 
ATOM     27  C   UNL     1       3.141  13.976  19.312  0.00  0.00    +0.000 A 
ATOM     28  C   UNL     1       4.003  14.929  19.867  0.00  0.00    +0.000 A 
ATOM     29  C   UNL     1       3.757  15.437  21.137  0.00  0.00    +0.000 A 
ATOM     30  C   UNL     1       2.638  15.004  21.844  0.00  0.00    +0.000 A 
ATOM     31  C   UNL     1       1.767  14.064  21.280  0.00  0.00    +0.000 A 
ENDBRANCH   3  26
TORSDOF 2
ENDMDL
MODEL 4
REMARK VINA RESULT:      -7.5      3.692      8.316
REMARK  Name = 
REMARK  2 active torsions:
REMARK  status: ('A' for Active; 'I' for Inactive)
REMARK    1  A    between atoms: C_2  and  C_3
REMARK    2  A    between atoms: N_5  and  C_6
REMARK                            x       y       z     vdW  Elec       q    Type
REMARK                         _______ _______ _______ _____ _____    ______ ____
ROOT
ATOM      1  C   UNL     1       2.660   5.511  19.620  0.00  0.00    +0.000 A 
ATOM      2  N   UNL     1       3.866   5.967  19.446  0.00  0.00    +0.000 NA
ATOM      3  N   UNL     1       4.725   5.352  18.562  0.00  0.00    +0.000 N 
ATOM      4  C   UNL     1       4.439   4.129  17.952  0.00  0.00    +0.000 A 
ATOM      5  O   UNL     1       5.171   3.502  17.187  0.00  0.00    +0.000 OA
ATOM      6  C   UNL     1       3.135   3.525  18.278  0.00  0.00    +0.000 A 
ATOM      7  C   UNL     1       2.849   2.228  17.819  0.00  0.00    +0.000 A 
ATOM      8  C   UNL     1       1.618   1.643  18.097  0.00  0.00    +0.000 A 
ATOM      9  C   UNL     1       0.655   2.371  18.789  0.00  0.00    +0.000 A 
ATOM     10  C   UNL     1       0.935   3.667  19.238  0.00  0.00    +0.000 A 
ATOM     11  C   UNL     1       2.199   4.236  19.023  0.00  0.00    +0.000 A 
ENDROOT
BRANCH   1  13
ATOM     12  O   UNL     1       1.261   5.756  21.520  0.00  0.00    +0.000 OA
ATOM     13  C   UNL     1       1.734   6.325  20.539  0.00  0.00    +0.000 C 
ATOM     14  N   UNL     1       1.449   7.661  20.239  0.00  0.00    +0.000 N 
ATOM     15  C   UNL     1       2.132   8.474  19.216  0.00  0.00    +0.000 C 
ATOM     16  C   UNL     1       1.195   9.495  18.559  0.00  0.00    +0.000 C 
ATOM     17  N   UNL     1       0.505  10.262  19.586  0.00  0.00    +0.000 N 
ATOM     18  C   UNL     1       0.438  11.624  19.517  0.00  0.00    +0.000 A 
ATOM     19  N   UNL     1       1.138  12.253  18.558  0.00  0.00    +0.000 NA
ATOM     20  C   UNL     1       1.097  13.596  18.520  0.00  0.00    +0.000 A 
ATOM     21  C   UNL     1       0.374  14.351  19.404  0.00  0.00    +0.000 A 
ATOM     22  C   UNL     1      -0.315  13.638  20.345  0.00  0.00    +0.000 A 
ATOM     23  N   UNL     1      -0.296  12.294  20.420  0.00  0.00    +0.000 NA
ATOM     24  C   UNL     1      -0.232   9.493  20.585  0.00  0.00    +0.000 C 
ATOM     25  C   UNL     1       0.703   8.453  21.233  0.00  0.00    +0.000 C 
ENDBRANCH   1  13
BRANCH   3  26
ATOM     26  C   UNL     1       5.907   6.115  18.276  0.00  0.00    +0.000 A 
ATOM     27  C   UNL     1       5.931   7.106  17.283  0.00  0.00    +0.000 A 
ATOM     28  C   UNL     1       7.088   7.848  17.019  0.00  0.00    +0.000 A 
ATOM     29  C   UNL     1       8.251   7.609  17.742  0.00  0.00    +0.000 A 
ATOM     30  C   UNL     1       8.249   6.639  18.742  0.00  0.00    +0.000 A 
ATOM     31  C   UNL     1       7.085   5.910  19.016  0.00  0.00    +0.000 A 
ENDBRANCH   3  26
TORSDOF 2
ENDMDL
MODEL 5
REMARK VINA RESULT:      -7.5      9.122     11.399
REMARK  Name = 
REMARK  2 active torsions:
REMARK  status: ('A' for Active; 'I' for Inactive)
REMARK    1  A    between atoms: C_2  and  C_3
REMARK    2  A    between atoms: N_5  and  C_6
REMARK                            x       y       z     vdW  Elec       q    Type
REMARK                         _______ _______ _______ _____ _____    ______ ____
ROOT
ATOM      1  C   UNL     1      -2.500  11.700  19.432  0.00  0.00    +0.000 A 
ATOM      2  N   UNL     1      -3.331  12.474  20.066  0.00  0.00    +0.000 NA
ATOM      3  N   UNL     1      -4.619  12.640  19.607  0.00  0.00    +0.000 N 
ATOM      4  C   UNL     1      -5.052  12.158  18.369  0.00  0.00    +0.000 A 
ATOM      5  O   UNL     1      -6.170  12.303  17.876  0.00  0.00    +0.000 OA
ATOM      6  C   UNL     1      -4.058  11.420  17.571  0.00  0.00    +0.000 A 
ATOM      7  C   UNL     1      -4.382  11.042  16.257  0.00  0.00    +0.000 A 
ATOM      8  C   UNL     1      -3.469  10.328  15.489  0.00  0.00    +0.000 A 
ATOM      9  C   UNL     1      -2.253   9.948  16.050  0.00  0.00    +0.000 A 
ATOM     10  C   UNL     1      -1.932  10.317  17.362  0.00  0.00    +0.000 A 
ATOM     11  C   UNL     1      -2.820  11.098  18.117  0.00  0.00    +0.000 A 
ENDROOT
BRANCH   1  13
ATOM     12  O   UNL     1      -0.963  10.477  20.764  0.00  0.00    +0.000 OA
ATOM     13  C   UNL     1      -1.120  11.484  20.077  0.00  0.00    +0.000 C 
ATOM     14  N   UNL     1      -0.101  12.421  19.880  0.00  0.00    +0.000 N 
ATOM     15  C   UNL     1      -0.134  13.531  18.910  0.00  0.00    +0.000 C 
ATOM     16  C   UNL     1       0.619  14.770  19.413  0.00  0.00    +0.000 C 
ATOM     17  N   UNL     1       1.951  14.388  19.857  0.00  0.00    +0.000 N 
ATOM     18  C   UNL     1       3.051  15.092  19.459  0.00  0.00    +0.000 A 
ATOM     19  N   UNL     1       2.895  16.058  18.538  0.00  0.00    +0.000 NA
ATOM     20  C   UNL     1       3.988  16.722  18.123  0.00  0.00    +0.000 A 
ATOM     21  C   UNL     1       5.247  16.465  18.595  0.00  0.00    +0.000 A 
ATOM     22  C   UNL     1       5.323  15.472  19.532  0.00  0.00    +0.000 A 
ATOM     23  N   UNL     1       4.253  14.782  19.970  0.00  0.00    +0.000 NA
ATOM     24  C   UNL     1       2.023  13.330  20.861  0.00  0.00    +0.000 C 
ATOM     25  C   UNL     1       1.250  12.092  20.366  0.00  0.00    +0.000 C 
ENDBRANCH   1  13
BRANCH   3  26
ATOM     26  C   UNL     1      -5.489  13.293  20.544  0.00  0.00    +0.000 A 
ATOM     27  C   UNL     1      -6.379  12.577  21.358  0.00  0.00    +0.000 A 
ATOM     28  C   UNL     1      -7.217  13.226  22.272  0.00  0.00    +0.000 A 
ATOM     29  C   UNL     1      -7.184  14.611  22.388  0.00  0.00    +0.000 A 
ATOM     30  C   UNL     1      -6.300  15.343  21.599  0.00  0.00    +0.000 A 
ATOM     31  C   UNL     1      -5.451  14.691  20.698  0.00  0.00    +0.000 A 
ENDBRANCH   3  26
TORSDOF 2
ENDMDL
MODEL 6
REMARK VINA RESULT:      -7.1      9.465     12.202
REMARK  Name = 
REMARK  2 active torsions:
REMARK  status: ('A' for Active; 'I' for Inactive)
REMARK    1  A    between atoms: C_2  and  C_3
REMARK    2  A    between atoms: N_5  and  C_6
REMARK                            x       y       z     vdW  Elec       q    Type
REMARK                         _______ _______ _______ _____ _____    ______ ____
ROOT
ATOM      1  C   UNL     1       8.045  14.321  20.450  0.00  0.00    +0.000 A 
ATOM      2  N   UNL     1       7.585  13.827  21.562  0.00  0.00    +0.000 NA
ATOM      3  N   UNL     1       8.052  12.620  22.035  0.00  0.00    +0.000 N 
ATOM      4  C   UNL     1       8.882  11.781  21.288  0.00  0.00    +0.000 A 
ATOM      5  O   UNL     1       9.304  10.676  21.626  0.00  0.00    +0.000 OA
ATOM      6  C   UNL     1       9.273  12.268  19.953  0.00  0.00    +0.000 A 
ATOM      7  C   UNL     1       9.979  11.410  19.094  0.00  0.00    +0.000 A 
ATOM      8  C   UNL     1      10.376  11.852  17.836  0.00  0.00    +0.000 A 
ATOM      9  C   UNL     1      10.111  13.165  17.457  0.00  0.00    +0.000 A 
ATOM     10  C   UNL     1       9.414  14.023  18.316  0.00  0.00    +0.000 A 
ATOM     11  C   UNL     1       8.950  13.562  19.557  0.00  0.00    +0.000 A 
ENDROOT
BRANCH   1  13
ATOM     12  O   UNL     1       8.392  16.614  19.944  0.00  0.00    +0.000 OA
ATOM     13  C   UNL     1       7.552  15.724  20.056  0.00  0.00    +0.000 C 
ATOM     14  N   UNL     1       6.188  15.953  19.849  0.00  0.00    +0.000 N 
ATOM     15  C   UNL     1       5.149  14.911  19.754  0.00  0.00    +0.000 C 
ATOM     16  C   UNL     1       3.800  15.376  20.318  0.00  0.00    +0.000 C 
ATOM     17  N   UNL     1       3.436  16.656  19.729  0.00  0.00    +0.000 N 
ATOM     18  C   UNL     1       2.184  16.864  19.225  0.00  0.00    +0.000 A 
ATOM     19  N   UNL     1       1.339  15.822  19.156  0.00  0.00    +0.000 NA
ATOM     20  C   UNL     1       0.121  16.025  18.623  0.00  0.00    +0.000 A 
ATOM     21  C   UNL     1      -0.299  17.240  18.154  0.00  0.00    +0.000 A 
ATOM     22  C   UNL     1       0.615  18.252  18.263  0.00  0.00    +0.000 A 
ATOM     23  N   UNL     1       1.845  18.087  18.786  0.00  0.00    +0.000 NA
ATOM     24  C   UNL     1       4.416  17.731  19.854  0.00  0.00    +0.000 C 
ATOM     25  C   UNL     1       5.777  17.259  19.305  0.00  0.00    +0.000 C 
ENDBRANCH   1  13
BRANCH   3  26
ATOM     26  C   UNL     1       7.661  12.337  23.388  0.00  0.00    +0.000 A 
ATOM     27  C   UNL     1       6.488  11.632  23.692  0.00  0.00    +0.000 A 
ATOM     28  C   UNL     1       6.123  11.357  25.015  0.00  0.00    +0.000 A 
ATOM     29  C   UNL     1       6.926  11.787  26.065  0.00  0.00    +0.000 A 
ATOM     30  C   UNL     1       8.103  12.479  25.788  0.00  0.00    +0.000 A 
ATOM     31  C   UNL     1       8.475  12.738  24.463  0.00  0.00    +0.000 A 
ENDBRANCH   3  26
TORSDOF 2
ENDMDL
MODEL 7
REMARK VINA RESULT:      -7.1      3.985      8.953
REMARK  Name = 
REMARK  2 active torsions:
REMARK  status: ('A' for Active; 'I' for Inactive)
REMARK    1  A    between atoms: C_2  and  C_3
REMARK    2  A    between atoms: N_5  and  C_6
REMARK                            x       y       z     vdW  Elec       q    Type
REMARK                         _______ _______ _______ _____ _____    ______ ____
ROOT
ATOM      1  C   UNL     1       3.569   6.816  18.254  0.00  0.00    +0.000 A 
ATOM      2  N   UNL     1       2.871   5.825  18.725  0.00  0.00    +0.000 NA
ATOM      3  N   UNL     1       3.498   4.709  19.232  0.00  0.00    +0.000 N 
ATOM      4  C   UNL     1       4.872   4.488  19.110  0.00  0.00    +0.000 A 
ATOM      5  O   UNL     1       5.494   3.500  19.500  0.00  0.00    +0.000 OA
ATOM      6  C   UNL     1       5.645   5.539  18.425  0.00  0.00    +0.000 A 
ATOM      7  C   UNL     1       7.000   5.311  18.135  0.00  0.00    +0.000 A 
ATOM      8  C   UNL     1       7.756   6.295  17.507  0.00  0.00    +0.000 A 
ATOM      9  C   UNL     1       7.172   7.524  17.214  0.00  0.00    +0.000 A 
ATOM     10  C   UNL     1       5.824   7.756  17.511  0.00  0.00    +0.000 A 
ATOM     11  C   UNL     1       5.038   6.743  18.080  0.00  0.00    +0.000 A 
ENDROOT
BRANCH   1  13
ATOM     12  O   UNL     1       2.887   8.415  16.638  0.00  0.00    +0.000 OA
ATOM     13  C   UNL     1       2.790   8.067  17.813  0.00  0.00    +0.000 C 
ATOM     14  N   UNL     1       2.014   8.771  18.739  0.00  0.00    +0.000 N 
ATOM     15  C   UNL     1       1.673   8.310  20.098  0.00  0.00    +0.000 C 
ATOM     16  C   UNL     1       1.561   9.468  21.097  0.00  0.00    +0.000 C 
ATOM     17  N   UNL     1       0.677  10.494  20.563  0.00  0.00    +0.000 N 
ATOM     18  C   UNL     1      -0.317  11.031  21.330  0.00  0.00    +0.000 A 
ATOM     19  N   UNL     1      -0.555  10.495  22.539  0.00  0.00    +0.000 NA
ATOM     20  C   UNL     1      -1.560  11.004  23.272  0.00  0.00    +0.000 A 
ATOM     21  C   UNL     1      -2.347  12.041  22.850  0.00  0.00    +0.000 A 
ATOM     22  C   UNL     1      -2.040  12.535  21.612  0.00  0.00    +0.000 A 
ATOM     23  N   UNL     1      -1.045  12.050  20.845  0.00  0.00    +0.000 NA
ATOM     24  C   UNL     1       1.015  11.018  19.243  0.00  0.00    +0.000 C 
ATOM     25  C   UNL     1       1.148   9.854  18.241  0.00  0.00    +0.000 C 
ENDBRANCH   1  13
BRANCH   3  26
ATOM     26  C   UNL     1       2.623   3.829  19.956  0.00  0.00    +0.000 A 
ATOM     27  C   UNL     1       2.619   3.769  21.357  0.00  0.00    +0.000 A 
ATOM     28  C   UNL     1       1.756   2.913  22.050  0.00  0.00    +0.000 A 
ATOM     29  C   UNL     1       0.878   2.092  21.351  0.00  0.00    +0.000 A 
ATOM     30  C   UNL     1       0.854   2.142  19.959  0.00  0.00    +0.000 A 
ATOM     31  C   UNL     1       1.707   3.012  19.269  0.00  0.00    +0.000 A 
ENDBRANCH   3  26
TORSDOF 2
ENDMDL
MODEL 8
REMARK VINA RESULT:      -7.0      9.653     12.318
REMARK  Name = 
REMARK  2 active torsions:
REMARK  status: ('A' for Active; 'I' for Inactive)
REMARK    1  A    between atoms: C_2  and  C_3
REMARK    2  A    between atoms: N_5  and  C_6
REMARK                            x       y       z     vdW  Elec       q    Type
REMARK                         _______ _______ _______ _____ _____    ______ ____
ROOT
ATOM      1  C   UNL     1       8.803  14.058  20.744  0.00  0.00    +0.000 A 
ATOM      2  N   UNL     1       7.809  14.719  20.227  0.00  0.00    +0.000 NA
ATOM      3  N   UNL     1       7.399  14.469  18.937  0.00  0.00    +0.000 N 
ATOM      4  C   UNL     1       8.113  13.651  18.058  0.00  0.00    +0.000 A 
ATOM      5  O   UNL     1       7.831  13.414  16.884  0.00  0.00    +0.000 OA
ATOM      6  C   UNL     1       9.336  13.028  18.593  0.00  0.00    +0.000 A 
ATOM      7  C   UNL     1      10.179  12.319  17.721  0.00  0.00    +0.000 A 
ATOM      8  C   UNL     1      11.330  11.707  18.204  0.00  0.00    +0.000 A 
ATOM      9  C   UNL     1      11.613  11.759  19.566  0.00  0.00    +0.000 A 
ATOM     10  C   UNL     1      10.769  12.458  20.438  0.00  0.00    +0.000 A 
ATOM     11  C   UNL     1       9.645  13.137  19.945  0.00  0.00    +0.000 A 
ENDROOT
BRANCH   1  13
ATOM     12  O   UNL     1       9.990  15.151  22.484  0.00  0.00    +0.000 OA
ATOM     13  C   UNL     1       9.120  14.322  22.225  0.00  0.00    +0.000 C 
ATOM     14  N   UNL     1       8.434  13.622  23.223  0.00  0.00    +0.000 N 
ATOM     15  C   UNL     1       7.243  12.779  23.013  0.00  0.00    +0.000 C 
ATOM     16  C   UNL     1       7.194  11.585  23.976  0.00  0.00    +0.000 C 
ATOM     17  N   UNL     1       7.380  12.048  25.343  0.00  0.00    +0.000 N 
ATOM     18  C   UNL     1       6.549  11.632  26.343  0.00  0.00    +0.000 A 
ATOM     19  N   UNL     1       5.472  10.897  26.017  0.00  0.00    +0.000 NA
ATOM     20  C   UNL     1       4.638  10.522  27.003  0.00  0.00    +0.000 A 
ATOM     21  C   UNL     1       4.834  10.848  28.317  0.00  0.00    +0.000 A 
ATOM     22  C   UNL     1       5.953  11.592  28.569  0.00  0.00    +0.000 A 
ATOM     23  N   UNL     1       6.810  11.991  27.610  0.00  0.00    +0.000 NA
ATOM     24  C   UNL     1       8.580  12.839  25.604  0.00  0.00    +0.000 C 
ATOM     25  C   UNL     1       8.640  14.028  24.624  0.00  0.00    +0.000 C 
ENDBRANCH   1  13
BRANCH   3  26
ATOM     26  C   UNL     1       6.138  15.069  18.602  0.00  0.00    +0.000 A 
ATOM     27  C   UNL     1       5.111  14.346  17.977  0.00  0.00    +0.000 A 
ATOM     28  C   UNL     1       3.885  14.942  17.662  0.00  0.00    +0.000 A 
ATOM     29  C   UNL     1       3.661  16.281  17.963  0.00  0.00    +0.000 A 
ATOM     30  C   UNL     1       4.661  17.017  18.595  0.00  0.00    +0.000 A 
ATOM     31  C   UNL     1       5.881  16.414  18.925  0.00  0.00    +0.000 A 
ENDBRANCH   3  26
TORSDOF 2
ENDMDL
MODEL 9
REMARK VINA RESULT:      -7.0      9.665     13.075
REMARK  Name = 
REMARK  2 active torsions:
REMARK  status: ('A' for Active; 'I' for Inactive)
REMARK    1  A    between atoms: C_2  and  C_3
REMARK    2  A    between atoms: N_5  and  C_6
REMARK                            x       y       z     vdW  Elec       q    Type
REMARK                         _______ _______ _______ _____ _____    ______ ____
ROOT
ATOM      1  C   UNL     1       6.634  14.735  21.727  0.00  0.00    +0.000 A 
ATOM      2  N   UNL     1       7.297  14.150  20.773  0.00  0.00    +0.000 NA
ATOM      3  N   UNL     1       8.668  14.264  20.704  0.00  0.00    +0.000 N 
ATOM      4  C   UNL     1       9.399  15.138  21.512  0.00  0.00    +0.000 A 
ATOM      5  O   UNL     1      10.615  15.323  21.480  0.00  0.00    +0.000 OA
ATOM      6  C   UNL     1       8.627  15.929  22.486  0.00  0.00    +0.000 A 
ATOM      7  C   UNL     1       9.279  16.932  23.222  0.00  0.00    +0.000 A 
ATOM      8  C   UNL     1       8.576  17.680  24.161  0.00  0.00    +0.000 A 
ATOM      9  C   UNL     1       7.236  17.392  24.401  0.00  0.00    +0.000 A 
ATOM     10  C   UNL     1       6.587  16.385  23.675  0.00  0.00    +0.000 A 
ATOM     11  C   UNL     1       7.271  15.676  22.677  0.00  0.00    +0.000 A 
ENDROOT
BRANCH   1  13
ATOM     12  O   UNL     1       4.720  13.682  22.652  0.00  0.00    +0.000 OA
ATOM     13  C   UNL     1       5.122  14.462  21.792  0.00  0.00    +0.000 C 
ATOM     14  N   UNL     1       4.259  15.085  20.885  0.00  0.00    +0.000 N 
ATOM     15  C   UNL     1       4.623  16.184  19.972  0.00  0.00    +0.000 C 
ATOM     16  C   UNL     1       3.853  16.123  18.647  0.00  0.00    +0.000 C 
ATOM     17  N   UNL     1       2.427  15.999  18.913  0.00  0.00    +0.000 N 
ATOM     18  C   UNL     1       1.523  16.795  18.270  0.00  0.00    +0.000 A 
ATOM     19  N   UNL     1       1.982  17.790  17.492  0.00  0.00    +0.000 NA
ATOM     20  C   UNL     1       1.086  18.592  16.893  0.00  0.00    +0.000 A 
ATOM     21  C   UNL     1      -0.267  18.443  17.032  0.00  0.00    +0.000 A 
ATOM     22  C   UNL     1      -0.656  17.407  17.834  0.00  0.00    +0.000 A 
ATOM     23  N   UNL     1       0.210  16.584  18.456  0.00  0.00    +0.000 NA
ATOM     24  C   UNL     1       2.020  14.887  19.767  0.00  0.00    +0.000 C 
ATOM     25  C   UNL     1       2.807  14.935  21.091  0.00  0.00    +0.000 C 
ENDBRANCH   1  13
BRANCH   3  26
ATOM     26  C   UNL     1       9.280  13.356  19.775  0.00  0.00    +0.000 A 
ATOM     27  C   UNL     1       9.506  13.701  18.434  0.00  0.00    +0.000 A 
ATOM     28  C   UNL     1      10.109  12.809  17.542  0.00  0.00    +0.000 A 
ATOM     29  C   UNL     1      10.497  11.545  17.972  0.00  0.00    +0.000 A 
ATOM     30  C   UNL     1      10.295  11.183  19.302  0.00  0.00    +0.000 A 
ATOM     31  C   UNL     1       9.706  12.084  20.198  0.00  0.00    +0.000 A 
ENDBRANCH   3  26
TORSDOF 2
ENDMDL
