MODEL 1
REMARK VINA RESULT:      -6.9      0.000      0.000
REMARK  Name = 
REMARK  3 active torsions:
REMARK  status: ('A' for Active; 'I' for Inactive)
REMARK    1  A    between atoms: C_1  and  C_2
REMARK    2  A    between atoms: N_13  and  C_14
REMARK    3  A    between atoms: C_17  and  N_18
REMARK                            x       y       z     vdW  Elec       q    Type
REMARK                         _______ _______ _______ _____ _____    ______ ____
ROOT
ATOM      1  C   UNL     1       0.073   8.932  21.727  0.00  0.00    +0.000 C 
ATOM      2  C   UNL     1       0.998   8.399  20.651  0.00  0.00    +0.000 A 
ATOM      3  N   UNL     1       1.487   7.214  20.846  0.00  0.00    +0.000 NA
ATOM      4  C   UNL     1       2.269   6.633  19.846  0.00  0.00    +0.000 A 
ATOM      5  C   UNL     1       2.747   5.334  20.032  0.00  0.00    +0.000 A 
ATOM      6  C   UNL     1       3.517   4.710  19.045  0.00  0.00    +0.000 A 
ATOM      7  C   UNL     1       3.822   5.393  17.871  0.00  0.00    +0.000 A 
ATOM      8 BR   UNL     1       4.864   4.552  16.537  0.00  0.00    +0.000 Br
ATOM      9  C   UNL     1       3.354   6.688  17.668  0.00  0.00    +0.000 A 
ATOM     10  C   UNL     1       2.567   7.291  18.657  0.00  0.00    +0.000 A 
ATOM     11  C   UNL     1       2.012   8.642  18.463  0.00  0.00    +0.000 A 
ATOM     12  O   UNL     1       2.288   9.234  17.422  0.00  0.00    +0.000 OA
ATOM     13  N   UNL     1       1.229   9.149  19.508  0.00  0.00    +0.000 N 
ENDROOT
BRANCH  13  14
ATOM     14  C   UNL     1       0.680  10.453  19.326  0.00  0.00    +0.000 A 
ATOM     15  C   UNL     1      -0.546  10.601  18.667  0.00  0.00    +0.000 A 
ATOM     16  C   UNL     1      -1.076  11.874  18.438  0.00  0.00    +0.000 A 
ATOM     17  C   UNL     1      -0.362  13.017  18.798  0.00  0.00    +0.000 A 
ATOM     18  C   UNL     1       0.831  12.865  19.509  0.00  0.00    +0.000 A 
ATOM     19  C   UNL     1       1.362  11.594  19.757  0.00  0.00    +0.000 A 
BRANCH  17  20
ATOM     20  N   UNL     1      -0.935  14.283  18.638  0.00  0.00    +0.000 N 
ATOM     21  H   UNL     1      -1.463  14.591  19.449  0.00  0.00    +0.000 HD
ATOM     22  H   UNL     1      -1.474  14.378  17.782  0.00  0.00    +0.000 HD
ENDBRANCH  17  20
ENDBRANCH  13  14
TORSDOF 2
ENDMDL
MODEL 2
REMARK VINA RESULT:      -6.9      0.233      1.100
REMARK  Name = 
REMARK  3 active torsions:
REMARK  status: ('A' for Active; 'I' for Inactive)
REMARK    1  A    between atoms: C_1  and  C_2
REMARK    2  A    between atoms: N_13  and  C_14
REMARK    3  A    between atoms: C_17  and  N_18
REMARK                            x       y       z     vdW  Elec       q    Type
REMARK                         _______ _______ _______ _____ _____    ______ ____
ROOT
ATOM      1  C   UNL     1       0.089   9.257  21.766  0.00  0.00    +0.000 C 
ATOM      2  C   UNL     1       0.974   8.649  20.697  0.00  0.00    +0.000 A 
ATOM      3  N   UNL     1       1.440   7.463  20.939  0.00  0.00    +0.000 NA
ATOM      4  C   UNL     1       2.182   6.815  19.950  0.00  0.00    +0.000 A 
ATOM      5  C   UNL     1       2.634   5.515  20.188  0.00  0.00    +0.000 A 
ATOM      6  C   UNL     1       3.364   4.824  19.216  0.00  0.00    +0.000 A 
ATOM      7  C   UNL     1       3.656   5.441  18.003  0.00  0.00    +0.000 A 
ATOM      8 BR   UNL     1       4.643   4.510  16.687  0.00  0.00    +0.000 Br
ATOM      9  C   UNL     1       3.214   6.736  17.747  0.00  0.00    +0.000 A 
ATOM     10  C   UNL     1       2.466   7.406  18.724  0.00  0.00    +0.000 A 
ATOM     11  C   UNL     1       1.939   8.759  18.476  0.00  0.00    +0.000 A 
ATOM     12  O   UNL     1       2.203   9.293  17.401  0.00  0.00    +0.000 OA
ATOM     13  N   UNL     1       1.195   9.336  19.513  0.00  0.00    +0.000 N 
ENDROOT
BRANCH  13  14
ATOM     14  C   UNL     1       0.672  10.643  19.280  0.00  0.00    +0.000 A 
ATOM     15  C   UNL     1       1.416  11.764  19.664  0.00  0.00    +0.000 A 
ATOM     16  C   UNL     1       0.900  13.051  19.488  0.00  0.00    +0.000 A 
ATOM     17  C   UNL     1      -0.392  13.236  18.993  0.00  0.00    +0.000 A 
ATOM     18  C   UNL     1      -1.108  12.120  18.554  0.00  0.00    +0.000 A 
ATOM     19  C   UNL     1      -0.591  10.829  18.712  0.00  0.00    +0.000 A 
BRANCH  17  20
ATOM     20  N   UNL     1      -0.870  14.527  18.743  0.00  0.00    +0.000 N 
ATOM     21  H   UNL     1      -0.704  14.841  17.792  0.00  0.00    +0.000 HD
ATOM     22  H   UNL     1      -0.557  15.213  19.423  0.00  0.00    +0.000 HD
ENDBRANCH  17  20
ENDBRANCH  13  14
TORSDOF 2
ENDMDL
MODEL 3
REMARK VINA RESULT:      -6.8      5.907      7.559
REMARK  Name = 
REMARK  3 active torsions:
REMARK  status: ('A' for Active; 'I' for Inactive)
REMARK    1  A    between atoms: C_1  and  C_2
REMARK    2  A    between atoms: N_13  and  C_14
REMARK    3  A    between atoms: C_17  and  N_18
REMARK                            x       y       z     vdW  Elec       q    Type
REMARK                         _______ _______ _______ _____ _____    ______ ____
ROOT
ATOM      1  C   UNL     1       6.691   5.477  19.520  0.00  0.00    +0.000 C 
ATOM      2  C   UNL     1       6.228   5.026  18.149  0.00  0.00    +0.000 A 
ATOM      3  N   UNL     1       7.006   5.320  17.153  0.00  0.00    +0.000 NA
ATOM      4  C   UNL     1       6.679   4.848  15.880  0.00  0.00    +0.000 A 
ATOM      5  C   UNL     1       7.546   5.115  14.818  0.00  0.00    +0.000 A 
ATOM      6  C   UNL     1       7.265   4.643  13.532  0.00  0.00    +0.000 A 
ATOM      7  C   UNL     1       6.102   3.912  13.303  0.00  0.00    +0.000 A 
ATOM      8 BR   UNL     1       5.718   3.275  11.565  0.00  0.00    +0.000 Br
ATOM      9  C   UNL     1       5.226   3.637  14.349  0.00  0.00    +0.000 A 
ATOM     10  C   UNL     1       5.533   4.098  15.635  0.00  0.00    +0.000 A 
ATOM     11  C   UNL     1       4.658   3.789  16.779  0.00  0.00    +0.000 A 
ATOM     12  O   UNL     1       3.635   3.142  16.563  0.00  0.00    +0.000 OA
ATOM     13  N   UNL     1       5.061   4.289  18.024  0.00  0.00    +0.000 N 
ENDROOT
BRANCH  13  14
ATOM     14  C   UNL     1       4.225   3.987  19.140  0.00  0.00    +0.000 A 
ATOM     15  C   UNL     1       4.315   2.732  19.752  0.00  0.00    +0.000 A 
ATOM     16  C   UNL     1       3.471   2.402  20.815  0.00  0.00    +0.000 A 
ATOM     17  C   UNL     1       2.480   3.289  21.238  0.00  0.00    +0.000 A 
ATOM     18  C   UNL     1       2.433   4.563  20.667  0.00  0.00    +0.000 A 
ATOM     19  C   UNL     1       3.285   4.907  19.611  0.00  0.00    +0.000 A 
BRANCH  17  20
ATOM     20  N   UNL     1       1.693   2.984  22.354  0.00  0.00    +0.000 N 
ATOM     21  H   UNL     1       2.215   2.984  23.226  0.00  0.00    +0.000 HD
ATOM     22  H   UNL     1       1.147   2.135  22.244  0.00  0.00    +0.000 HD
ENDBRANCH  17  20
ENDBRANCH  13  14
TORSDOF 2
ENDMDL
MODEL 4
REMARK VINA RESULT:      -6.8      3.020      6.636
REMARK  Name = 
REMARK  3 active torsions:
REMARK  status: ('A' for Active; 'I' for Inactive)
REMARK    1  A    between atoms: C_1  and  C_2
REMARK    2  A    between atoms: N_13  and  C_14
REMARK    3  A    between atoms: C_17  and  N_18
REMARK                            x       y       z     vdW  Elec       q    Type
REMARK                         _______ _______ _______ _____ _____    ______ ____
ROOT
ATOM      1  C   UNL     1       2.361   5.249  20.894  0.00  0.00    +0.000 C 
ATOM      2  C   UNL     1       2.023   6.559  20.213  0.00  0.00    +0.000 A 
ATOM      3  N   UNL     1       1.282   7.385  20.885  0.00  0.00    +0.000 NA
ATOM      4  C   UNL     1       1.018   8.646  20.347  0.00  0.00    +0.000 A 
ATOM      5  C   UNL     1       0.268   9.556  21.096  0.00  0.00    +0.000 A 
ATOM      6  C   UNL     1      -0.002  10.836  20.602  0.00  0.00    +0.000 A 
ATOM      7  C   UNL     1       0.469  11.204  19.344  0.00  0.00    +0.000 A 
ATOM      8 BR   UNL     1       0.104  12.932  18.672  0.00  0.00    +0.000 Br
ATOM      9  C   UNL     1       1.217  10.310  18.583  0.00  0.00    +0.000 A 
ATOM     10  C   UNL     1       1.496   9.040  19.102  0.00  0.00    +0.000 A 
ATOM     11  C   UNL     1       2.325   8.081  18.350  0.00  0.00    +0.000 A 
ATOM     12  O   UNL     1       2.734   8.419  17.241  0.00  0.00    +0.000 OA
ATOM     13  N   UNL     1       2.553   6.842  18.963  0.00  0.00    +0.000 N 
ENDROOT
BRANCH  13  14
ATOM     14  C   UNL     1       3.361   5.910  18.247  0.00  0.00    +0.000 A 
ATOM     15  C   UNL     1       4.730   6.157  18.092  0.00  0.00    +0.000 A 
ATOM     16  C   UNL     1       5.527   5.279  17.354  0.00  0.00    +0.000 A 
ATOM     17  C   UNL     1       4.962   4.183  16.701  0.00  0.00    +0.000 A 
ATOM     18  C   UNL     1       3.609   3.904  16.908  0.00  0.00    +0.000 A 
ATOM     19  C   UNL     1       2.805   4.770  17.659  0.00  0.00    +0.000 A 
BRANCH  17  20
ATOM     20  N   UNL     1       5.779   3.265  16.032  0.00  0.00    +0.000 N 
ATOM     21  H   UNL     1       5.699   3.318  15.021  0.00  0.00    +0.000 HD
ATOM     22  H   UNL     1       5.675   2.312  16.366  0.00  0.00    +0.000 HD
ENDBRANCH  17  20
ENDBRANCH  13  14
TORSDOF 2
ENDMDL
MODEL 5
REMARK VINA RESULT:      -6.7      3.336      7.231
REMARK  Name = 
REMARK  3 active torsions:
REMARK  status: ('A' for Active; 'I' for Inactive)
REMARK    1  A    between atoms: C_1  and  C_2
REMARK    2  A    between atoms: N_13  and  C_14
REMARK    3  A    between atoms: C_17  and  N_18
REMARK                            x       y       z     vdW  Elec       q    Type
REMARK                         _______ _______ _______ _____ _____    ______ ____
ROOT
ATOM      1  C   UNL     1       3.679   7.012  16.805  0.00  0.00    +0.000 C 
ATOM      2  C   UNL     1       2.936   7.368  18.077  0.00  0.00    +0.000 A 
ATOM      3  N   UNL     1       2.574   8.607  18.205  0.00  0.00    +0.000 NA
ATOM      4  C   UNL     1       1.804   8.974  19.310  0.00  0.00    +0.000 A 
ATOM      5  C   UNL     1       1.364  10.296  19.419  0.00  0.00    +0.000 A 
ATOM      6  C   UNL     1       0.575  10.699  20.500  0.00  0.00    +0.000 A 
ATOM      7  C   UNL     1       0.234   9.779  21.487  0.00  0.00    +0.000 A 
ATOM      8 BR   UNL     1      -0.831  10.321  22.951  0.00  0.00    +0.000 Br
ATOM      9  C   UNL     1       0.663   8.457  21.397  0.00  0.00    +0.000 A 
ATOM     10  C   UNL     1       1.435   8.065  20.296  0.00  0.00    +0.000 A 
ATOM     11  C   UNL     1       1.870   6.666  20.137  0.00  0.00    +0.000 A 
ATOM     12  O   UNL     1       1.561   5.863  21.016  0.00  0.00    +0.000 OA
ATOM     13  N   UNL     1       2.629   6.377  18.996  0.00  0.00    +0.000 N 
ENDROOT
BRANCH  13  14
ATOM     14  C   UNL     1       3.047   5.024  18.828  0.00  0.00    +0.000 A 
ATOM     15  C   UNL     1       2.243   4.135  18.105  0.00  0.00    +0.000 A 
ATOM     16  C   UNL     1       2.613   2.795  17.971  0.00  0.00    +0.000 A 
ATOM     17  C   UNL     1       3.751   2.304  18.612  0.00  0.00    +0.000 A 
ATOM     18  C   UNL     1       4.584   3.204  19.281  0.00  0.00    +0.000 A 
ATOM     19  C   UNL     1       4.229   4.552  19.407  0.00  0.00    +0.000 A 
BRANCH  17  20
ATOM     20  N   UNL     1       4.158   0.982  18.407  0.00  0.00    +0.000 N 
ATOM     21  H   UNL     1       4.974   0.722  18.954  0.00  0.00    +0.000 HD
ATOM     22  H   UNL     1       4.274   0.741  17.427  0.00  0.00    +0.000 HD
ENDBRANCH  17  20
ENDBRANCH  13  14
TORSDOF 2
ENDMDL
MODEL 6
REMARK VINA RESULT:      -6.7      3.031      6.558
REMARK  Name = 
REMARK  3 active torsions:
REMARK  status: ('A' for Active; 'I' for Inactive)
REMARK    1  A    between atoms: C_1  and  C_2
REMARK    2  A    between atoms: N_13  and  C_14
REMARK    3  A    between atoms: C_17  and  N_18
REMARK                            x       y       z     vdW  Elec       q    Type
REMARK                         _______ _______ _______ _____ _____    ______ ____
ROOT
ATOM      1  C   UNL     1       2.431   5.302  20.844  0.00  0.00    +0.000 C 
ATOM      2  C   UNL     1       2.036   6.606  20.181  0.00  0.00    +0.000 A 
ATOM      3  N   UNL     1       1.290   7.406  20.879  0.00  0.00    +0.000 NA
ATOM      4  C   UNL     1       0.973   8.661  20.358  0.00  0.00    +0.000 A 
ATOM      5  C   UNL     1       0.218   9.544  21.133  0.00  0.00    +0.000 A 
ATOM      6  C   UNL     1      -0.103  10.818  20.655  0.00  0.00    +0.000 A 
ATOM      7  C   UNL     1       0.322  11.208  19.388  0.00  0.00    +0.000 A 
ATOM      8 BR   UNL     1      -0.112  12.929  18.738  0.00  0.00    +0.000 Br
ATOM      9  C   UNL     1       1.075  10.342  18.600  0.00  0.00    +0.000 A 
ATOM     10  C   UNL     1       1.406   9.077  19.103  0.00  0.00    +0.000 A 
ATOM     11  C   UNL     1       2.241   8.148  18.322  0.00  0.00    +0.000 A 
ATOM     12  O   UNL     1       2.610   8.505  17.205  0.00  0.00    +0.000 OA
ATOM     13  N   UNL     1       2.522   6.913  18.920  0.00  0.00    +0.000 N 
ENDROOT
BRANCH  13  14
ATOM     14  C   UNL     1       3.338   6.009  18.176  0.00  0.00    +0.000 A 
ATOM     15  C   UNL     1       2.790   4.811  17.704  0.00  0.00    +0.000 A 
ATOM     16  C   UNL     1       3.585   3.892  17.015  0.00  0.00    +0.000 A 
ATOM     17  C   UNL     1       4.951   4.120  16.848  0.00  0.00    +0.000 A 
ATOM     18  C   UNL     1       5.483   5.343  17.265  0.00  0.00    +0.000 A 
ATOM     19  C   UNL     1       4.689   6.276  17.942  0.00  0.00    +0.000 A 
BRANCH  17  20
ATOM     20  N   UNL     1       5.724   3.235  16.088  0.00  0.00    +0.000 N 
ATOM     21  H   UNL     1       5.190   2.743  15.377  0.00  0.00    +0.000 HD
ATOM     22  H   UNL     1       6.276   2.594  16.650  0.00  0.00    +0.000 HD
ENDBRANCH  17  20
ENDBRANCH  13  14
TORSDOF 2
ENDMDL
MODEL 7
REMARK VINA RESULT:      -6.7      3.363      7.348
REMARK  Name = 
REMARK  3 active torsions:
REMARK  status: ('A' for Active; 'I' for Inactive)
REMARK    1  A    between atoms: C_1  and  C_2
REMARK    2  A    between atoms: N_13  and  C_14
REMARK    3  A    between atoms: C_17  and  N_18
REMARK                            x       y       z     vdW  Elec       q    Type
REMARK                         _______ _______ _______ _____ _____    ______ ____
ROOT
ATOM      1  C   UNL     1       3.715   6.761  16.859  0.00  0.00    +0.000 C 
ATOM      2  C   UNL     1       2.959   7.181  18.103  0.00  0.00    +0.000 A 
ATOM      3  N   UNL     1       2.667   8.441  18.204  0.00  0.00    +0.000 NA
ATOM      4  C   UNL     1       1.889   8.869  19.281  0.00  0.00    +0.000 A 
ATOM      5  C   UNL     1       1.526  10.216  19.358  0.00  0.00    +0.000 A 
ATOM      6  C   UNL     1       0.731  10.681  20.410  0.00  0.00    +0.000 A 
ATOM      7  C   UNL     1       0.307   9.798  21.399  0.00  0.00    +0.000 A 
ATOM      8 BR   UNL     1      -0.766  10.425  22.824  0.00  0.00    +0.000 Br
ATOM      9  C   UNL     1       0.659   8.452  21.340  0.00  0.00    +0.000 A 
ATOM     10  C   UNL     1       1.438   7.999  20.268  0.00  0.00    +0.000 A 
ATOM     11  C   UNL     1       1.793   6.574  20.140  0.00  0.00    +0.000 A 
ATOM     12  O   UNL     1       1.412   5.805  21.020  0.00  0.00    +0.000 OA
ATOM     13  N   UNL     1       2.566   6.224  19.026  0.00  0.00    +0.000 N 
ENDROOT
BRANCH  13  14
ATOM     14  C   UNL     1       2.908   4.845  18.889  0.00  0.00    +0.000 A 
ATOM     15  C   UNL     1       4.102   4.370  19.443  0.00  0.00    +0.000 A 
ATOM     16  C   UNL     1       4.476   3.034  19.278  0.00  0.00    +0.000 A 
ATOM     17  C   UNL     1       3.704   2.171  18.499  0.00  0.00    +0.000 A 
ATOM     18  C   UNL     1       2.484   2.631  17.999  0.00  0.00    +0.000 A 
ATOM     19  C   UNL     1       2.094   3.964  18.173  0.00  0.00    +0.000 A 
BRANCH  17  20
ATOM     20  N   UNL     1       4.043   0.817  18.405  0.00  0.00    +0.000 N 
ATOM     21  H   UNL     1       3.914   0.308  19.275  0.00  0.00    +0.000 HD
ATOM     22  H   UNL     1       4.966   0.657  18.012  0.00  0.00    +0.000 HD
ENDBRANCH  17  20
ENDBRANCH  13  14
TORSDOF 2
ENDMDL
MODEL 8
REMARK VINA RESULT:      -6.5      5.957      7.548
REMARK  Name = 
REMARK  3 active torsions:
REMARK  status: ('A' for Active; 'I' for Inactive)
REMARK    1  A    between atoms: C_1  and  C_2
REMARK    2  A    between atoms: N_13  and  C_14
REMARK    3  A    between atoms: C_17  and  N_18
REMARK                            x       y       z     vdW  Elec       q    Type
REMARK                         _______ _______ _______ _____ _____    ______ ____
ROOT
ATOM      1  C   UNL     1       6.450   5.420  19.620  0.00  0.00    +0.000 C 
ATOM      2  C   UNL     1       6.063   4.975  18.225  0.00  0.00    +0.000 A 
ATOM      3  N   UNL     1       6.868   5.316  17.266  0.00  0.00    +0.000 NA
ATOM      4  C   UNL     1       6.613   4.853  15.974  0.00  0.00    +0.000 A 
ATOM      5  C   UNL     1       7.511   5.172  14.953  0.00  0.00    +0.000 A 
ATOM      6  C   UNL     1       7.302   4.712  13.649  0.00  0.00    +0.000 A 
ATOM      7  C   UNL     1       6.181   3.938  13.361  0.00  0.00    +0.000 A 
ATOM      8 BR   UNL     1       5.895   3.316  11.599  0.00  0.00    +0.000 Br
ATOM      9  C   UNL     1       5.275   3.610  14.365  0.00  0.00    +0.000 A 
ATOM     10  C   UNL     1       5.510   4.062  15.670  0.00  0.00    +0.000 A 
ATOM     11  C   UNL     1       4.602   3.698  16.772  0.00  0.00    +0.000 A 
ATOM     12  O   UNL     1       3.616   3.013  16.504  0.00  0.00    +0.000 OA
ATOM     13  N   UNL     1       4.933   4.192  18.039  0.00  0.00    +0.000 N 
ENDROOT
BRANCH  13  14
ATOM     14  C   UNL     1       4.065   3.838  19.115  0.00  0.00    +0.000 A 
ATOM     15  C   UNL     1       3.068   4.732  19.522  0.00  0.00    +0.000 A 
ATOM     16  C   UNL     1       2.240   4.423  20.604  0.00  0.00    +0.000 A 
ATOM     17  C   UNL     1       2.439   3.254  21.339  0.00  0.00    +0.000 A 
ATOM     18  C   UNL     1       3.393   2.336  20.894  0.00  0.00    +0.000 A 
ATOM     19  C   UNL     1       4.216   2.631  19.802  0.00  0.00    +0.000 A 
BRANCH  17  20
ATOM     20  N   UNL     1       1.555   2.913  22.370  0.00  0.00    +0.000 N 
ATOM     21  H   UNL     1       1.335   3.691  22.985  0.00  0.00    +0.000 HD
ATOM     22  H   UNL     1       1.842   2.092  22.894  0.00  0.00    +0.000 HD
ENDBRANCH  17  20
ENDBRANCH  13  14
TORSDOF 2
ENDMDL
MODEL 9
REMARK VINA RESULT:      -6.3      3.304      7.315
REMARK  Name = 
REMARK  3 active torsions:
REMARK  status: ('A' for Active; 'I' for Inactive)
REMARK    1  A    between atoms: C_1  and  C_2
REMARK    2  A    between atoms: N_13  and  C_14
REMARK    3  A    between atoms: C_17  and  N_18
REMARK                            x       y       z     vdW  Elec       q    Type
REMARK                         _______ _______ _______ _____ _____    ______ ____
ROOT
ATOM      1  C   UNL     1       4.489   6.488  16.319  0.00  0.00    +0.000 C 
ATOM      2  C   UNL     1       3.607   7.072  17.404  0.00  0.00    +0.000 A 
ATOM      3  N   UNL     1       3.360   8.343  17.325  0.00  0.00    +0.000 NA
ATOM      4  C   UNL     1       2.478   8.917  18.242  0.00  0.00    +0.000 A 
ATOM      5  C   UNL     1       2.167  10.274  18.121  0.00  0.00    +0.000 A 
ATOM      6  C   UNL     1       1.272  10.882  19.007  0.00  0.00    +0.000 A 
ATOM      7  C   UNL     1       0.694  10.134  20.028  0.00  0.00    +0.000 A 
ATOM      8 BR   UNL     1      -0.514  10.954  21.228  0.00  0.00    +0.000 Br
ATOM      9  C   UNL     1       0.992   8.780  20.165  0.00  0.00    +0.000 A 
ATOM     10  C   UNL     1       1.874   8.181  19.256  0.00  0.00    +0.000 A 
ATOM     11  C   UNL     1       2.179   6.742  19.335  0.00  0.00    +0.000 A 
ATOM     12  O   UNL     1       1.662   6.092  20.241  0.00  0.00    +0.000 OA
ATOM     13  N   UNL     1       3.065   6.241  18.373  0.00  0.00    +0.000 N 
ENDROOT
BRANCH  13  14
ATOM     14  C   UNL     1       3.361   4.847  18.435  0.00  0.00    +0.000 A 
ATOM     15  C   UNL     1       2.620   3.948  17.659  0.00  0.00    +0.000 A 
ATOM     16  C   UNL     1       2.863   2.574  17.743  0.00  0.00    +0.000 A 
ATOM     17  C   UNL     1       3.797   2.072  18.650  0.00  0.00    +0.000 A 
ATOM     18  C   UNL     1       4.577   2.974  19.377  0.00  0.00    +0.000 A 
ATOM     19  C   UNL     1       4.351   4.352  19.288  0.00  0.00    +0.000 A 
BRANCH  17  20
ATOM     20  N   UNL     1       4.092   0.704  18.670  0.00  0.00    +0.000 N 
ATOM     21  H   UNL     1       4.646   0.400  17.875  0.00  0.00    +0.000 HD
ATOM     22  H   UNL     1       3.275   0.116  18.803  0.00  0.00    +0.000 HD
ENDBRANCH  17  20
ENDBRANCH  13  14
TORSDOF 2
ENDMDL
