MODEL 1
REMARK VINA RESULT:      -7.3      0.000      0.000
REMARK  Name = 
REMARK  3 active torsions:
REMARK  status: ('A' for Active; 'I' for Inactive)
REMARK    1  A    between atoms: C_2  and  C_3
REMARK    2  A    between atoms: C_3  and  N_4
REMARK    3  A    between atoms: C_7  and  O_8
REMARK                            x       y       z     vdW  Elec       q    Type
REMARK                         _______ _______ _______ _____ _____    ______ ____
ROOT
ATOM      1  O   UNL     1       3.360   8.136  17.664  0.00  0.00    +0.000 OA
ATOM      2  C   UNL     1       2.910   7.123  18.207  0.00  0.00    +0.000 C 
ATOM      3  N   UNL     1       3.439   5.832  18.011  0.00  0.00    +0.000 N 
ATOM      4  C   UNL     1       4.626   5.596  17.250  0.00  0.00    +0.000 A 
ATOM      5  C   UNL     1       4.756   6.227  15.998  0.00  0.00    +0.000 A 
ATOM      6  C   UNL     1       5.852   5.982  15.166  0.00  0.00    +0.000 A 
ATOM      7  C   UNL     1       6.851   5.114  15.582  0.00  0.00    +0.000 A 
ATOM      8  C   UNL     1       6.754   4.499  16.828  0.00  0.00    +0.000 A 
ATOM      9  C   UNL     1       5.653   4.726  17.684  0.00  0.00    +0.000 A 
ATOM     10  C   UNL     1       5.728   4.037  19.035  0.00  0.00    +0.000 C 
ATOM     11  C   UNL     1       4.638   4.323  20.066  0.00  0.00    +0.000 C 
ATOM     12  C   UNL     1       3.300   3.926  19.517  0.00  0.00    +0.000 A 
ATOM     13  C   UNL     1       2.586   2.830  20.014  0.00  0.00    +0.000 A 
ATOM     14  C   UNL     1       1.362   2.474  19.446  0.00  0.00    +0.000 A 
ATOM     15  C   UNL     1       0.841   3.204  18.376  0.00  0.00    +0.000 A 
ATOM     16  C   UNL     1       1.541   4.301  17.883  0.00  0.00    +0.000 A 
ATOM     17  C   UNL     1       2.765   4.668  18.461  0.00  0.00    +0.000 A 
ENDROOT
BRANCH   2  18
ATOM     18  C   UNL     1       1.764   7.192  19.258  0.00  0.00    +0.000 C 
BRANCH  18  19
ATOM     19  N   UNL     1       1.751   8.449  20.045  0.00  0.00    +0.000 NA
ATOM     20  C   UNL     1       0.829   9.440  19.455  0.00  0.00    +0.000 C 
ATOM     21  C   UNL     1      -0.188   9.810  20.521  0.00  0.00    +0.000 C 
ATOM     22  C   UNL     1      -0.167   8.630  21.470  0.00  0.00    +0.000 C 
ATOM     23  C   UNL     1       1.293   8.196  21.422  0.00  0.00    +0.000 C 
BRANCH  22  24
ATOM     24  O   UNL     1      -0.591   9.003  22.771  0.00  0.00    +0.000 OA
ATOM     25  H   UNL     1      -0.085   9.791  23.037  0.00  0.00    +0.000 HD
ENDBRANCH  22  24
ENDBRANCH  18  19
ENDBRANCH   2  18
TORSDOF 3
ENDMDL
MODEL 2
REMARK VINA RESULT:      -6.8      2.686      6.072
REMARK  Name = 
REMARK  3 active torsions:
REMARK  status: ('A' for Active; 'I' for Inactive)
REMARK    1  A    between atoms: C_2  and  C_3
REMARK    2  A    between atoms: C_3  and  N_4
REMARK    3  A    between atoms: C_7  and  O_8
REMARK                            x       y       z     vdW  Elec       q    Type
REMARK                         _______ _______ _______ _____ _____    ______ ____
ROOT
ATOM      1  O   UNL     1       5.535   3.525  19.033  0.00  0.00    +0.000 OA
ATOM      2  C   UNL     1       5.032   4.653  19.035  0.00  0.00    +0.000 C 
ATOM      3  N   UNL     1       3.646   4.890  18.936  0.00  0.00    +0.000 N 
ATOM      4  C   UNL     1       2.684   3.832  18.942  0.00  0.00    +0.000 A 
ATOM      5  C   UNL     1       2.913   2.713  18.117  0.00  0.00    +0.000 A 
ATOM      6  C   UNL     1       1.980   1.680  18.012  0.00  0.00    +0.000 A 
ATOM      7  C   UNL     1       0.806   1.736  18.748  0.00  0.00    +0.000 A 
ATOM      8  C   UNL     1       0.570   2.821  19.589  0.00  0.00    +0.000 A 
ATOM      9  C   UNL     1       1.496   3.882  19.707  0.00  0.00    +0.000 A 
ATOM     10  C   UNL     1       1.129   4.956  20.715  0.00  0.00    +0.000 C 
ATOM     11  C   UNL     1       2.129   6.076  20.993  0.00  0.00    +0.000 C 
ATOM     12  C   UNL     1       2.412   6.832  19.727  0.00  0.00    +0.000 A 
ATOM     13  C   UNL     1       1.972   8.145  19.529  0.00  0.00    +0.000 A 
ATOM     14  C   UNL     1       2.226   8.795  18.321  0.00  0.00    +0.000 A 
ATOM     15  C   UNL     1       2.914   8.140  17.298  0.00  0.00    +0.000 A 
ATOM     16  C   UNL     1       3.363   6.838  17.491  0.00  0.00    +0.000 A 
ATOM     17  C   UNL     1       3.121   6.187  18.709  0.00  0.00    +0.000 A 
ENDROOT
BRANCH   2  18
ATOM     18  C   UNL     1       5.886   5.935  19.256  0.00  0.00    +0.000 C 
BRANCH  18  19
ATOM     19  N   UNL     1       7.002   6.083  18.291  0.00  0.00    +0.000 NA
ATOM     20  C   UNL     1       7.638   4.782  18.005  0.00  0.00    +0.000 C 
ATOM     21  C   UNL     1       7.553   4.550  16.506  0.00  0.00    +0.000 C 
ATOM     22  C   UNL     1       6.398   5.426  16.067  0.00  0.00    +0.000 C 
ATOM     23  C   UNL     1       6.513   6.618  17.008  0.00  0.00    +0.000 C 
BRANCH  22  24
ATOM     24  O   UNL     1       6.509   5.785  14.701  0.00  0.00    +0.000 OA
ATOM     25  H   UNL     1       6.683   4.974  14.191  0.00  0.00    +0.000 HD
ENDBRANCH  22  24
ENDBRANCH  18  19
ENDBRANCH   2  18
TORSDOF 3
ENDMDL
MODEL 3
REMARK VINA RESULT:      -6.8      2.815      5.952
REMARK  Name = 
REMARK  3 active torsions:
REMARK  status: ('A' for Active; 'I' for Inactive)
REMARK    1  A    between atoms: C_2  and  C_3
REMARK    2  A    between atoms: C_3  and  N_4
REMARK    3  A    between atoms: C_7  and  O_8
REMARK                            x       y       z     vdW  Elec       q    Type
REMARK                         _______ _______ _______ _____ _____    ______ ____
ROOT
ATOM      1  O   UNL     1       5.499   3.135  19.333  0.00  0.00    +0.000 OA
ATOM      2  C   UNL     1       5.077   4.291  19.239  0.00  0.00    +0.000 C 
ATOM      3  N   UNL     1       3.725   4.611  18.998  0.00  0.00    +0.000 N 
ATOM      4  C   UNL     1       2.697   3.618  18.958  0.00  0.00    +0.000 A 
ATOM      5  C   UNL     1       2.924   2.448  18.208  0.00  0.00    +0.000 A 
ATOM      6  C   UNL     1       1.937   1.472  18.059  0.00  0.00    +0.000 A 
ATOM      7  C   UNL     1       0.706   1.639  18.676  0.00  0.00    +0.000 A 
ATOM      8  C   UNL     1       0.468   2.777  19.444  0.00  0.00    +0.000 A 
ATOM      9  C   UNL     1       1.449   3.781  19.603  0.00  0.00    +0.000 A 
ATOM     10  C   UNL     1       1.064   4.925  20.525  0.00  0.00    +0.000 C 
ATOM     11  C   UNL     1       2.109   5.992  20.848  0.00  0.00    +0.000 C 
ATOM     12  C   UNL     1       2.558   6.664  19.583  0.00  0.00    +0.000 A 
ATOM     13  C   UNL     1       2.229   7.991  19.288  0.00  0.00    +0.000 A 
ATOM     14  C   UNL     1       2.637   8.563  18.082  0.00  0.00    +0.000 A 
ATOM     15  C   UNL     1       3.370   7.817  17.159  0.00  0.00    +0.000 A 
ATOM     16  C   UNL     1       3.710   6.499  17.450  0.00  0.00    +0.000 A 
ATOM     17  C   UNL     1       3.313   5.926  18.667  0.00  0.00    +0.000 A 
ENDROOT
BRANCH   2  18
ATOM     18  C   UNL     1       5.991   5.526  19.485  0.00  0.00    +0.000 C 
BRANCH  18  19
ATOM     19  N   UNL     1       7.191   5.563  18.613  0.00  0.00    +0.000 NA
ATOM     20  C   UNL     1       6.829   5.359  17.197  0.00  0.00    +0.000 C 
ATOM     21  C   UNL     1       7.325   6.568  16.420  0.00  0.00    +0.000 C 
ATOM     22  C   UNL     1       7.441   7.653  17.469  0.00  0.00    +0.000 C 
ATOM     23  C   UNL     1       7.862   6.871  18.707  0.00  0.00    +0.000 C 
BRANCH  22  24
ATOM     24  O   UNL     1       8.383   8.642  17.091  0.00  0.00    +0.000 OA
ATOM     25  H   UNL     1       9.273   8.254  17.171  0.00  0.00    +0.000 HD
ENDBRANCH  22  24
ENDBRANCH  18  19
ENDBRANCH   2  18
TORSDOF 3
ENDMDL
MODEL 4
REMARK VINA RESULT:      -6.7      5.864      8.455
REMARK  Name = 
REMARK  3 active torsions:
REMARK  status: ('A' for Active; 'I' for Inactive)
REMARK    1  A    between atoms: C_2  and  C_3
REMARK    2  A    between atoms: C_3  and  N_4
REMARK    3  A    between atoms: C_7  and  O_8
REMARK                            x       y       z     vdW  Elec       q    Type
REMARK                         _______ _______ _______ _____ _____    ______ ____
ROOT
ATOM      1  O   UNL     1      -1.695  14.314  20.074  0.00  0.00    +0.000 OA
ATOM      2  C   UNL     1      -1.001  13.362  20.442  0.00  0.00    +0.000 C 
ATOM      3  N   UNL     1      -1.287  12.019  20.122  0.00  0.00    +0.000 N 
ATOM      4  C   UNL     1      -2.349  11.650  19.240  0.00  0.00    +0.000 A 
ATOM      5  C   UNL     1      -3.611  12.247  19.422  0.00  0.00    +0.000 A 
ATOM      6  C   UNL     1      -4.714  11.877  18.649  0.00  0.00    +0.000 A 
ATOM      7  C   UNL     1      -4.570  10.914  17.662  0.00  0.00    +0.000 A 
ATOM      8  C   UNL     1      -3.325  10.327  17.448  0.00  0.00    +0.000 A 
ATOM      9  C   UNL     1      -2.196  10.680  18.221  0.00  0.00    +0.000 A 
ATOM     10  C   UNL     1      -0.897  10.005  17.820  0.00  0.00    +0.000 C 
ATOM     11  C   UNL     1       0.394  10.418  18.525  0.00  0.00    +0.000 C 
ATOM     12  C   UNL     1       0.275  10.158  19.998  0.00  0.00    +0.000 A 
ATOM     13  C   UNL     1       1.005   9.151  20.638  0.00  0.00    +0.000 A 
ATOM     14  C   UNL     1       0.834   8.920  22.004  0.00  0.00    +0.000 A 
ATOM     15  C   UNL     1      -0.069   9.687  22.742  0.00  0.00    +0.000 A 
ATOM     16  C   UNL     1      -0.790  10.697  22.114  0.00  0.00    +0.000 A 
ATOM     17  C   UNL     1      -0.611  10.940  20.745  0.00  0.00    +0.000 A 
ENDROOT
BRANCH   2  18
ATOM     18  C   UNL     1       0.333  13.565  21.216  0.00  0.00    +0.000 C 
BRANCH  18  19
ATOM     19  N   UNL     1       1.242  14.556  20.589  0.00  0.00    +0.000 NA
ATOM     20  C   UNL     1       2.565  14.558  21.244  0.00  0.00    +0.000 C 
ATOM     21  C   UNL     1       3.604  14.260  20.175  0.00  0.00    +0.000 C 
ATOM     22  C   UNL     1       2.819  13.551  19.091  0.00  0.00    +0.000 C 
ATOM     23  C   UNL     1       1.460  14.236  19.168  0.00  0.00    +0.000 C 
BRANCH  22  24
ATOM     24  O   UNL     1       3.440  13.692  17.825  0.00  0.00    +0.000 OA
ATOM     25  H   UNL     1       4.102  12.984  17.736  0.00  0.00    +0.000 HD
ENDBRANCH  22  24
ENDBRANCH  18  19
ENDBRANCH   2  18
TORSDOF 3
ENDMDL
MODEL 5
REMARK VINA RESULT:      -6.5      2.679      5.770
REMARK  Name = 
REMARK  3 active torsions:
REMARK  status: ('A' for Active; 'I' for Inactive)
REMARK    1  A    between atoms: C_2  and  C_3
REMARK    2  A    between atoms: C_3  and  N_4
REMARK    3  A    between atoms: C_7  and  O_8
REMARK                            x       y       z     vdW  Elec       q    Type
REMARK                         _______ _______ _______ _____ _____    ______ ____
ROOT
ATOM      1  O   UNL     1       4.719   4.242  17.057  0.00  0.00    +0.000 OA
ATOM      2  C   UNL     1       4.274   5.314  17.479  0.00  0.00    +0.000 C 
ATOM      3  N   UNL     1       3.038   5.436  18.147  0.00  0.00    +0.000 N 
ATOM      4  C   UNL     1       2.241   4.303  18.500  0.00  0.00    +0.000 A 
ATOM      5  C   UNL     1       2.022   3.308  17.527  0.00  0.00    +0.000 A 
ATOM      6  C   UNL     1       1.191   2.214  17.776  0.00  0.00    +0.000 A 
ATOM      7  C   UNL     1       0.577   2.082  19.013  0.00  0.00    +0.000 A 
ATOM      8  C   UNL     1       0.800   3.042  19.998  0.00  0.00    +0.000 A 
ATOM      9  C   UNL     1       1.632   4.161  19.768  0.00  0.00    +0.000 A 
ATOM     10  C   UNL     1       1.831   5.078  20.962  0.00  0.00    +0.000 C 
ATOM     11  C   UNL     1       2.809   6.245  20.836  0.00  0.00    +0.000 C 
ATOM     12  C   UNL     1       2.371   7.159  19.730  0.00  0.00    +0.000 A 
ATOM     13  C   UNL     1       1.871   8.442  19.977  0.00  0.00    +0.000 A 
ATOM     14  C   UNL     1       1.440   9.243  18.919  0.00  0.00    +0.000 A 
ATOM     15  C   UNL     1       1.500   8.771  17.606  0.00  0.00    +0.000 A 
ATOM     16  C   UNL     1       2.005   7.500  17.352  0.00  0.00    +0.000 A 
ATOM     17  C   UNL     1       2.451   6.699  18.412  0.00  0.00    +0.000 A 
ENDROOT
BRANCH   2  18
ATOM     18  C   UNL     1       5.094   6.634  17.406  0.00  0.00    +0.000 C 
BRANCH  18  19
ATOM     19  N   UNL     1       6.552   6.421  17.236  0.00  0.00    +0.000 NA
ATOM     20  C   UNL     1       7.313   7.642  17.568  0.00  0.00    +0.000 C 
ATOM     21  C   UNL     1       8.293   7.283  18.672  0.00  0.00    +0.000 C 
ATOM     22  C   UNL     1       7.685   6.054  19.315  0.00  0.00    +0.000 C 
ATOM     23  C   UNL     1       7.030   5.354  18.131  0.00  0.00    +0.000 C 
BRANCH  22  24
ATOM     24  O   UNL     1       8.670   5.260  19.954  0.00  0.00    +0.000 OA
ATOM     25  H   UNL     1       9.040   5.777  20.691  0.00  0.00    +0.000 HD
ENDBRANCH  22  24
ENDBRANCH  18  19
ENDBRANCH   2  18
TORSDOF 3
ENDMDL
MODEL 6
REMARK VINA RESULT:      -6.5      5.721      7.952
REMARK  Name = 
REMARK  3 active torsions:
REMARK  status: ('A' for Active; 'I' for Inactive)
REMARK    1  A    between atoms: C_2  and  C_3
REMARK    2  A    between atoms: C_3  and  N_4
REMARK    3  A    between atoms: C_7  and  O_8
REMARK                            x       y       z     vdW  Elec       q    Type
REMARK                         _______ _______ _______ _____ _____    ______ ____
ROOT
ATOM      1  O   UNL     1      -0.789  14.083  19.276  0.00  0.00    +0.000 OA
ATOM      2  C   UNL     1      -0.297  13.180  19.957  0.00  0.00    +0.000 C 
ATOM      3  N   UNL     1      -0.619  11.817  19.795  0.00  0.00    +0.000 N 
ATOM      4  C   UNL     1      -1.462  11.347  18.741  0.00  0.00    +0.000 A 
ATOM      5  C   UNL     1      -2.670  12.028  18.495  0.00  0.00    +0.000 A 
ATOM      6  C   UNL     1      -3.579  11.580  17.534  0.00  0.00    +0.000 A 
ATOM      7  C   UNL     1      -3.287  10.450  16.785  0.00  0.00    +0.000 A 
ATOM      8  C   UNL     1      -2.087   9.775  16.995  0.00  0.00    +0.000 A 
ATOM      9  C   UNL     1      -1.154  10.206  17.965  0.00  0.00    +0.000 A 
ATOM     10  C   UNL     1       0.136   9.407  18.025  0.00  0.00    +0.000 C 
ATOM     11  C   UNL     1       1.247   9.877  18.962  0.00  0.00    +0.000 C 
ATOM     12  C   UNL     1       0.748   9.890  20.377  0.00  0.00    +0.000 A 
ATOM     13  C   UNL     1       1.204   8.979  21.336  0.00  0.00    +0.000 A 
ATOM     14  C   UNL     1       0.684   9.004  22.631  0.00  0.00    +0.000 A 
ATOM     15  C   UNL     1      -0.298   9.934  22.979  0.00  0.00    +0.000 A 
ATOM     16  C   UNL     1      -0.748  10.850  22.033  0.00  0.00    +0.000 A 
ATOM     17  C   UNL     1      -0.217  10.835  20.736  0.00  0.00    +0.000 A 
ENDROOT
BRANCH   2  18
ATOM     18  C   UNL     1       0.820  13.453  21.005  0.00  0.00    +0.000 C 
BRANCH  18  19
ATOM     19  N   UNL     1       2.177  13.565  20.416  0.00  0.00    +0.000 NA
ATOM     20  C   UNL     1       2.150  13.315  18.961  0.00  0.00    +0.000 C 
ATOM     21  C   UNL     1       2.722  14.545  18.275  0.00  0.00    +0.000 C 
ATOM     22  C   UNL     1       2.529  15.651  19.291  0.00  0.00    +0.000 C 
ATOM     23  C   UNL     1       2.720  14.920  20.614  0.00  0.00    +0.000 C 
BRANCH  22  24
ATOM     24  O   UNL     1       3.463  16.701  19.099  0.00  0.00    +0.000 OA
ATOM     25  H   UNL     1       3.016  17.412  18.605  0.00  0.00    +0.000 HD
ENDBRANCH  22  24
ENDBRANCH  18  19
ENDBRANCH   2  18
TORSDOF 3
ENDMDL
MODEL 7
REMARK VINA RESULT:      -6.4      5.781      8.119
REMARK  Name = 
REMARK  3 active torsions:
REMARK  status: ('A' for Active; 'I' for Inactive)
REMARK    1  A    between atoms: C_2  and  C_3
REMARK    2  A    between atoms: C_3  and  N_4
REMARK    3  A    between atoms: C_7  and  O_8
REMARK                            x       y       z     vdW  Elec       q    Type
REMARK                         _______ _______ _______ _____ _____    ______ ____
ROOT
ATOM      1  O   UNL     1      -1.177  14.092  19.714  0.00  0.00    +0.000 OA
ATOM      2  C   UNL     1      -0.569  13.168  20.261  0.00  0.00    +0.000 C 
ATOM      3  N   UNL     1      -0.835  11.806  20.014  0.00  0.00    +0.000 N 
ATOM      4  C   UNL     1      -1.760  11.373  19.014  0.00  0.00    +0.000 A 
ATOM      5  C   UNL     1      -3.021  11.998  18.951  0.00  0.00    +0.000 A 
ATOM      6  C   UNL     1      -4.002  11.575  18.052  0.00  0.00    +0.000 A 
ATOM      7  C   UNL     1      -3.734  10.529  17.182  0.00  0.00    +0.000 A 
ATOM      8  C   UNL     1      -2.484   9.913  17.210  0.00  0.00    +0.000 A 
ATOM      9  C   UNL     1      -1.478  10.319  18.114  0.00  0.00    +0.000 A 
ATOM     10  C   UNL     1      -0.149   9.598  17.974  0.00  0.00    +0.000 C 
ATOM     11  C   UNL     1       1.030  10.056  18.831  0.00  0.00    +0.000 C 
ATOM     12  C   UNL     1       0.683   9.924  20.285  0.00  0.00    +0.000 A 
ATOM     13  C   UNL     1       1.284   8.967  21.110  0.00  0.00    +0.000 A 
ATOM     14  C   UNL     1       0.904   8.856  22.448  0.00  0.00    +0.000 A 
ATOM     15  C   UNL     1      -0.082   9.693  22.973  0.00  0.00    +0.000 A 
ATOM     16  C   UNL     1      -0.677  10.654  22.161  0.00  0.00    +0.000 A 
ATOM     17  C   UNL     1      -0.286  10.776  20.820  0.00  0.00    +0.000 A 
ENDROOT
BRANCH   2  18
ATOM     18  C   UNL     1       0.637  13.422  21.210  0.00  0.00    +0.000 C 
BRANCH  18  19
ATOM     19  N   UNL     1       1.495  14.558  20.794  0.00  0.00    +0.000 NA
ATOM     20  C   UNL     1       1.661  15.533  21.890  0.00  0.00    +0.000 C 
ATOM     21  C   UNL     1       3.150  15.668  22.160  0.00  0.00    +0.000 C 
ATOM     22  C   UNL     1       3.736  14.380  21.621  0.00  0.00    +0.000 C 
ATOM     23  C   UNL     1       2.840  14.087  20.424  0.00  0.00    +0.000 C 
BRANCH  22  24
ATOM     24  O   UNL     1       5.100  14.539  21.267  0.00  0.00    +0.000 OA
ATOM     25  H   UNL     1       5.314  13.869  20.593  0.00  0.00    +0.000 HD
ENDBRANCH  22  24
ENDBRANCH  18  19
ENDBRANCH   2  18
TORSDOF 3
ENDMDL
MODEL 8
REMARK VINA RESULT:      -6.2      9.924     11.155
REMARK  Name = 
REMARK  3 active torsions:
REMARK  status: ('A' for Active; 'I' for Inactive)
REMARK    1  A    between atoms: C_2  and  C_3
REMARK    2  A    between atoms: C_3  and  N_4
REMARK    3  A    between atoms: C_7  and  O_8
REMARK                            x       y       z     vdW  Elec       q    Type
REMARK                         _______ _______ _______ _____ _____    ______ ____
ROOT
ATOM      1  O   UNL     1       7.610  16.783  20.286  0.00  0.00    +0.000 OA
ATOM      2  C   UNL     1       7.948  15.620  20.050  0.00  0.00    +0.000 C 
ATOM      3  N   UNL     1       9.051  15.277  19.243  0.00  0.00    +0.000 N 
ATOM      4  C   UNL     1       9.951  16.255  18.717  0.00  0.00    +0.000 A 
ATOM      5  C   UNL     1       9.412  17.405  18.110  0.00  0.00    +0.000 A 
ATOM      6  C   UNL     1      10.228  18.364  17.506  0.00  0.00    +0.000 A 
ATOM      7  C   UNL     1      11.605  18.200  17.515  0.00  0.00    +0.000 A 
ATOM      8  C   UNL     1      12.161  17.082  18.132  0.00  0.00    +0.000 A 
ATOM      9  C   UNL     1      11.356  16.095  18.744  0.00  0.00    +0.000 A 
ATOM     10  C   UNL     1      12.114  14.975  19.434  0.00  0.00    +0.000 C 
ATOM     11  C   UNL     1      11.325  13.931  20.222  0.00  0.00    +0.000 C 
ATOM     12  C   UNL     1      10.361  13.227  19.312  0.00  0.00    +0.000 A 
ATOM     13  C   UNL     1      10.526  11.888  18.944  0.00  0.00    +0.000 A 
ATOM     14  C   UNL     1       9.625  11.285  18.065  0.00  0.00    +0.000 A 
ATOM     15  C   UNL     1       8.555  12.014  17.542  0.00  0.00    +0.000 A 
ATOM     16  C   UNL     1       8.379  13.343  17.912  0.00  0.00    +0.000 A 
ATOM     17  C   UNL     1       9.275  13.947  18.805  0.00  0.00    +0.000 A 
ENDROOT
BRANCH   2  18
ATOM     18  C   UNL     1       7.241  14.405  20.718  0.00  0.00    +0.000 C 
BRANCH  18  19
ATOM     19  N   UNL     1       7.529  14.269  22.166  0.00  0.00    +0.000 NA
ATOM     20  C   UNL     1       6.300  13.974  22.930  0.00  0.00    +0.000 C 
ATOM     21  C   UNL     1       6.527  12.667  23.673  0.00  0.00    +0.000 C 
ATOM     22  C   UNL     1       7.624  11.985  22.884  0.00  0.00    +0.000 C 
ATOM     23  C   UNL     1       8.469  13.161  22.409  0.00  0.00    +0.000 C 
BRANCH  22  24
ATOM     24  O   UNL     1       8.350  11.070  23.687  0.00  0.00    +0.000 OA
ATOM     25  H   UNL     1       8.124  11.245  24.618  0.00  0.00    +0.000 HD
ENDBRANCH  22  24
ENDBRANCH  18  19
ENDBRANCH   2  18
TORSDOF 3
ENDMDL
MODEL 9
REMARK VINA RESULT:      -6.2      6.239      8.472
REMARK  Name = 
REMARK  3 active torsions:
REMARK  status: ('A' for Active; 'I' for Inactive)
REMARK    1  A    between atoms: C_2  and  C_3
REMARK    2  A    between atoms: C_3  and  N_4
REMARK    3  A    between atoms: C_7  and  O_8
REMARK                            x       y       z     vdW  Elec       q    Type
REMARK                         _______ _______ _______ _____ _____    ______ ____
ROOT
ATOM      1  O   UNL     1      -1.758  14.340  20.195  0.00  0.00    +0.000 OA
ATOM      2  C   UNL     1      -1.079  13.439  20.697  0.00  0.00    +0.000 C 
ATOM      3  N   UNL     1      -1.234  12.075  20.376  0.00  0.00    +0.000 N 
ATOM      4  C   UNL     1      -2.118  11.624  19.347  0.00  0.00    +0.000 A 
ATOM      5  C   UNL     1      -3.425  12.148  19.309  0.00  0.00    +0.000 A 
ATOM      6  C   UNL     1      -4.366  11.696  18.382  0.00  0.00    +0.000 A 
ATOM      7  C   UNL     1      -4.012  10.723  17.459  0.00  0.00    +0.000 A 
ATOM      8  C   UNL     1      -2.717  10.209  17.463  0.00  0.00    +0.000 A 
ATOM      9  C   UNL     1      -1.749  10.646  18.395  0.00  0.00    +0.000 A 
ATOM     10  C   UNL     1      -0.366  10.042  18.225  0.00  0.00    +0.000 C 
ATOM     11  C   UNL     1       0.770  10.547  19.114  0.00  0.00    +0.000 C 
ATOM     12  C   UNL     1       0.431  10.310  20.557  0.00  0.00    +0.000 A 
ATOM     13  C   UNL     1       1.105   9.362  21.334  0.00  0.00    +0.000 A 
ATOM     14  C   UNL     1       0.731   9.149  22.661  0.00  0.00    +0.000 A 
ATOM     15  C   UNL     1      -0.321   9.875  23.223  0.00  0.00    +0.000 A 
ATOM     16  C   UNL     1      -0.989  10.826  22.459  0.00  0.00    +0.000 A 
ATOM     17  C   UNL     1      -0.606  11.052  21.130  0.00  0.00    +0.000 A 
ENDROOT
BRANCH   2  18
ATOM     18  C   UNL     1       0.101  13.738  21.666  0.00  0.00    +0.000 C 
BRANCH  18  19
ATOM     19  N   UNL     1       1.419  13.827  20.993  0.00  0.00    +0.000 NA
ATOM     20  C   UNL     1       1.273  14.248  19.585  0.00  0.00    +0.000 C 
ATOM     21  C   UNL     1       2.094  15.514  19.400  0.00  0.00    +0.000 C 
ATOM     22  C   UNL     1       2.212  16.079  20.800  0.00  0.00    +0.000 C 
ATOM     23  C   UNL     1       2.278  14.822  21.658  0.00  0.00    +0.000 C 
BRANCH  22  24
ATOM     24  O   UNL     1       3.360  16.900  20.932  0.00  0.00    +0.000 OA
ATOM     25  H   UNL     1       4.073  16.508  20.396  0.00  0.00    +0.000 HD
ENDBRANCH  22  24
ENDBRANCH  18  19
ENDBRANCH   2  18
TORSDOF 3
ENDMDL
