MODEL 1
REMARK VINA RESULT:      -5.0      0.000      0.000
REMARK  Name = 
REMARK  3 active torsions:
REMARK  status: ('A' for Active; 'I' for Inactive)
REMARK    1  A    between atoms: C_1  and  O_2
REMARK    2  A    between atoms: O_2  and  C_3
REMARK    3  A    between atoms: C_3  and  C_5
REMARK                            x       y       z     vdW  Elec       q    Type
REMARK                         _______ _______ _______ _____ _____    ______ ____
ROOT
ATOM      1  C   UNL     1       6.927   4.863  14.768  0.00  0.00    +0.000 A 
ATOM      2  C   UNL     1       6.051   3.888  14.300  0.00  0.00    +0.000 A 
ATOM      3  C   UNL     1       6.089   3.557  12.948  0.00  0.00    +0.000 A 
ATOM      4  C   UNL     1       6.995   4.202  12.113  0.00  0.00    +0.000 A 
ATOM      5  C   UNL     1       7.834   5.158  12.664  0.00  0.00    +0.000 A 
ATOM      6  N   UNL     1       7.822   5.504  13.967  0.00  0.00    +0.000 NA
ENDROOT
BRANCH   1   7
ATOM      7  C   UNL     1       6.887   5.235  16.215  0.00  0.00    +0.000 C 
ATOM      8  O   UNL     1       6.332   4.566  17.077  0.00  0.00    +0.000 OA
BRANCH   7  10
ATOM      9  C   UNL     1       7.427   6.931  17.742  0.00  0.00    +0.000 C 
ATOM     10  O   UNL     1       7.538   6.408  16.420  0.00  0.00    +0.000 OA
ENDBRANCH   7  10
ENDBRANCH   1   7
TORSDOF 2
ENDMDL
MODEL 2
REMARK VINA RESULT:      -4.9      1.627      2.348
REMARK  Name = 
REMARK  3 active torsions:
REMARK  status: ('A' for Active; 'I' for Inactive)
REMARK    1  A    between atoms: C_1  and  O_2
REMARK    2  A    between atoms: O_2  and  C_3
REMARK    3  A    between atoms: C_3  and  C_5
REMARK                            x       y       z     vdW  Elec       q    Type
REMARK                         _______ _______ _______ _____ _____    ______ ____
ROOT
ATOM      1  C   UNL     1       6.899   5.712  16.574  0.00  0.00    +0.000 A 
ATOM      2  C   UNL     1       5.800   4.929  16.919  0.00  0.00    +0.000 A 
ATOM      3  C   UNL     1       5.279   4.062  15.963  0.00  0.00    +0.000 A 
ATOM      4  C   UNL     1       5.867   4.001  14.703  0.00  0.00    +0.000 A 
ATOM      5  C   UNL     1       6.961   4.812  14.447  0.00  0.00    +0.000 A 
ATOM      6  N   UNL     1       7.489   5.664  15.349  0.00  0.00    +0.000 NA
ENDROOT
BRANCH   1   7
ATOM      7  C   UNL     1       7.459   6.655  17.589  0.00  0.00    +0.000 C 
ATOM      8  O   UNL     1       7.721   6.341  18.743  0.00  0.00    +0.000 OA
BRANCH   7  10
ATOM      9  C   UNL     1       8.143   8.871  17.941  0.00  0.00    +0.000 C 
ATOM     10  O   UNL     1       7.621   7.890  17.048  0.00  0.00    +0.000 OA
ENDBRANCH   7  10
ENDBRANCH   1   7
TORSDOF 2
ENDMDL
MODEL 3
REMARK VINA RESULT:      -4.8      0.741      1.312
REMARK  Name = 
REMARK  3 active torsions:
REMARK  status: ('A' for Active; 'I' for Inactive)
REMARK    1  A    between atoms: C_1  and  O_2
REMARK    2  A    between atoms: O_2  and  C_3
REMARK    3  A    between atoms: C_3  and  C_5
REMARK                            x       y       z     vdW  Elec       q    Type
REMARK                         _______ _______ _______ _____ _____    ______ ____
ROOT
ATOM      1  C   UNL     1       6.961   4.914  14.701  0.00  0.00    +0.000 A 
ATOM      2  C   UNL     1       6.073   3.928  14.281  0.00  0.00    +0.000 A 
ATOM      3  C   UNL     1       6.089   3.548  12.941  0.00  0.00    +0.000 A 
ATOM      4  C   UNL     1       6.987   4.158  12.070  0.00  0.00    +0.000 A 
ATOM      5  C   UNL     1       7.839   5.127  12.574  0.00  0.00    +0.000 A 
ATOM      6  N   UNL     1       7.848   5.520  13.864  0.00  0.00    +0.000 NA
ENDROOT
BRANCH   1   7
ATOM      7  C   UNL     1       6.944   5.338  16.134  0.00  0.00    +0.000 C 
ATOM      8  O   UNL     1       7.486   6.352  16.553  0.00  0.00    +0.000 OA
BRANCH   7  10
ATOM      9  C   UNL     1       6.245   4.713  18.283  0.00  0.00    +0.000 C 
ATOM     10  O   UNL     1       6.258   4.438  16.884  0.00  0.00    +0.000 OA
ENDBRANCH   7  10
ENDBRANCH   1   7
TORSDOF 2
ENDMDL
MODEL 4
REMARK VINA RESULT:      -4.8      2.079      4.337
REMARK  Name = 
REMARK  3 active torsions:
REMARK  status: ('A' for Active; 'I' for Inactive)
REMARK    1  A    between atoms: C_1  and  O_2
REMARK    2  A    between atoms: O_2  and  C_3
REMARK    3  A    between atoms: C_3  and  C_5
REMARK                            x       y       z     vdW  Elec       q    Type
REMARK                         _______ _______ _______ _____ _____    ______ ____
ROOT
ATOM      1  C   UNL     1       6.721   4.986  15.913  0.00  0.00    +0.000 A 
ATOM      2  C   UNL     1       5.455   5.448  16.258  0.00  0.00    +0.000 A 
ATOM      3  C   UNL     1       5.165   5.644  17.606  0.00  0.00    +0.000 A 
ATOM      4  C   UNL     1       6.143   5.379  18.559  0.00  0.00    +0.000 A 
ATOM      5  C   UNL     1       7.380   4.926  18.127  0.00  0.00    +0.000 A 
ATOM      6  N   UNL     1       7.692   4.723  16.831  0.00  0.00    +0.000 NA
ENDROOT
BRANCH   1   7
ATOM      7  C   UNL     1       7.039   4.761  14.470  0.00  0.00    +0.000 C 
ATOM      8  O   UNL     1       7.842   5.431  13.834  0.00  0.00    +0.000 OA
BRANCH   7  10
ATOM      9  C   UNL     1       6.298   3.619  12.560  0.00  0.00    +0.000 C 
ATOM     10  O   UNL     1       6.307   3.726  13.982  0.00  0.00    +0.000 OA
ENDBRANCH   7  10
ENDBRANCH   1   7
TORSDOF 2
ENDMDL
MODEL 5
REMARK VINA RESULT:      -4.8      5.749      7.048
REMARK  Name = 
REMARK  3 active torsions:
REMARK  status: ('A' for Active; 'I' for Inactive)
REMARK    1  A    between atoms: C_1  and  O_2
REMARK    2  A    between atoms: O_2  and  C_3
REMARK    3  A    between atoms: C_3  and  C_5
REMARK                            x       y       z     vdW  Elec       q    Type
REMARK                         _______ _______ _______ _____ _____    ______ ____
ROOT
ATOM      1  C   UNL     1       3.273   3.412  19.451  0.00  0.00    +0.000 A 
ATOM      2  C   UNL     1       2.005   3.855  19.083  0.00  0.00    +0.000 A 
ATOM      3  C   UNL     1       0.949   3.651  19.967  0.00  0.00    +0.000 A 
ATOM      4  C   UNL     1       1.190   3.019  21.183  0.00  0.00    +0.000 A 
ATOM      5  C   UNL     1       2.484   2.614  21.471  0.00  0.00    +0.000 A 
ATOM      6  N   UNL     1       3.528   2.794  20.637  0.00  0.00    +0.000 NA
ENDROOT
BRANCH   1   7
ATOM      7  C   UNL     1       4.412   3.616  18.504  0.00  0.00    +0.000 C 
ATOM      8  O   UNL     1       4.308   3.548  17.287  0.00  0.00    +0.000 OA
BRANCH   7  10
ATOM      9  C   UNL     1       5.984   5.231  19.150  0.00  0.00    +0.000 C 
ATOM     10  O   UNL     1       5.555   3.871  19.190  0.00  0.00    +0.000 OA
ENDBRANCH   7  10
ENDBRANCH   1   7
TORSDOF 2
ENDMDL
MODEL 6
REMARK VINA RESULT:      -4.7      2.462      4.240
REMARK  Name = 
REMARK  3 active torsions:
REMARK  status: ('A' for Active; 'I' for Inactive)
REMARK    1  A    between atoms: C_1  and  O_2
REMARK    2  A    between atoms: O_2  and  C_3
REMARK    3  A    between atoms: C_3  and  C_5
REMARK                            x       y       z     vdW  Elec       q    Type
REMARK                         _______ _______ _______ _____ _____    ______ ____
ROOT
ATOM      1  C   UNL     1       5.724   5.175  15.626  0.00  0.00    +0.000 A 
ATOM      2  C   UNL     1       4.956   4.178  16.222  0.00  0.00    +0.000 A 
ATOM      3  C   UNL     1       4.036   4.547  17.200  0.00  0.00    +0.000 A 
ATOM      4  C   UNL     1       3.911   5.888  17.549  0.00  0.00    +0.000 A 
ATOM      5  C   UNL     1       4.713   6.815  16.902  0.00  0.00    +0.000 A 
ATOM      6  N   UNL     1       5.614   6.492  15.952  0.00  0.00    +0.000 NA
ENDROOT
BRANCH   1   7
ATOM      7  C   UNL     1       6.723   4.789  14.583  0.00  0.00    +0.000 C 
ATOM      8  O   UNL     1       7.690   5.474  14.277  0.00  0.00    +0.000 OA
BRANCH   7  10
ATOM      9  C   UNL     1       6.256   3.605  12.614  0.00  0.00    +0.000 C 
ATOM     10  O   UNL     1       6.393   3.593  14.033  0.00  0.00    +0.000 OA
ENDBRANCH   7  10
ENDBRANCH   1   7
TORSDOF 2
ENDMDL
MODEL 7
REMARK VINA RESULT:      -4.7      2.643      4.169
REMARK  Name = 
REMARK  3 active torsions:
REMARK  status: ('A' for Active; 'I' for Inactive)
REMARK    1  A    between atoms: C_1  and  O_2
REMARK    2  A    between atoms: O_2  and  C_3
REMARK    3  A    between atoms: C_3  and  C_5
REMARK                            x       y       z     vdW  Elec       q    Type
REMARK                         _______ _______ _______ _____ _____    ______ ____
ROOT
ATOM      1  C   UNL     1       5.794   5.255  16.960  0.00  0.00    +0.000 A 
ATOM      2  C   UNL     1       4.960   4.192  17.293  0.00  0.00    +0.000 A 
ATOM      3  C   UNL     1       3.670   4.474  17.733  0.00  0.00    +0.000 A 
ATOM      4  C   UNL     1       3.254   5.799  17.823  0.00  0.00    +0.000 A 
ATOM      5  C   UNL     1       4.149   6.796  17.467  0.00  0.00    +0.000 A 
ATOM      6  N   UNL     1       5.405   6.557  17.040  0.00  0.00    +0.000 NA
ENDROOT
BRANCH   1   7
ATOM      7  C   UNL     1       7.186   4.964  16.498  0.00  0.00    +0.000 C 
ATOM      8  O   UNL     1       8.000   4.321  17.147  0.00  0.00    +0.000 OA
BRANCH   7  10
ATOM      9  C   UNL     1       6.881   4.775  14.180  0.00  0.00    +0.000 C 
ATOM     10  O   UNL     1       7.404   5.519  15.279  0.00  0.00    +0.000 OA
ENDBRANCH   7  10
ENDBRANCH   1   7
TORSDOF 2
ENDMDL
MODEL 8
REMARK VINA RESULT:      -4.6      4.813      5.826
REMARK  Name = 
REMARK  3 active torsions:
REMARK  status: ('A' for Active; 'I' for Inactive)
REMARK    1  A    between atoms: C_1  and  O_2
REMARK    2  A    between atoms: O_2  and  C_3
REMARK    3  A    between atoms: C_3  and  C_5
REMARK                            x       y       z     vdW  Elec       q    Type
REMARK                         _______ _______ _______ _____ _____    ______ ____
ROOT
ATOM      1  C   UNL     1       4.522   3.758  19.118  0.00  0.00    +0.000 A 
ATOM      2  C   UNL     1       3.551   4.229  18.239  0.00  0.00    +0.000 A 
ATOM      3  C   UNL     1       3.853   5.335  17.449  0.00  0.00    +0.000 A 
ATOM      4  C   UNL     1       5.107   5.929  17.558  0.00  0.00    +0.000 A 
ATOM      5  C   UNL     1       6.014   5.393  18.457  0.00  0.00    +0.000 A 
ATOM      6  N   UNL     1       5.753   4.325  19.238  0.00  0.00    +0.000 NA
ENDROOT
BRANCH   1   7
ATOM      7  C   UNL     1       4.204   2.578  19.979  0.00  0.00    +0.000 C 
ATOM      8  O   UNL     1       5.047   1.820  20.438  0.00  0.00    +0.000 OA
BRANCH   7  10
ATOM      9  C   UNL     1       2.412   2.783  21.478  0.00  0.00    +0.000 C 
ATOM     10  O   UNL     1       2.862   2.474  20.161  0.00  0.00    +0.000 OA
ENDBRANCH   7  10
ENDBRANCH   1   7
TORSDOF 2
ENDMDL
MODEL 9
REMARK VINA RESULT:      -4.6      6.247      7.439
REMARK  Name = 
REMARK  3 active torsions:
REMARK  status: ('A' for Active; 'I' for Inactive)
REMARK    1  A    between atoms: C_1  and  O_2
REMARK    2  A    between atoms: O_2  and  C_3
REMARK    3  A    between atoms: C_3  and  C_5
REMARK                            x       y       z     vdW  Elec       q    Type
REMARK                         _______ _______ _______ _____ _____    ______ ____
ROOT
ATOM      1  C   UNL     1       1.711   4.070  18.875  0.00  0.00    +0.000 A 
ATOM      2  C   UNL     1       1.494   4.436  20.200  0.00  0.00    +0.000 A 
ATOM      3  C   UNL     1       1.841   5.725  20.597  0.00  0.00    +0.000 A 
ATOM      4  C   UNL     1       2.387   6.602  19.664  0.00  0.00    +0.000 A 
ATOM      5  C   UNL     1       2.564   6.155  18.364  0.00  0.00    +0.000 A 
ATOM      6  N   UNL     1       2.241   4.914  17.948  0.00  0.00    +0.000 NA
ENDROOT
BRANCH   1   7
ATOM      7  C   UNL     1       1.353   2.685  18.442  0.00  0.00    +0.000 C 
ATOM      8  O   UNL     1       0.304   2.127  18.735  0.00  0.00    +0.000 OA
BRANCH   7  10
ATOM      9  C   UNL     1       3.424   1.585  18.452  0.00  0.00    +0.000 C 
ATOM     10  O   UNL     1       2.355   2.150  17.697  0.00  0.00    +0.000 OA
ENDBRANCH   7  10
ENDBRANCH   1   7
TORSDOF 2
ENDMDL
