MODEL 1
REMARK VINA RESULT:      -7.2      0.000      0.000
REMARK  Name = 
REMARK  7 active torsions:
REMARK  status: ('A' for Active; 'I' for Inactive)
REMARK    1  A    between atoms: C_1  and  C_2
REMARK    2  A    between atoms: C_2  and  C_3
REMARK    3  A    between atoms: C_3  and  C_4
REMARK    4  A    between atoms: C_4  and  C_5
REMARK    5  A    between atoms: C_5  and  C_6
REMARK    6  A    between atoms: N_11  and  S_12
REMARK    7  A    between atoms: S_12  and  C_15
REMARK                            x       y       z     vdW  Elec       q    Type
REMARK                         _______ _______ _______ _____ _____    ______ ____
ROOT
ATOM      1  S   UNL     1      -0.183  11.041  22.114  0.00  0.00    +0.000 S 
ATOM      2  O   UNL     1      -0.070  10.431  23.426  0.00  0.00    +0.000 OA
ATOM      3  O   UNL     1       0.925  11.767  21.537  0.00  0.00    +0.000 OA
ENDROOT
BRANCH   1   4
ATOM      4  C   UNL     1      -1.592  12.120  22.154  0.00  0.00    +0.000 A 
ATOM      5  C   UNL     1      -1.766  13.093  21.167  0.00  0.00    +0.000 A 
ATOM      6  C   UNL     1      -2.883  13.931  21.221  0.00  0.00    +0.000 A 
ATOM      7  C   UNL     1      -3.832  13.784  22.239  0.00  0.00    +0.000 A 
ATOM      8  C   UNL     1      -3.683  12.750  23.178  0.00  0.00    +0.000 A 
ATOM      9  C   UNL     1      -2.538  11.953  23.168  0.00  0.00    +0.000 A 
ATOM     10  O   UNL     1      -4.614  12.416  24.132  0.00  0.00    +0.000 OA
ATOM     11  C   UNL     1      -5.953  12.513  23.642  0.00  0.00    +0.000 C 
ATOM     12  C   UNL     1      -6.494  13.919  23.836  0.00  0.00    +0.000 C 
ATOM     13  C   UNL     1      -5.462  14.970  23.460  0.00  0.00    +0.000 C 
ATOM     14  O   UNL     1      -4.870  14.680  22.192  0.00  0.00    +0.000 OA
ENDBRANCH   1   4
BRANCH   1  20
ATOM     15  C   UNL     1       2.333   7.820  18.776  0.00  0.00    +0.000 C 
ATOM     16  O   UNL     1       2.735   8.271  17.704  0.00  0.00    +0.000 OA
ATOM     17  N   UNL     1       1.524   8.552  19.628  0.00  0.00    +0.000 N 
ATOM     18  C   UNL     1       1.066   9.874  19.192  0.00  0.00    +0.000 C 
ATOM     19  C   UNL     1      -0.408  10.100  19.559  0.00  0.00    +0.000 C 
ATOM     20  N   UNL     1      -0.673   9.828  21.010  0.00  0.00    +0.000 NA
ATOM     21  C   UNL     1      -0.244   8.437  21.357  0.00  0.00    +0.000 C 
ATOM     22  C   UNL     1       1.239   8.213  21.033  0.00  0.00    +0.000 C 
BRANCH  15  23
ATOM     23  C   UNL     1       2.635   6.398  19.207  0.00  0.00    +0.000 C 
BRANCH  23  24
ATOM     24  C   UNL     1       2.189   5.376  18.168  0.00  0.00    +0.000 C 
BRANCH  24  25
ATOM     25  C   UNL     1       1.586   4.147  18.843  0.00  0.00    +0.000 C 
BRANCH  25  27
ATOM     26  C   UNL     1       1.305   3.178  21.146  0.00  0.00    +0.000 C 
ATOM     27  C   UNL     1       1.252   4.439  20.302  0.00  0.00    +0.000 C 
ENDBRANCH  25  27
ENDBRANCH  24  25
ENDBRANCH  23  24
ENDBRANCH  15  23
ENDBRANCH   1  20
TORSDOF 6
ENDMDL
MODEL 2
REMARK VINA RESULT:      -6.9      4.380      7.022
REMARK  Name = 
REMARK  7 active torsions:
REMARK  status: ('A' for Active; 'I' for Inactive)
REMARK    1  A    between atoms: C_1  and  C_2
REMARK    2  A    between atoms: C_2  and  C_3
REMARK    3  A    between atoms: C_3  and  C_4
REMARK    4  A    between atoms: C_4  and  C_5
REMARK    5  A    between atoms: C_5  and  C_6
REMARK    6  A    between atoms: N_11  and  S_12
REMARK    7  A    between atoms: S_12  and  C_15
REMARK                            x       y       z     vdW  Elec       q    Type
REMARK                         _______ _______ _______ _____ _____    ______ ____
ROOT
ATOM      1  S   UNL     1       3.065   6.259  18.787  0.00  0.00    +0.000 S 
ATOM      2  O   UNL     1       2.346   5.599  17.712  0.00  0.00    +0.000 OA
ATOM      3  O   UNL     1       3.453   5.531  19.973  0.00  0.00    +0.000 OA
ENDROOT
BRANCH   1   4
ATOM      4  C   UNL     1       2.097   7.659  19.288  0.00  0.00    +0.000 A 
ATOM      5  C   UNL     1       1.572   8.534  18.333  0.00  0.00    +0.000 A 
ATOM      6  C   UNL     1       0.813   9.630  18.752  0.00  0.00    +0.000 A 
ATOM      7  C   UNL     1       0.561   9.839  20.112  0.00  0.00    +0.000 A 
ATOM      8  C   UNL     1       1.029   8.909  21.054  0.00  0.00    +0.000 A 
ATOM      9  C   UNL     1       1.841   7.849  20.648  0.00  0.00    +0.000 A 
ATOM     10  O   UNL     1       0.727   8.927  22.394  0.00  0.00    +0.000 OA
ATOM     11  C   UNL     1      -0.628   9.310  22.640  0.00  0.00    +0.000 C 
ATOM     12  C   UNL     1      -0.745  10.820  22.755  0.00  0.00    +0.000 C 
ATOM     13  C   UNL     1       0.069  11.526  21.683  0.00  0.00    +0.000 C 
ATOM     14  O   UNL     1      -0.178  10.961  20.394  0.00  0.00    +0.000 OA
ENDBRANCH   1   4
BRANCH   1  20
ATOM     15  C   UNL     1       7.079   4.565  15.810  0.00  0.00    +0.000 C 
ATOM     16  O   UNL     1       7.985   3.926  16.342  0.00  0.00    +0.000 OA
ATOM     17  N   UNL     1       6.082   5.184  16.544  0.00  0.00    +0.000 N 
ATOM     18  C   UNL     1       6.164   5.142  18.007  0.00  0.00    +0.000 C 
ATOM     19  C   UNL     1       5.781   6.496  18.624  0.00  0.00    +0.000 C 
ATOM     20  N   UNL     1       4.460   6.990  18.116  0.00  0.00    +0.000 NA
ATOM     21  C   UNL     1       4.482   7.071  16.622  0.00  0.00    +0.000 C 
ATOM     22  C   UNL     1       4.822   5.714  15.994  0.00  0.00    +0.000 C 
BRANCH  15  23
ATOM     23  C   UNL     1       7.032   4.786  14.311  0.00  0.00    +0.000 C 
BRANCH  23  24
ATOM     24  C   UNL     1       5.994   3.899  13.632  0.00  0.00    +0.000 C 
BRANCH  24  25
ATOM     25  C   UNL     1       6.464   3.486  12.240  0.00  0.00    +0.000 C 
BRANCH  25  27
ATOM     26  C   UNL     1       4.189   3.097  11.244  0.00  0.00    +0.000 C 
ATOM     27  C   UNL     1       5.514   2.462  11.629  0.00  0.00    +0.000 C 
ENDBRANCH  25  27
ENDBRANCH  24  25
ENDBRANCH  23  24
ENDBRANCH  15  23
ENDBRANCH   1  20
TORSDOF 6
ENDMDL
MODEL 3
REMARK VINA RESULT:      -6.9      4.393      7.254
REMARK  Name = 
REMARK  7 active torsions:
REMARK  status: ('A' for Active; 'I' for Inactive)
REMARK    1  A    between atoms: C_1  and  C_2
REMARK    2  A    between atoms: C_2  and  C_3
REMARK    3  A    between atoms: C_3  and  C_4
REMARK    4  A    between atoms: C_4  and  C_5
REMARK    5  A    between atoms: C_5  and  C_6
REMARK    6  A    between atoms: N_11  and  S_12
REMARK    7  A    between atoms: S_12  and  C_15
REMARK                            x       y       z     vdW  Elec       q    Type
REMARK                         _______ _______ _______ _____ _____    ______ ____
ROOT
ATOM      1  S   UNL     1       2.983   6.032  18.919  0.00  0.00    +0.000 S 
ATOM      2  O   UNL     1       2.226   5.453  17.823  0.00  0.00    +0.000 OA
ATOM      3  O   UNL     1       3.423   5.215  20.026  0.00  0.00    +0.000 OA
ENDROOT
BRANCH   1   4
ATOM      4  C   UNL     1       2.025   7.377  19.568  0.00  0.00    +0.000 A 
ATOM      5  C   UNL     1       1.544   7.335  20.880  0.00  0.00    +0.000 A 
ATOM      6  C   UNL     1       0.792   8.407  21.368  0.00  0.00    +0.000 A 
ATOM      7  C   UNL     1       0.539   9.522  20.561  0.00  0.00    +0.000 A 
ATOM      8  C   UNL     1       1.094   9.583  19.273  0.00  0.00    +0.000 A 
ATOM      9  C   UNL     1       1.791   8.490  18.757  0.00  0.00    +0.000 A 
ATOM     10  O   UNL     1       1.038  10.678  18.445  0.00  0.00    +0.000 OA
ATOM     11  C   UNL     1       1.190  11.907  19.158  0.00  0.00    +0.000 C 
ATOM     12  C   UNL     1      -0.156  12.410  19.651  0.00  0.00    +0.000 C 
ATOM     13  C   UNL     1      -0.993  11.283  20.235  0.00  0.00    +0.000 C 
ATOM     14  O   UNL     1      -0.229  10.495  21.150  0.00  0.00    +0.000 OA
ENDBRANCH   1   4
BRANCH   1  20
ATOM     15  C   UNL     1       7.094   4.533  15.969  0.00  0.00    +0.000 C 
ATOM     16  O   UNL     1       8.027   3.940  16.508  0.00  0.00    +0.000 OA
ATOM     17  N   UNL     1       6.063   5.103  16.696  0.00  0.00    +0.000 N 
ATOM     18  C   UNL     1       6.138   5.067  18.160  0.00  0.00    +0.000 C 
ATOM     19  C   UNL     1       5.685   6.402  18.771  0.00  0.00    +0.000 C 
ATOM     20  N   UNL     1       4.344   6.830  18.255  0.00  0.00    +0.000 NA
ATOM     21  C   UNL     1       4.371   6.909  16.761  0.00  0.00    +0.000 C 
ATOM     22  C   UNL     1       4.782   5.569  16.137  0.00  0.00    +0.000 C 
BRANCH  15  23
ATOM     23  C   UNL     1       7.045   4.748  14.469  0.00  0.00    +0.000 C 
BRANCH  23  24
ATOM     24  C   UNL     1       6.010   3.856  13.794  0.00  0.00    +0.000 C 
BRANCH  24  25
ATOM     25  C   UNL     1       6.354   3.649  12.321  0.00  0.00    +0.000 C 
BRANCH  25  27
ATOM     26  C   UNL     1       4.184   3.050  11.202  0.00  0.00    +0.000 C 
ATOM     27  C   UNL     1       5.513   2.528  11.720  0.00  0.00    +0.000 C 
ENDBRANCH  25  27
ENDBRANCH  24  25
ENDBRANCH  23  24
ENDBRANCH  15  23
ENDBRANCH   1  20
TORSDOF 6
ENDMDL
MODEL 4
REMARK VINA RESULT:      -6.8      1.299      2.036
REMARK  Name = 
REMARK  7 active torsions:
REMARK  status: ('A' for Active; 'I' for Inactive)
REMARK    1  A    between atoms: C_1  and  C_2
REMARK    2  A    between atoms: C_2  and  C_3
REMARK    3  A    between atoms: C_3  and  C_4
REMARK    4  A    between atoms: C_4  and  C_5
REMARK    5  A    between atoms: C_5  and  C_6
REMARK    6  A    between atoms: N_11  and  S_12
REMARK    7  A    between atoms: S_12  and  C_15
REMARK                            x       y       z     vdW  Elec       q    Type
REMARK                         _______ _______ _______ _____ _____    ______ ____
ROOT
ATOM      1  S   UNL     1      -0.359  11.195  22.116  0.00  0.00    +0.000 S 
ATOM      2  O   UNL     1      -0.192  10.606  23.433  0.00  0.00    +0.000 OA
ATOM      3  O   UNL     1       0.703  11.964  21.510  0.00  0.00    +0.000 OA
ENDROOT
BRANCH   1   4
ATOM      4  C   UNL     1      -1.815  12.208  22.173  0.00  0.00    +0.000 A 
ATOM      5  C   UNL     1      -2.063  13.147  21.169  0.00  0.00    +0.000 A 
ATOM      6  C   UNL     1      -3.216  13.933  21.237  0.00  0.00    +0.000 A 
ATOM      7  C   UNL     1      -4.127  13.769  22.286  0.00  0.00    +0.000 A 
ATOM      8  C   UNL     1      -3.903  12.767  23.244  0.00  0.00    +0.000 A 
ATOM      9  C   UNL     1      -2.722  12.023  23.219  0.00  0.00    +0.000 A 
ATOM     10  O   UNL     1      -4.789  12.415  24.233  0.00  0.00    +0.000 OA
ATOM     11  C   UNL     1      -6.145  12.437  23.781  0.00  0.00    +0.000 C 
ATOM     12  C   UNL     1      -6.745  13.821  23.958  0.00  0.00    +0.000 C 
ATOM     13  C   UNL     1      -5.775  14.909  23.527  0.00  0.00    +0.000 C 
ATOM     14  O   UNL     1      -5.207  14.614  22.249  0.00  0.00    +0.000 OA
ENDBRANCH   1   4
BRANCH   1  20
ATOM     15  C   UNL     1       2.185   8.270  18.536  0.00  0.00    +0.000 C 
ATOM     16  O   UNL     1       2.451   8.768  17.443  0.00  0.00    +0.000 OA
ATOM     17  N   UNL     1       1.379   8.910  19.462  0.00  0.00    +0.000 N 
ATOM     18  C   UNL     1       0.758  10.183  19.085  0.00  0.00    +0.000 C 
ATOM     19  C   UNL     1      -0.697  10.257  19.574  0.00  0.00    +0.000 C 
ATOM     20  N   UNL     1      -0.814   9.948  21.036  0.00  0.00    +0.000 NA
ATOM     21  C   UNL     1      -0.221   8.604  21.325  0.00  0.00    +0.000 C 
ATOM     22  C   UNL     1       1.245   8.533  20.879  0.00  0.00    +0.000 C 
BRANCH  15  23
ATOM     23  C   UNL     1       2.661   6.883  18.918  0.00  0.00    +0.000 C 
BRANCH  23  24
ATOM     24  C   UNL     1       3.170   6.098  17.715  0.00  0.00    +0.000 C 
BRANCH  24  25
ATOM     25  C   UNL     1       4.666   5.822  17.843  0.00  0.00    +0.000 C 
BRANCH  25  27
ATOM     26  C   UNL     1       6.774   7.105  17.363  0.00  0.00    +0.000 C 
ATOM     27  C   UNL     1       5.453   6.610  16.801  0.00  0.00    +0.000 C 
ENDBRANCH  25  27
ENDBRANCH  24  25
ENDBRANCH  23  24
ENDBRANCH  15  23
ENDBRANCH   1  20
TORSDOF 6
ENDMDL
MODEL 5
REMARK VINA RESULT:      -6.6      8.048     10.588
REMARK  Name = 
REMARK  7 active torsions:
REMARK  status: ('A' for Active; 'I' for Inactive)
REMARK    1  A    between atoms: C_1  and  C_2
REMARK    2  A    between atoms: C_2  and  C_3
REMARK    3  A    between atoms: C_3  and  C_4
REMARK    4  A    between atoms: C_4  and  C_5
REMARK    5  A    between atoms: C_5  and  C_6
REMARK    6  A    between atoms: N_11  and  S_12
REMARK    7  A    between atoms: S_12  and  C_15
REMARK                            x       y       z     vdW  Elec       q    Type
REMARK                         _______ _______ _______ _____ _____    ______ ____
ROOT
ATOM      1  S   UNL     1       6.972   5.529  17.788  0.00  0.00    +0.000 S 
ATOM      2  O   UNL     1       7.536   4.222  17.502  0.00  0.00    +0.000 OA
ATOM      3  O   UNL     1       7.722   6.511  18.534  0.00  0.00    +0.000 OA
ENDROOT
BRANCH   1   4
ATOM      4  C   UNL     1       5.425   5.265  18.616  0.00  0.00    +0.000 A 
ATOM      5  C   UNL     1       4.554   6.332  18.847  0.00  0.00    +0.000 A 
ATOM      6  C   UNL     1       3.342   6.099  19.501  0.00  0.00    +0.000 A 
ATOM      7  C   UNL     1       2.990   4.806  19.903  0.00  0.00    +0.000 A 
ATOM      8  C   UNL     1       3.840   3.731  19.595  0.00  0.00    +0.000 A 
ATOM      9  C   UNL     1       5.080   3.966  19.000  0.00  0.00    +0.000 A 
ATOM     10  O   UNL     1       3.541   2.408  19.808  0.00  0.00    +0.000 OA
ATOM     11  C   UNL     1       2.170   2.110  19.533  0.00  0.00    +0.000 C 
ATOM     12  C   UNL     1       1.314   2.337  20.767  0.00  0.00    +0.000 C 
ATOM     13  C   UNL     1       1.691   3.627  21.477  0.00  0.00    +0.000 C 
ATOM     14  O   UNL     1       1.785   4.713  20.554  0.00  0.00    +0.000 OA
ENDBRANCH   1   4
BRANCH   1  20
ATOM     15  C   UNL     1       6.109   3.680  12.921  0.00  0.00    +0.000 C 
ATOM     16  O   UNL     1       7.074   3.440  12.197  0.00  0.00    +0.000 OA
ATOM     17  N   UNL     1       6.242   4.320  14.141  0.00  0.00    +0.000 N 
ATOM     18  C   UNL     1       7.570   4.799  14.536  0.00  0.00    +0.000 C 
ATOM     19  C   UNL     1       7.488   6.188  15.188  0.00  0.00    +0.000 C 
ATOM     20  N   UNL     1       6.485   6.227  16.302  0.00  0.00    +0.000 NA
ATOM     21  C   UNL     1       5.144   5.792  15.801  0.00  0.00    +0.000 C 
ATOM     22  C   UNL     1       5.206   4.388  15.186  0.00  0.00    +0.000 C 
BRANCH  15  23
ATOM     23  C   UNL     1       4.691   3.359  12.493  0.00  0.00    +0.000 C 
BRANCH  23  24
ATOM     24  C   UNL     1       4.433   3.724  11.036  0.00  0.00    +0.000 C 
BRANCH  24  25
ATOM     25  C   UNL     1       3.272   2.910  10.471  0.00  0.00    +0.000 C 
BRANCH  25  27
ATOM     26  C   UNL     1       2.379   4.960   9.323  0.00  0.00    +0.000 C 
ATOM     27  C   UNL     1       2.781   3.505   9.156  0.00  0.00    +0.000 C 
ENDBRANCH  25  27
ENDBRANCH  24  25
ENDBRANCH  23  24
ENDBRANCH  15  23
ENDBRANCH   1  20
TORSDOF 6
ENDMDL
MODEL 6
REMARK VINA RESULT:      -6.6      4.868     11.353
REMARK  Name = 
REMARK  7 active torsions:
REMARK  status: ('A' for Active; 'I' for Inactive)
REMARK    1  A    between atoms: C_1  and  C_2
REMARK    2  A    between atoms: C_2  and  C_3
REMARK    3  A    between atoms: C_3  and  C_4
REMARK    4  A    between atoms: C_4  and  C_5
REMARK    5  A    between atoms: C_5  and  C_6
REMARK    6  A    between atoms: N_11  and  S_12
REMARK    7  A    between atoms: S_12  and  C_15
REMARK                            x       y       z     vdW  Elec       q    Type
REMARK                         _______ _______ _______ _____ _____    ______ ____
ROOT
ATOM      1  S   UNL     1       4.119   3.551  18.754  0.00  0.00    +0.000 S 
ATOM      2  O   UNL     1       4.588   4.157  19.987  0.00  0.00    +0.000 OA
ATOM      3  O   UNL     1       3.906   2.125  18.665  0.00  0.00    +0.000 OA
ENDROOT
BRANCH   1   4
ATOM      4  C   UNL     1       5.248   4.025  17.470  0.00  0.00    +0.000 A 
ATOM      5  C   UNL     1       6.529   4.484  17.788  0.00  0.00    +0.000 A 
ATOM      6  C   UNL     1       7.400   4.852  16.760  0.00  0.00    +0.000 A 
ATOM      7  C   UNL     1       7.005   4.742  15.422  0.00  0.00    +0.000 A 
ATOM      8  C   UNL     1       5.743   4.206  15.116  0.00  0.00    +0.000 A 
ATOM      9  C   UNL     1       4.845   3.898  16.139  0.00  0.00    +0.000 A 
ATOM     10  O   UNL     1       5.300   3.917  13.849  0.00  0.00    +0.000 OA
ATOM     11  C   UNL     1       6.333   3.376  13.022  0.00  0.00    +0.000 C 
ATOM     12  C   UNL     1       7.100   4.488  12.327  0.00  0.00    +0.000 C 
ATOM     13  C   UNL     1       7.401   5.635  13.277  0.00  0.00    +0.000 C 
ATOM     14  O   UNL     1       7.943   5.155  14.509  0.00  0.00    +0.000 OA
ENDBRANCH   1   4
BRANCH   1  20
ATOM     15  C   UNL     1       1.417   7.697  20.586  0.00  0.00    +0.000 C 
ATOM     16  O   UNL     1       0.715   7.553  21.586  0.00  0.00    +0.000 OA
ATOM     17  N   UNL     1       2.021   6.626  19.949  0.00  0.00    +0.000 N 
ATOM     18  C   UNL     1       1.741   5.273  20.439  0.00  0.00    +0.000 C 
ATOM     19  C   UNL     1       1.542   4.292  19.274  0.00  0.00    +0.000 C 
ATOM     20  N   UNL     1       2.675   4.347  18.294  0.00  0.00    +0.000 NA
ATOM     21  C   UNL     1       2.850   5.745  17.789  0.00  0.00    +0.000 C 
ATOM     22  C   UNL     1       3.091   6.728  18.942  0.00  0.00    +0.000 C 
BRANCH  15  23
ATOM     23  C   UNL     1       1.609   9.051  19.933  0.00  0.00    +0.000 C 
BRANCH  23  24
ATOM     24  C   UNL     1       0.309   9.844  19.861  0.00  0.00    +0.000 C 
BRANCH  24  25
ATOM     25  C   UNL     1      -0.043  10.173  18.413  0.00  0.00    +0.000 C 
BRANCH  25  27
ATOM     26  C   UNL     1      -2.056   9.934  16.927  0.00  0.00    +0.000 C 
ATOM     27  C   UNL     1      -1.538  10.432  18.264  0.00  0.00    +0.000 C 
ENDBRANCH  25  27
ENDBRANCH  24  25
ENDBRANCH  23  24
ENDBRANCH  15  23
ENDBRANCH   1  20
TORSDOF 6
ENDMDL
MODEL 7
REMARK VINA RESULT:      -6.6      4.232      7.026
REMARK  Name = 
REMARK  7 active torsions:
REMARK  status: ('A' for Active; 'I' for Inactive)
REMARK    1  A    between atoms: C_1  and  C_2
REMARK    2  A    between atoms: C_2  and  C_3
REMARK    3  A    between atoms: C_3  and  C_4
REMARK    4  A    between atoms: C_4  and  C_5
REMARK    5  A    between atoms: C_5  and  C_6
REMARK    6  A    between atoms: N_11  and  S_12
REMARK    7  A    between atoms: S_12  and  C_15
REMARK                            x       y       z     vdW  Elec       q    Type
REMARK                         _______ _______ _______ _____ _____    ______ ____
ROOT
ATOM      1  S   UNL     1       2.389   5.572  19.617  0.00  0.00    +0.000 S 
ATOM      2  O   UNL     1       1.808   4.948  18.442  0.00  0.00    +0.000 OA
ATOM      3  O   UNL     1       2.111   5.061  20.939  0.00  0.00    +0.000 OA
ENDROOT
BRANCH   1   4
ATOM      4  C   UNL     1       1.938   7.289  19.579  0.00  0.00    +0.000 A 
ATOM      5  C   UNL     1       1.929   7.991  18.372  0.00  0.00    +0.000 A 
ATOM      6  C   UNL     1       1.571   9.342  18.368  0.00  0.00    +0.000 A 
ATOM      7  C   UNL     1       1.204   9.982  19.557  0.00  0.00    +0.000 A 
ATOM      8  C   UNL     1       1.143   9.243  20.749  0.00  0.00    +0.000 A 
ATOM      9  C   UNL     1       1.561   7.911  20.771  0.00  0.00    +0.000 A 
ATOM     10  O   UNL     1       0.662   9.719  21.945  0.00  0.00    +0.000 OA
ATOM     11  C   UNL     1      -0.477  10.565  21.774  0.00  0.00    +0.000 C 
ATOM     12  C   UNL     1      -0.047  12.005  21.556  0.00  0.00    +0.000 C 
ATOM     13  C   UNL     1       1.127  12.097  20.594  0.00  0.00    +0.000 C 
ATOM     14  O   UNL     1       0.895  11.312  19.422  0.00  0.00    +0.000 OA
ENDBRANCH   1   4
BRANCH   1  20
ATOM     15  C   UNL     1       5.683   4.177  15.738  0.00  0.00    +0.000 C 
ATOM     16  O   UNL     1       5.962   2.988  15.595  0.00  0.00    +0.000 OA
ATOM     17  N   UNL     1       4.965   4.641  16.827  0.00  0.00    +0.000 N 
ATOM     18  C   UNL     1       4.601   3.688  17.880  0.00  0.00    +0.000 C 
ATOM     19  C   UNL     1       4.785   4.307  19.275  0.00  0.00    +0.000 C 
ATOM     20  N   UNL     1       4.086   5.628  19.400  0.00  0.00    +0.000 NA
ATOM     21  C   UNL     1       4.563   6.563  18.334  0.00  0.00    +0.000 C 
ATOM     22  C   UNL     1       4.346   5.973  16.935  0.00  0.00    +0.000 C 
BRANCH  15  23
ATOM     23  C   UNL     1       6.174   5.234  14.769  0.00  0.00    +0.000 C 
BRANCH  23  24
ATOM     24  C   UNL     1       7.375   4.759  13.960  0.00  0.00    +0.000 C 
BRANCH  24  25
ATOM     25  C   UNL     1       7.030   4.683  12.475  0.00  0.00    +0.000 C 
BRANCH  25  27
ATOM     26  C   UNL     1       5.038   3.247  11.937  0.00  0.00    +0.000 C 
ATOM     27  C   UNL     1       6.547   3.285  12.103  0.00  0.00    +0.000 C 
ENDBRANCH  25  27
ENDBRANCH  24  25
ENDBRANCH  23  24
ENDBRANCH  15  23
ENDBRANCH   1  20
TORSDOF 6
ENDMDL
MODEL 8
REMARK VINA RESULT:      -6.6      4.752     11.545
REMARK  Name = 
REMARK  7 active torsions:
REMARK  status: ('A' for Active; 'I' for Inactive)
REMARK    1  A    between atoms: C_1  and  C_2
REMARK    2  A    between atoms: C_2  and  C_3
REMARK    3  A    between atoms: C_3  and  C_4
REMARK    4  A    between atoms: C_4  and  C_5
REMARK    5  A    between atoms: C_5  and  C_6
REMARK    6  A    between atoms: N_11  and  S_12
REMARK    7  A    between atoms: S_12  and  C_15
REMARK                            x       y       z     vdW  Elec       q    Type
REMARK                         _______ _______ _______ _____ _____    ______ ____
ROOT
ATOM      1  S   UNL     1       3.753   3.613  17.968  0.00  0.00    +0.000 S 
ATOM      2  O   UNL     1       3.962   2.229  18.355  0.00  0.00    +0.000 OA
ATOM      3  O   UNL     1       2.486   4.046  17.427  0.00  0.00    +0.000 OA
ENDROOT
BRANCH   1   4
ATOM      4  C   UNL     1       5.026   4.034  16.806  0.00  0.00    +0.000 A 
ATOM      5  C   UNL     1       6.303   4.385  17.251  0.00  0.00    +0.000 A 
ATOM      6  C   UNL     1       7.288   4.713  16.317  0.00  0.00    +0.000 A 
ATOM      7  C   UNL     1       7.009   4.670  14.947  0.00  0.00    +0.000 A 
ATOM      8  C   UNL     1       5.745   4.241  14.512  0.00  0.00    +0.000 A 
ATOM      9  C   UNL     1       4.737   3.974  15.441  0.00  0.00    +0.000 A 
ATOM     10  O   UNL     1       5.398   4.021  13.201  0.00  0.00    +0.000 OA
ATOM     11  C   UNL     1       6.458   3.425  12.451  0.00  0.00    +0.000 C 
ATOM     12  C   UNL     1       7.366   4.493  11.865  0.00  0.00    +0.000 C 
ATOM     13  C   UNL     1       7.663   5.588  12.877  0.00  0.00    +0.000 C 
ATOM     14  O   UNL     1       8.054   5.034  14.135  0.00  0.00    +0.000 OA
ENDBRANCH   1   4
BRANCH   1  20
ATOM     15  C   UNL     1       1.574   7.874  20.191  0.00  0.00    +0.000 C 
ATOM     16  O   UNL     1       1.745   8.972  19.664  0.00  0.00    +0.000 OA
ATOM     17  N   UNL     1       2.245   6.739  19.768  0.00  0.00    +0.000 N 
ATOM     18  C   UNL     1       3.253   6.877  18.713  0.00  0.00    +0.000 C 
ATOM     19  C   UNL     1       4.494   6.024  19.016  0.00  0.00    +0.000 C 
ATOM     20  N   UNL     1       4.136   4.598  19.314  0.00  0.00    +0.000 NA
ATOM     21  C   UNL     1       3.159   4.541  20.446  0.00  0.00    +0.000 C 
ATOM     22  C   UNL     1       1.897   5.356  20.137  0.00  0.00    +0.000 C 
BRANCH  15  23
ATOM     23  C   UNL     1       0.669   7.699  21.395  0.00  0.00    +0.000 C 
BRANCH  23  24
ATOM     24  C   UNL     1      -0.281   8.877  21.576  0.00  0.00    +0.000 C 
BRANCH  24  25
ATOM     25  C   UNL     1       0.019   9.618  22.876  0.00  0.00    +0.000 C 
BRANCH  25  27
ATOM     26  C   UNL     1      -1.262  11.605  22.020  0.00  0.00    +0.000 C 
ATOM     27  C   UNL     1      -1.070  10.642  23.179  0.00  0.00    +0.000 C 
ENDBRANCH  25  27
ENDBRANCH  24  25
ENDBRANCH  23  24
ENDBRANCH  15  23
ENDBRANCH   1  20
TORSDOF 6
ENDMDL
MODEL 9
REMARK VINA RESULT:      -6.4      3.959      6.443
REMARK  Name = 
REMARK  7 active torsions:
REMARK  status: ('A' for Active; 'I' for Inactive)
REMARK    1  A    between atoms: C_1  and  C_2
REMARK    2  A    between atoms: C_2  and  C_3
REMARK    3  A    between atoms: C_3  and  C_4
REMARK    4  A    between atoms: C_4  and  C_5
REMARK    5  A    between atoms: C_5  and  C_6
REMARK    6  A    between atoms: N_11  and  S_12
REMARK    7  A    between atoms: S_12  and  C_15
REMARK                            x       y       z     vdW  Elec       q    Type
REMARK                         _______ _______ _______ _____ _____    ______ ____
ROOT
ATOM      1  S   UNL     1       2.628   6.120  19.446  0.00  0.00    +0.000 S 
ATOM      2  O   UNL     1       1.666   5.065  19.707  0.00  0.00    +0.000 OA
ATOM      3  O   UNL     1       3.914   6.128  20.104  0.00  0.00    +0.000 OA
ENDROOT
BRANCH   1   4
ATOM      4  C   UNL     1       1.822   7.664  19.787  0.00  0.00    +0.000 A 
ATOM      5  C   UNL     1       1.472   8.525  18.744  0.00  0.00    +0.000 A 
ATOM      6  C   UNL     1       0.838   9.736  19.038  0.00  0.00    +0.000 A 
ATOM      7  C   UNL     1       0.536  10.075  20.361  0.00  0.00    +0.000 A 
ATOM      8  C   UNL     1       0.823   9.164  21.391  0.00  0.00    +0.000 A 
ATOM      9  C   UNL     1       1.514   7.984  21.111  0.00  0.00    +0.000 A 
ATOM     10  O   UNL     1       0.447   9.319  22.703  0.00  0.00    +0.000 OA
ATOM     11  C   UNL     1      -0.859   9.886  22.831  0.00  0.00    +0.000 C 
ATOM     12  C   UNL     1      -0.785  11.403  22.840  0.00  0.00    +0.000 C 
ATOM     13  C   UNL     1       0.175  11.921  21.781  0.00  0.00    +0.000 C 
ATOM     14  O   UNL     1      -0.067  11.298  20.518  0.00  0.00    +0.000 OA
ENDBRANCH   1   4
BRANCH   1  20
ATOM     15  C   UNL     1       6.828   5.625  16.290  0.00  0.00    +0.000 C 
ATOM     16  O   UNL     1       7.611   6.569  16.190  0.00  0.00    +0.000 OA
ATOM     17  N   UNL     1       5.623   5.734  16.962  0.00  0.00    +0.000 N 
ATOM     18  C   UNL     1       5.236   7.043  17.495  0.00  0.00    +0.000 C 
ATOM     19  C   UNL     1       3.743   7.319  17.259  0.00  0.00    +0.000 C 
ATOM     20  N   UNL     1       2.880   6.197  17.755  0.00  0.00    +0.000 NA
ATOM     21  C   UNL     1       3.293   4.910  17.112  0.00  0.00    +0.000 C 
ATOM     22  C   UNL     1       4.773   4.604  17.375  0.00  0.00    +0.000 C 
BRANCH  15  23
ATOM     23  C   UNL     1       7.095   4.293  15.619  0.00  0.00    +0.000 C 
BRANCH  23  24
ATOM     24  C   UNL     1       6.919   4.366  14.106  0.00  0.00    +0.000 C 
BRANCH  24  25
ATOM     25  C   UNL     1       5.704   3.554  13.664  0.00  0.00    +0.000 C 
BRANCH  25  27
ATOM     26  C   UNL     1       4.471   3.291  11.490  0.00  0.00    +0.000 C 
ATOM     27  C   UNL     1       5.813   3.176  12.191  0.00  0.00    +0.000 C 
ENDBRANCH  25  27
ENDBRANCH  24  25
ENDBRANCH  23  24
ENDBRANCH  15  23
ENDBRANCH   1  20
TORSDOF 6
ENDMDL
