MODEL 1
REMARK VINA RESULT:      -8.2      0.000      0.000
REMARK  Name = 
REMARK  6 active torsions:
REMARK  status: ('A' for Active; 'I' for Inactive)
REMARK    1  A    between atoms: C_2  and  C_3
REMARK    2  A    between atoms: C_5  and  C_6
REMARK    3  A    between atoms: C_9  and  C_10
REMARK    4  A    between atoms: C_19  and  S_20
REMARK    5  A    between atoms: S_20  and  C_21
REMARK    6  A    between atoms: C_21  and  C_22
REMARK                            x       y       z     vdW  Elec       q    Type
REMARK                         _______ _______ _______ _____ _____    ______ ____
ROOT
ATOM      1  C   UNL     1       2.572   7.142  18.868  0.00  0.00    +0.000 A 
ATOM      2  C   UNL     1       2.157   8.337  18.279  0.00  0.00    +0.000 A 
ATOM      3  C   UNL     1       1.360   9.231  18.997  0.00  0.00    +0.000 A 
ATOM      4  C   UNL     1       0.939   8.954  20.312  0.00  0.00    +0.000 A 
ATOM      5  C   UNL     1       1.354   7.734  20.876  0.00  0.00    +0.000 A 
ATOM      6  C   UNL     1       2.165   6.839  20.167  0.00  0.00    +0.000 A 
ENDROOT
BRANCH   4   7
ATOM      7  C   UNL     1       0.105   9.923  21.061  0.00  0.00    +0.000 A 
ATOM      8  C   UNL     1      -0.191   9.729  22.424  0.00  0.00    +0.000 A 
ATOM      9  C   UNL     1      -1.013  10.611  23.129  0.00  0.00    +0.000 A 
ATOM     10  C   UNL     1      -1.545  11.727  22.492  0.00  0.00    +0.000 A 
ATOM     11  C   UNL     1      -1.255  11.956  21.149  0.00  0.00    +0.000 A 
ATOM     12  C   UNL     1      -0.445  11.061  20.443  0.00  0.00    +0.000 A 
ENDBRANCH   4   7
BRANCH   1  15
ATOM     13  C   UNL     1       4.348   4.215  17.867  0.00  0.00    +0.000 C 
ATOM     14  O   UNL     1       3.311   4.925  18.536  0.00  0.00    +0.000 OA
ATOM     15  C   UNL     1       3.464   6.211  18.157  0.00  0.00    +0.000 C 
ATOM     16  N   UNL     1       4.318   6.519  17.235  0.00  0.00    +0.000 NA
ATOM     17  C   UNL     1       4.841   5.212  16.792  0.00  0.00    +0.000 C 
BRANCH  13  19
ATOM     18  C   UNL     1       2.818   2.181  17.820  0.00  0.00    +0.000 C 
ATOM     19  C   UNL     1       3.829   2.907  17.322  0.00  0.00    +0.000 C 
ENDBRANCH  13  19
BRANCH  17  20
ATOM     20  S   UNL     1       6.635   5.074  16.597  0.00  0.00    +0.000 S 
BRANCH  20  21
ATOM     21  C   UNL     1       6.902   4.846  14.876  0.00  0.00    +0.000 C 
ATOM     22  C   UNL     1       6.026   3.929  14.075  0.00  0.00    +0.000 C 
ATOM     23  O   UNL     1       7.808   5.474  14.335  0.00  0.00    +0.000 OA
ENDBRANCH  20  21
ENDBRANCH  17  20
ENDBRANCH   1  15
TORSDOF 5
ENDMDL
MODEL 2
REMARK VINA RESULT:      -8.1      1.200      1.796
REMARK  Name = 
REMARK  6 active torsions:
REMARK  status: ('A' for Active; 'I' for Inactive)
REMARK    1  A    between atoms: C_2  and  C_3
REMARK    2  A    between atoms: C_5  and  C_6
REMARK    3  A    between atoms: C_9  and  C_10
REMARK    4  A    between atoms: C_19  and  S_20
REMARK    5  A    between atoms: S_20  and  C_21
REMARK    6  A    between atoms: C_21  and  C_22
REMARK                            x       y       z     vdW  Elec       q    Type
REMARK                         _______ _______ _______ _____ _____    ______ ____
ROOT
ATOM      1  C   UNL     1       2.616   7.172  18.803  0.00  0.00    +0.000 A 
ATOM      2  C   UNL     1       2.188   8.381  18.253  0.00  0.00    +0.000 A 
ATOM      3  C   UNL     1       1.386   9.245  19.002  0.00  0.00    +0.000 A 
ATOM      4  C   UNL     1       0.972   8.925  20.308  0.00  0.00    +0.000 A 
ATOM      5  C   UNL     1       1.399   7.691  20.833  0.00  0.00    +0.000 A 
ATOM      6  C   UNL     1       2.215   6.825  20.094  0.00  0.00    +0.000 A 
ENDROOT
BRANCH   4   7
ATOM      7  C   UNL     1       0.132   9.862  21.091  0.00  0.00    +0.000 A 
ATOM      8  C   UNL     1      -0.349  11.057  20.523  0.00  0.00    +0.000 A 
ATOM      9  C   UNL     1      -1.103  11.970  21.264  0.00  0.00    +0.000 A 
ATOM     10  C   UNL     1      -1.416  11.698  22.591  0.00  0.00    +0.000 A 
ATOM     11  C   UNL     1      -0.970  10.515  23.176  0.00  0.00    +0.000 A 
ATOM     12  C   UNL     1      -0.202   9.612  22.435  0.00  0.00    +0.000 A 
ENDBRANCH   4   7
BRANCH   1  15
ATOM     13  C   UNL     1       4.498   4.324  17.772  0.00  0.00    +0.000 C 
ATOM     14  O   UNL     1       3.468   4.994  18.490  0.00  0.00    +0.000 OA
ATOM     15  C   UNL     1       3.513   6.272  18.061  0.00  0.00    +0.000 C 
ATOM     16  N   UNL     1       4.281   6.597  17.071  0.00  0.00    +0.000 NA
ATOM     17  C   UNL     1       4.852   5.309  16.633  0.00  0.00    +0.000 C 
BRANCH  13  19
ATOM     18  C   UNL     1       3.038   2.239  17.847  0.00  0.00    +0.000 C 
ATOM     19  C   UNL     1       4.026   2.968  17.308  0.00  0.00    +0.000 C 
ENDBRANCH  13  19
BRANCH  17  20
ATOM     20  S   UNL     1       6.634   5.273  16.316  0.00  0.00    +0.000 S 
BRANCH  20  21
ATOM     21  C   UNL     1       7.327   6.466  17.402  0.00  0.00    +0.000 C 
ATOM     22  C   UNL     1       7.679   6.109  18.816  0.00  0.00    +0.000 C 
ATOM     23  O   UNL     1       7.542   7.596  16.972  0.00  0.00    +0.000 OA
ENDBRANCH  20  21
ENDBRANCH  17  20
ENDBRANCH   1  15
TORSDOF 5
ENDMDL
MODEL 3
REMARK VINA RESULT:      -8.0      1.298      1.526
REMARK  Name = 
REMARK  6 active torsions:
REMARK  status: ('A' for Active; 'I' for Inactive)
REMARK    1  A    between atoms: C_2  and  C_3
REMARK    2  A    between atoms: C_5  and  C_6
REMARK    3  A    between atoms: C_9  and  C_10
REMARK    4  A    between atoms: C_19  and  S_20
REMARK    5  A    between atoms: S_20  and  C_21
REMARK    6  A    between atoms: C_21  and  C_22
REMARK                            x       y       z     vdW  Elec       q    Type
REMARK                         _______ _______ _______ _____ _____    ______ ____
ROOT
ATOM      1  C   UNL     1       2.681   6.786  18.858  0.00  0.00    +0.000 A 
ATOM      2  C   UNL     1       2.383   8.041  18.324  0.00  0.00    +0.000 A 
ATOM      3  C   UNL     1       1.639   8.959  19.069  0.00  0.00    +0.000 A 
ATOM      4  C   UNL     1       1.155   8.649  20.354  0.00  0.00    +0.000 A 
ATOM      5  C   UNL     1       1.450   7.370  20.861  0.00  0.00    +0.000 A 
ATOM      6  C   UNL     1       2.208   6.450  20.126  0.00  0.00    +0.000 A 
ENDROOT
BRANCH   4   7
ATOM      7  C   UNL     1       0.378   9.643  21.133  0.00  0.00    +0.000 A 
ATOM      8  C   UNL     1      -0.043   9.369  22.448  0.00  0.00    +0.000 A 
ATOM      9  C   UNL     1      -0.814  10.280  23.175  0.00  0.00    +0.000 A 
ATOM     10  C   UNL     1      -1.165  11.501  22.611  0.00  0.00    +0.000 A 
ATOM     11  C   UNL     1      -0.747  11.808  21.319  0.00  0.00    +0.000 A 
ATOM     12  C   UNL     1       0.011  10.887  20.588  0.00  0.00    +0.000 A 
ENDBRANCH   4   7
BRANCH   1  15
ATOM     13  C   UNL     1       4.486   3.857  17.919  0.00  0.00    +0.000 C 
ATOM     14  O   UNL     1       3.518   4.588  18.663  0.00  0.00    +0.000 OA
ATOM     15  C   UNL     1       3.516   5.823  18.121  0.00  0.00    +0.000 C 
ATOM     16  N   UNL     1       4.192   6.060  17.043  0.00  0.00    +0.000 NA
ATOM     17  C   UNL     1       4.732   4.738  16.672  0.00  0.00    +0.000 C 
BRANCH  13  19
ATOM     18  C   UNL     1       2.949   1.848  18.203  0.00  0.00    +0.000 C 
ATOM     19  C   UNL     1       3.985   2.466  17.619  0.00  0.00    +0.000 C 
ENDBRANCH  13  19
BRANCH  17  20
ATOM     20  S   UNL     1       6.479   4.673  16.203  0.00  0.00    +0.000 S 
BRANCH  20  21
ATOM     21  C   UNL     1       7.360   5.271  17.600  0.00  0.00    +0.000 C 
ATOM     22  C   UNL     1       7.473   6.742  17.869  0.00  0.00    +0.000 C 
ATOM     23  O   UNL     1       7.863   4.455  18.369  0.00  0.00    +0.000 OA
ENDBRANCH  20  21
ENDBRANCH  17  20
ENDBRANCH   1  15
TORSDOF 5
ENDMDL
MODEL 4
REMARK VINA RESULT:      -8.0      1.084      1.983
REMARK  Name = 
REMARK  6 active torsions:
REMARK  status: ('A' for Active; 'I' for Inactive)
REMARK    1  A    between atoms: C_2  and  C_3
REMARK    2  A    between atoms: C_5  and  C_6
REMARK    3  A    between atoms: C_9  and  C_10
REMARK    4  A    between atoms: C_19  and  S_20
REMARK    5  A    between atoms: S_20  and  C_21
REMARK    6  A    between atoms: C_21  and  C_22
REMARK                            x       y       z     vdW  Elec       q    Type
REMARK                         _______ _______ _______ _____ _____    ______ ____
ROOT
ATOM      1  C   UNL     1       2.638   6.972  18.997  0.00  0.00    +0.000 A 
ATOM      2  C   UNL     1       2.182   6.746  20.297  0.00  0.00    +0.000 A 
ATOM      3  C   UNL     1       1.372   7.692  20.928  0.00  0.00    +0.000 A 
ATOM      4  C   UNL     1       1.009   8.895  20.294  0.00  0.00    +0.000 A 
ATOM      5  C   UNL     1       1.498   9.110  18.992  0.00  0.00    +0.000 A 
ATOM      6  C   UNL     1       2.300   8.159  18.348  0.00  0.00    +0.000 A 
ENDROOT
BRANCH   4   7
ATOM      7  C   UNL     1       0.137   9.880  20.977  0.00  0.00    +0.000 A 
ATOM      8  C   UNL     1      -0.403  10.979  20.283  0.00  0.00    +0.000 A 
ATOM      9  C   UNL     1      -1.190  11.939  20.927  0.00  0.00    +0.000 A 
ATOM     10  C   UNL     1      -1.475  11.810  22.281  0.00  0.00    +0.000 A 
ATOM     11  C   UNL     1      -0.970  10.723  22.991  0.00  0.00    +0.000 A 
ATOM     12  C   UNL     1      -0.170   9.773  22.346  0.00  0.00    +0.000 A 
ENDBRANCH   4   7
BRANCH   1  15
ATOM     13  C   UNL     1       4.319   3.952  18.116  0.00  0.00    +0.000 C 
ATOM     14  O   UNL     1       3.372   4.735  18.835  0.00  0.00    +0.000 OA
ATOM     15  C   UNL     1       3.441   5.964  18.285  0.00  0.00    +0.000 C 
ATOM     16  N   UNL     1       4.150   6.160  17.220  0.00  0.00    +0.000 NA
ATOM     17  C   UNL     1       4.633   4.811  16.868  0.00  0.00    +0.000 C 
BRANCH  13  19
ATOM     18  C   UNL     1       2.463   2.270  17.660  0.00  0.00    +0.000 C 
ATOM     19  C   UNL     1       3.757   2.585  17.814  0.00  0.00    +0.000 C 
ENDBRANCH  13  19
BRANCH  17  20
ATOM     20  S   UNL     1       6.384   4.658  16.437  0.00  0.00    +0.000 S 
BRANCH  20  21
ATOM     21  C   UNL     1       7.190   5.969  17.283  0.00  0.00    +0.000 C 
ATOM     22  C   UNL     1       7.452   5.889  18.758  0.00  0.00    +0.000 C 
ATOM     23  O   UNL     1       7.559   6.945  16.636  0.00  0.00    +0.000 OA
ENDBRANCH  20  21
ENDBRANCH  17  20
ENDBRANCH   1  15
TORSDOF 5
ENDMDL
MODEL 5
REMARK VINA RESULT:      -8.0      0.606      1.529
REMARK  Name = 
REMARK  6 active torsions:
REMARK  status: ('A' for Active; 'I' for Inactive)
REMARK    1  A    between atoms: C_2  and  C_3
REMARK    2  A    between atoms: C_5  and  C_6
REMARK    3  A    between atoms: C_9  and  C_10
REMARK    4  A    between atoms: C_19  and  S_20
REMARK    5  A    between atoms: S_20  and  C_21
REMARK    6  A    between atoms: C_21  and  C_22
REMARK                            x       y       z     vdW  Elec       q    Type
REMARK                         _______ _______ _______ _____ _____    ______ ____
ROOT
ATOM      1  C   UNL     1       2.683   7.299  18.633  0.00  0.00    +0.000 A 
ATOM      2  C   UNL     1       2.245   7.207  19.954  0.00  0.00    +0.000 A 
ATOM      3  C   UNL     1       1.388   8.179  20.476  0.00  0.00    +0.000 A 
ATOM      4  C   UNL     1       0.959   9.277  19.707  0.00  0.00    +0.000 A 
ATOM      5  C   UNL     1       1.431   9.358  18.384  0.00  0.00    +0.000 A 
ATOM      6  C   UNL     1       2.279   8.380  17.849  0.00  0.00    +0.000 A 
ENDROOT
BRANCH   4   7
ATOM      7  C   UNL     1       0.039  10.290  20.276  0.00  0.00    +0.000 A 
ATOM      8  C   UNL     1      -0.898  10.960  19.466  0.00  0.00    +0.000 A 
ATOM      9  C   UNL     1      -1.739  11.949  19.982  0.00  0.00    +0.000 A 
ATOM     10  C   UNL     1      -1.680  12.278  21.332  0.00  0.00    +0.000 A 
ATOM     11  C   UNL     1      -0.777  11.619  22.162  0.00  0.00    +0.000 A 
ATOM     12  C   UNL     1       0.075  10.641  21.638  0.00  0.00    +0.000 A 
ENDBRANCH   4   7
BRANCH   1  15
ATOM     13  C   UNL     1       4.358   4.214  18.000  0.00  0.00    +0.000 C 
ATOM     14  O   UNL     1       3.354   5.037  18.585  0.00  0.00    +0.000 OA
ATOM     15  C   UNL     1       3.535   6.257  18.038  0.00  0.00    +0.000 C 
ATOM     16  N   UNL     1       4.381   6.415  17.071  0.00  0.00    +0.000 NA
ATOM     17  C   UNL     1       4.858   5.046  16.796  0.00  0.00    +0.000 C 
BRANCH  13  19
ATOM     18  C   UNL     1       2.495   2.525  17.599  0.00  0.00    +0.000 C 
ATOM     19  C   UNL     1       3.792   2.863  17.640  0.00  0.00    +0.000 C 
ENDBRANCH  13  19
BRANCH  17  20
ATOM     20  S   UNL     1       6.644   4.830  16.594  0.00  0.00    +0.000 S 
BRANCH  20  21
ATOM     21  C   UNL     1       6.916   4.777  14.860  0.00  0.00    +0.000 C 
ATOM     22  C   UNL     1       6.053   3.933  13.970  0.00  0.00    +0.000 C 
ATOM     23  O   UNL     1       7.814   5.467  14.386  0.00  0.00    +0.000 OA
ENDBRANCH  20  21
ENDBRANCH  17  20
ENDBRANCH   1  15
TORSDOF 5
ENDMDL
MODEL 6
REMARK VINA RESULT:      -7.9      1.286      1.819
REMARK  Name = 
REMARK  6 active torsions:
REMARK  status: ('A' for Active; 'I' for Inactive)
REMARK    1  A    between atoms: C_2  and  C_3
REMARK    2  A    between atoms: C_5  and  C_6
REMARK    3  A    between atoms: C_9  and  C_10
REMARK    4  A    between atoms: C_19  and  S_20
REMARK    5  A    between atoms: S_20  and  C_21
REMARK    6  A    between atoms: C_21  and  C_22
REMARK                            x       y       z     vdW  Elec       q    Type
REMARK                         _______ _______ _______ _____ _____    ______ ____
ROOT
ATOM      1  C   UNL     1       2.687   7.111  18.729  0.00  0.00    +0.000 A 
ATOM      2  C   UNL     1       2.281   6.950  20.055  0.00  0.00    +0.000 A 
ATOM      3  C   UNL     1       1.473   7.914  20.661  0.00  0.00    +0.000 A 
ATOM      4  C   UNL     1       1.062   9.073  19.975  0.00  0.00    +0.000 A 
ATOM      5  C   UNL     1       1.502   9.223  18.647  0.00  0.00    +0.000 A 
ATOM      6  C   UNL     1       2.300   8.253  18.027  0.00  0.00    +0.000 A 
ENDROOT
BRANCH   4   7
ATOM      7  C   UNL     1       0.194  10.077  20.633  0.00  0.00    +0.000 A 
ATOM      8  C   UNL     1       0.109  10.159  22.036  0.00  0.00    +0.000 A 
ATOM      9  C   UNL     1      -0.740  11.072  22.667  0.00  0.00    +0.000 A 
ATOM     10  C   UNL     1      -1.513  11.944  21.907  0.00  0.00    +0.000 A 
ATOM     11  C   UNL     1      -1.436  11.899  20.518  0.00  0.00    +0.000 A 
ATOM     12  C   UNL     1      -0.596  10.973  19.890  0.00  0.00    +0.000 A 
ENDBRANCH   4   7
BRANCH   1  15
ATOM     13  C   UNL     1       4.390   4.076  17.952  0.00  0.00    +0.000 C 
ATOM     14  O   UNL     1       3.451   4.879  18.657  0.00  0.00    +0.000 OA
ATOM     15  C   UNL     1       3.485   6.081  18.045  0.00  0.00    +0.000 C 
ATOM     16  N   UNL     1       4.161   6.233  16.952  0.00  0.00    +0.000 NA
ATOM     17  C   UNL     1       4.655   4.875  16.654  0.00  0.00    +0.000 C 
BRANCH  13  19
ATOM     18  C   UNL     1       2.559   2.359  17.523  0.00  0.00    +0.000 C 
ATOM     19  C   UNL     1       3.842   2.687  17.734  0.00  0.00    +0.000 C 
ENDBRANCH  13  19
BRANCH  17  20
ATOM     20  S   UNL     1       6.397   4.727  16.181  0.00  0.00    +0.000 S 
BRANCH  20  21
ATOM     21  C   UNL     1       7.309   5.272  17.579  0.00  0.00    +0.000 C 
ATOM     22  C   UNL     1       7.443   6.733  17.890  0.00  0.00    +0.000 C 
ATOM     23  O   UNL     1       7.815   4.429  18.314  0.00  0.00    +0.000 OA
ENDBRANCH  20  21
ENDBRANCH  17  20
ENDBRANCH   1  15
TORSDOF 5
ENDMDL
MODEL 7
REMARK VINA RESULT:      -7.9      0.593      1.183
REMARK  Name = 
REMARK  6 active torsions:
REMARK  status: ('A' for Active; 'I' for Inactive)
REMARK    1  A    between atoms: C_2  and  C_3
REMARK    2  A    between atoms: C_5  and  C_6
REMARK    3  A    between atoms: C_9  and  C_10
REMARK    4  A    between atoms: C_19  and  S_20
REMARK    5  A    between atoms: S_20  and  C_21
REMARK    6  A    between atoms: C_21  and  C_22
REMARK                            x       y       z     vdW  Elec       q    Type
REMARK                         _______ _______ _______ _____ _____    ______ ____
ROOT
ATOM      1  C   UNL     1       2.403   7.463  18.829  0.00  0.00    +0.000 A 
ATOM      2  C   UNL     1       1.995   7.354  20.159  0.00  0.00    +0.000 A 
ATOM      3  C   UNL     1       1.163   8.326  20.718  0.00  0.00    +0.000 A 
ATOM      4  C   UNL     1       0.730   9.443  19.977  0.00  0.00    +0.000 A 
ATOM      5  C   UNL     1       1.171   9.541  18.645  0.00  0.00    +0.000 A 
ATOM      6  C   UNL     1       1.994   8.562  18.074  0.00  0.00    +0.000 A 
ENDROOT
BRANCH   4   7
ATOM      7  C   UNL     1      -0.164  10.457  20.585  0.00  0.00    +0.000 A 
ATOM      8  C   UNL     1      -0.215  10.641  21.980  0.00  0.00    +0.000 A 
ATOM      9  C   UNL     1      -1.086  11.562  22.567  0.00  0.00    +0.000 A 
ATOM     10  C   UNL     1      -1.916  12.341  21.769  0.00  0.00    +0.000 A 
ATOM     11  C   UNL     1      -1.875  12.195  20.384  0.00  0.00    +0.000 A 
ATOM     12  C   UNL     1      -1.013  11.260  19.802  0.00  0.00    +0.000 A 
ENDBRANCH   4   7
BRANCH   1  15
ATOM     13  C   UNL     1       3.901   4.333  18.006  0.00  0.00    +0.000 C 
ATOM     14  O   UNL     1       2.911   5.170  18.592  0.00  0.00    +0.000 OA
ATOM     15  C   UNL     1       3.227   6.420  18.196  0.00  0.00    +0.000 C 
ATOM     16  N   UNL     1       4.165   6.607  17.324  0.00  0.00    +0.000 NA
ATOM     17  C   UNL     1       4.565   5.239  16.943  0.00  0.00    +0.000 C 
BRANCH  13  19
ATOM     18  C   UNL     1       3.279   1.864  18.033  0.00  0.00    +0.000 C 
ATOM     19  C   UNL     1       3.274   3.075  17.457  0.00  0.00    +0.000 C 
ENDBRANCH  13  19
BRANCH  17  20
ATOM     20  S   UNL     1       6.342   4.901  16.865  0.00  0.00    +0.000 S 
BRANCH  20  21
ATOM     21  C   UNL     1       6.735   4.860  15.154  0.00  0.00    +0.000 C 
ATOM     22  C   UNL     1       5.859   4.131  14.178  0.00  0.00    +0.000 C 
ATOM     23  O   UNL     1       7.733   5.463  14.767  0.00  0.00    +0.000 OA
ENDBRANCH  20  21
ENDBRANCH  17  20
ENDBRANCH   1  15
TORSDOF 5
ENDMDL
MODEL 8
REMARK VINA RESULT:      -7.8      2.367      4.044
REMARK  Name = 
REMARK  6 active torsions:
REMARK  status: ('A' for Active; 'I' for Inactive)
REMARK    1  A    between atoms: C_2  and  C_3
REMARK    2  A    between atoms: C_5  and  C_6
REMARK    3  A    between atoms: C_9  and  C_10
REMARK    4  A    between atoms: C_19  and  S_20
REMARK    5  A    between atoms: S_20  and  C_21
REMARK    6  A    between atoms: C_21  and  C_22
REMARK                            x       y       z     vdW  Elec       q    Type
REMARK                         _______ _______ _______ _____ _____    ______ ____
ROOT
ATOM      1  C   UNL     1       2.495   7.290  18.919  0.00  0.00    +0.000 A 
ATOM      2  C   UNL     1       1.874   7.715  20.094  0.00  0.00    +0.000 A 
ATOM      3  C   UNL     1       1.226   8.952  20.135  0.00  0.00    +0.000 A 
ATOM      4  C   UNL     1       1.195   9.807  19.017  0.00  0.00    +0.000 A 
ATOM      5  C   UNL     1       1.846   9.365  17.851  0.00  0.00    +0.000 A 
ATOM      6  C   UNL     1       2.485   8.120  17.798  0.00  0.00    +0.000 A 
ENDROOT
BRANCH   4   7
ATOM      7  C   UNL     1       0.491  11.110  19.078  0.00  0.00    +0.000 A 
ATOM      8  C   UNL     1      -0.904  11.177  19.256  0.00  0.00    +0.000 A 
ATOM      9  C   UNL     1      -1.584  12.397  19.269  0.00  0.00    +0.000 A 
ATOM     10  C   UNL     1      -0.880  13.588  19.127  0.00  0.00    +0.000 A 
ATOM     11  C   UNL     1       0.503  13.555  18.968  0.00  0.00    +0.000 A 
ATOM     12  C   UNL     1       1.178  12.330  18.939  0.00  0.00    +0.000 A 
ENDBRANCH   4   7
BRANCH   1  15
ATOM     13  C   UNL     1       3.658   4.142  17.712  0.00  0.00    +0.000 C 
ATOM     14  O   UNL     1       3.162   5.469  17.575  0.00  0.00    +0.000 OA
ATOM     15  C   UNL     1       3.129   5.965  18.828  0.00  0.00    +0.000 C 
ATOM     16  N   UNL     1       3.645   5.292  19.806  0.00  0.00    +0.000 NA
ATOM     17  C   UNL     1       4.241   4.115  19.145  0.00  0.00    +0.000 C 
BRANCH  13  19
ATOM     18  C   UNL     1       5.556   4.675  16.101  0.00  0.00    +0.000 C 
ATOM     19  C   UNL     1       4.654   3.831  16.622  0.00  0.00    +0.000 C 
ENDBRANCH  13  19
BRANCH  17  20
ATOM     20  S   UNL     1       3.929   2.504  19.910  0.00  0.00    +0.000 S 
BRANCH  20  21
ATOM     21  C   UNL     1       2.496   2.727  20.901  0.00  0.00    +0.000 C 
ATOM     22  C   UNL     1       1.148   2.922  20.275  0.00  0.00    +0.000 C 
ATOM     23  O   UNL     1       2.618   2.696  22.123  0.00  0.00    +0.000 OA
ENDBRANCH  20  21
ENDBRANCH  17  20
ENDBRANCH   1  15
TORSDOF 5
ENDMDL
MODEL 9
REMARK VINA RESULT:      -7.8      2.330      3.890
REMARK  Name = 
REMARK  6 active torsions:
REMARK  status: ('A' for Active; 'I' for Inactive)
REMARK    1  A    between atoms: C_2  and  C_3
REMARK    2  A    between atoms: C_5  and  C_6
REMARK    3  A    between atoms: C_9  and  C_10
REMARK    4  A    between atoms: C_19  and  S_20
REMARK    5  A    between atoms: S_20  and  C_21
REMARK    6  A    between atoms: C_21  and  C_22
REMARK                            x       y       z     vdW  Elec       q    Type
REMARK                         _______ _______ _______ _____ _____    ______ ____
ROOT
ATOM      1  C   UNL     1       2.479   7.260  18.834  0.00  0.00    +0.000 A 
ATOM      2  C   UNL     1       2.452   8.119  17.735  0.00  0.00    +0.000 A 
ATOM      3  C   UNL     1       1.842   9.371  17.841  0.00  0.00    +0.000 A 
ATOM      4  C   UNL     1       1.226   9.795  19.034  0.00  0.00    +0.000 A 
ATOM      5  C   UNL     1       1.249   8.903  20.121  0.00  0.00    +0.000 A 
ATOM      6  C   UNL     1       1.871   7.652  20.027  0.00  0.00    +0.000 A 
ENDROOT
BRANCH   4   7
ATOM      7  C   UNL     1       0.596  11.133  19.129  0.00  0.00    +0.000 A 
ATOM      8  C   UNL     1      -0.753  11.278  19.505  0.00  0.00    +0.000 A 
ATOM      9  C   UNL     1      -1.370  12.531  19.554  0.00  0.00    +0.000 A 
ATOM     10  C   UNL     1      -0.644  13.677  19.249  0.00  0.00    +0.000 A 
ATOM     11  C   UNL     1       0.697  13.567  18.892  0.00  0.00    +0.000 A 
ATOM     12  C   UNL     1       1.307  12.310  18.828  0.00  0.00    +0.000 A 
ENDBRANCH   4   7
BRANCH   1  15
ATOM     13  C   UNL     1       3.810   4.159  17.680  0.00  0.00    +0.000 C 
ATOM     14  O   UNL     1       3.266   5.464  17.520  0.00  0.00    +0.000 OA
ATOM     15  C   UNL     1       3.170   5.962  18.770  0.00  0.00    +0.000 C 
ATOM     16  N   UNL     1       3.679   5.313  19.768  0.00  0.00    +0.000 NA
ATOM     17  C   UNL     1       4.345   4.160  19.131  0.00  0.00    +0.000 C 
BRANCH  13  19
ATOM     18  C   UNL     1       6.120   4.329  16.621  0.00  0.00    +0.000 C 
ATOM     19  C   UNL     1       4.854   3.887  16.625  0.00  0.00    +0.000 C 
ENDBRANCH  13  19
BRANCH  17  20
ATOM     20  S   UNL     1       4.072   2.539  19.891  0.00  0.00    +0.000 S 
BRANCH  20  21
ATOM     21  C   UNL     1       2.596   2.704  20.827  0.00  0.00    +0.000 C 
ATOM     22  C   UNL     1       1.268   2.869  20.149  0.00  0.00    +0.000 C 
ATOM     23  O   UNL     1       2.669   2.656  22.052  0.00  0.00    +0.000 OA
ENDBRANCH  20  21
ENDBRANCH  17  20
ENDBRANCH   1  15
TORSDOF 5
ENDMDL
