MODEL 1
REMARK VINA RESULT:      -7.8      0.000      0.000
REMARK  Name = 
REMARK  9 active torsions:
REMARK  status: ('A' for Active; 'I' for Inactive)
REMARK    1  A    between atoms: C_1  and  N_2
REMARK    2  A    between atoms: N_2  and  C_3
REMARK    3  A    between atoms: N_2  and  C_4
REMARK    4  A    between atoms: C_4  and  C_5
REMARK    5  A    between atoms: C_5  and  C_6
REMARK    6  A    between atoms: C_6  and  N_7
REMARK    7  A    between atoms: N_7  and  N_8
REMARK    8  A    between atoms: N_7  and  C_18
REMARK    9  A    between atoms: N_9  and  C_10
REMARK                            x       y       z     vdW  Elec       q    Type
REMARK                         _______ _______ _______ _____ _____    ______ ____
ROOT
ATOM      1  N   UNL     1       5.419   4.495  16.303  0.00  0.00    +0.000 N 
ENDROOT
BRANCH   1   2
ATOM      2  C   UNL     1       6.309   5.364  17.008  0.00  0.00    +0.000 A 
ATOM      3  C   UNL     1       6.440   6.738  16.741  0.00  0.00    +0.000 A 
ATOM      4  C   UNL     1       7.304   7.549  17.486  0.00  0.00    +0.000 A 
ATOM      5  C   UNL     1       8.063   7.003  18.515  0.00  0.00    +0.000 A 
ATOM      6  C   UNL     1       7.959   5.647  18.800  0.00  0.00    +0.000 A 
ATOM      7  C   UNL     1       7.094   4.841  18.053  0.00  0.00    +0.000 A 
ENDBRANCH   1   2
BRANCH   1   8
ATOM      8  N   UNL     1       4.180   4.372  16.898  0.00  0.00    +0.000 NA
ATOM      9  N   UNL     1       4.304   3.575  17.855  0.00  0.00    +0.000 NA
BRANCH   9  10
ATOM     10  C   UNL     1       3.149   3.493  18.661  0.00  0.00    +0.000 A 
ATOM     11  C   UNL     1       2.903   4.370  19.725  0.00  0.00    +0.000 A 
ATOM     12  F   UNL     1       3.812   5.298  20.061  0.00  0.00    +0.000 F 
ATOM     13  C   UNL     1       1.704   4.328  20.446  0.00  0.00    +0.000 A 
ATOM     14  C   UNL     1       0.714   3.406  20.108  0.00  0.00    +0.000 A 
ATOM     15  C   UNL     1       0.929   2.526  19.054  0.00  0.00    +0.000 A 
ATOM     16  C   UNL     1       2.137   2.579  18.345  0.00  0.00    +0.000 A 
ATOM     17  F   UNL     1       2.296   1.731  17.317  0.00  0.00    +0.000 F 
ENDBRANCH   9  10
ENDBRANCH   1   8
BRANCH   1  18
ATOM     18  C   UNL     1       5.437   4.659  14.831  0.00  0.00    +0.000 C 
BRANCH  18  19
ATOM     19  C   UNL     1       6.553   3.895  14.117  0.00  0.00    +0.000 C 
BRANCH  19  20
ATOM     20  C   UNL     1       6.309   3.801  12.593  0.00  0.00    +0.000 C 
BRANCH  20  22
ATOM     21  C   UNL     1       4.245   3.301  11.407  0.00  0.00    +0.000 C 
ATOM     22  N   UNL     1       5.359   2.751  12.184  0.00  0.00    +0.000 NA
ATOM     23  C   UNL     1       6.037   1.715  11.395  0.00  0.00    +0.000 C 
ENDBRANCH  20  22
ENDBRANCH  19  20
ENDBRANCH  18  19
ENDBRANCH   1  18
TORSDOF 7
ENDMDL
MODEL 2
REMARK VINA RESULT:      -7.7      0.158      1.012
REMARK  Name = 
REMARK  9 active torsions:
REMARK  status: ('A' for Active; 'I' for Inactive)
REMARK    1  A    between atoms: C_1  and  N_2
REMARK    2  A    between atoms: N_2  and  C_3
REMARK    3  A    between atoms: N_2  and  C_4
REMARK    4  A    between atoms: C_4  and  C_5
REMARK    5  A    between atoms: C_5  and  C_6
REMARK    6  A    between atoms: C_6  and  N_7
REMARK    7  A    between atoms: N_7  and  N_8
REMARK    8  A    between atoms: N_7  and  C_18
REMARK    9  A    between atoms: N_9  and  C_10
REMARK                            x       y       z     vdW  Elec       q    Type
REMARK                         _______ _______ _______ _____ _____    ______ ____
ROOT
ATOM      1  N   UNL     1       5.455   4.410  16.270  0.00  0.00    +0.000 N 
ENDROOT
BRANCH   1   2
ATOM      2  C   UNL     1       6.304   5.266  17.039  0.00  0.00    +0.000 A 
ATOM      3  C   UNL     1       7.121   4.820  18.093  0.00  0.00    +0.000 A 
ATOM      4  C   UNL     1       7.956   5.698  18.792  0.00  0.00    +0.000 A 
ATOM      5  C   UNL     1       7.993   7.047  18.458  0.00  0.00    +0.000 A 
ATOM      6  C   UNL     1       7.193   7.518  17.423  0.00  0.00    +0.000 A 
ATOM      7  C   UNL     1       6.360   6.637  16.727  0.00  0.00    +0.000 A 
ENDBRANCH   1   2
BRANCH   1   8
ATOM      8  N   UNL     1       4.208   4.220  16.831  0.00  0.00    +0.000 NA
ATOM      9  N   UNL     1       4.376   3.608  17.911  0.00  0.00    +0.000 NA
BRANCH   9  10
ATOM     10  C   UNL     1       3.195   3.502  18.676  0.00  0.00    +0.000 A 
ATOM     11  C   UNL     1       2.912   4.350  19.753  0.00  0.00    +0.000 A 
ATOM     12  F   UNL     1       3.806   5.272  20.144  0.00  0.00    +0.000 F 
ATOM     13  C   UNL     1       1.690   4.287  20.433  0.00  0.00    +0.000 A 
ATOM     14  C   UNL     1       0.715   3.371  20.039  0.00  0.00    +0.000 A 
ATOM     15  C   UNL     1       0.967   2.519  18.970  0.00  0.00    +0.000 A 
ATOM     16  C   UNL     1       2.198   2.595  18.303  0.00  0.00    +0.000 A 
ATOM     17  F   UNL     1       2.393   1.774  17.259  0.00  0.00    +0.000 F 
ENDBRANCH   9  10
ENDBRANCH   1   8
BRANCH   1  18
ATOM     18  C   UNL     1       5.497   4.654  14.809  0.00  0.00    +0.000 C 
BRANCH  18  19
ATOM     19  C   UNL     1       6.340   3.651  14.019  0.00  0.00    +0.000 C 
BRANCH  19  20
ATOM     20  C   UNL     1       6.060   3.727  12.501  0.00  0.00    +0.000 C 
BRANCH  20  22
ATOM     21  C   UNL     1       4.141   3.188  11.107  0.00  0.00    +0.000 C 
ATOM     22  N   UNL     1       5.190   2.657  11.980  0.00  0.00    +0.000 NA
ATOM     23  C   UNL     1       5.976   1.659  11.244  0.00  0.00    +0.000 C 
ENDBRANCH  20  22
ENDBRANCH  19  20
ENDBRANCH  18  19
ENDBRANCH   1  18
TORSDOF 7
ENDMDL
MODEL 3
REMARK VINA RESULT:      -7.6      0.333      1.889
REMARK  Name = 
REMARK  9 active torsions:
REMARK  status: ('A' for Active; 'I' for Inactive)
REMARK    1  A    between atoms: C_1  and  N_2
REMARK    2  A    between atoms: N_2  and  C_3
REMARK    3  A    between atoms: N_2  and  C_4
REMARK    4  A    between atoms: C_4  and  C_5
REMARK    5  A    between atoms: C_5  and  C_6
REMARK    6  A    between atoms: C_6  and  N_7
REMARK    7  A    between atoms: N_7  and  N_8
REMARK    8  A    between atoms: N_7  and  C_18
REMARK    9  A    between atoms: N_9  and  C_10
REMARK                            x       y       z     vdW  Elec       q    Type
REMARK                         _______ _______ _______ _____ _____    ______ ____
ROOT
ATOM      1  N   UNL     1       5.594   4.663  16.297  0.00  0.00    +0.000 N 
ENDROOT
BRANCH   1   2
ATOM      2  C   UNL     1       6.466   5.500  17.061  0.00  0.00    +0.000 A 
ATOM      3  C   UNL     1       6.652   6.872  16.816  0.00  0.00    +0.000 A 
ATOM      4  C   UNL     1       7.495   7.651  17.616  0.00  0.00    +0.000 A 
ATOM      5  C   UNL     1       8.178   7.075  18.682  0.00  0.00    +0.000 A 
ATOM      6  C   UNL     1       8.018   5.720  18.947  0.00  0.00    +0.000 A 
ATOM      7  C   UNL     1       7.174   4.946  18.144  0.00  0.00    +0.000 A 
ENDBRANCH   1   2
BRANCH   1   8
ATOM      8  N   UNL     1       4.320   4.570  16.822  0.00  0.00    +0.000 NA
ATOM      9  N   UNL     1       4.378   3.792  17.802  0.00  0.00    +0.000 NA
BRANCH   9  10
ATOM     10  C   UNL     1       3.177   3.743  18.541  0.00  0.00    +0.000 A 
ATOM     11  C   UNL     1       2.175   2.796  18.294  0.00  0.00    +0.000 A 
ATOM     12  F   UNL     1       2.298   1.927  17.279  0.00  0.00    +0.000 F 
ATOM     13  C   UNL     1       1.037   2.707  19.105  0.00  0.00    +0.000 A 
ATOM     14  C   UNL     1       0.883   3.565  20.194  0.00  0.00    +0.000 A 
ATOM     15  C   UNL     1       1.864   4.511  20.465  0.00  0.00    +0.000 A 
ATOM     16  C   UNL     1       2.995   4.588  19.640  0.00  0.00    +0.000 A 
ATOM     17  F   UNL     1       3.933   5.497  19.951  0.00  0.00    +0.000 F 
ENDBRANCH   9  10
ENDBRANCH   1   8
BRANCH   1  18
ATOM     18  C   UNL     1       5.697   4.842  14.831  0.00  0.00    +0.000 C 
BRANCH  18  19
ATOM     19  C   UNL     1       5.741   3.539  14.031  0.00  0.00    +0.000 C 
BRANCH  19  20
ATOM     20  C   UNL     1       6.410   3.728  12.650  0.00  0.00    +0.000 C 
BRANCH  20  22
ATOM     21  C   UNL     1       5.998   1.613  11.523  0.00  0.00    +0.000 C 
ATOM     22  N   UNL     1       5.724   3.052  11.534  0.00  0.00    +0.000 NA
ATOM     23  C   UNL     1       4.274   3.271  11.604  0.00  0.00    +0.000 C 
ENDBRANCH  20  22
ENDBRANCH  19  20
ENDBRANCH  18  19
ENDBRANCH   1  18
TORSDOF 7
ENDMDL
MODEL 4
REMARK VINA RESULT:      -7.5      0.540      2.170
REMARK  Name = 
REMARK  9 active torsions:
REMARK  status: ('A' for Active; 'I' for Inactive)
REMARK    1  A    between atoms: C_1  and  N_2
REMARK    2  A    between atoms: N_2  and  C_3
REMARK    3  A    between atoms: N_2  and  C_4
REMARK    4  A    between atoms: C_4  and  C_5
REMARK    5  A    between atoms: C_5  and  C_6
REMARK    6  A    between atoms: C_6  and  N_7
REMARK    7  A    between atoms: N_7  and  N_8
REMARK    8  A    between atoms: N_7  and  C_18
REMARK    9  A    between atoms: N_9  and  C_10
REMARK                            x       y       z     vdW  Elec       q    Type
REMARK                         _______ _______ _______ _____ _____    ______ ____
ROOT
ATOM      1  N   UNL     1       5.472   5.010  16.431  0.00  0.00    +0.000 N 
ENDROOT
BRANCH   1   2
ATOM      2  C   UNL     1       6.406   5.712  17.256  0.00  0.00    +0.000 A 
ATOM      3  C   UNL     1       7.083   5.133  18.344  0.00  0.00    +0.000 A 
ATOM      4  C   UNL     1       8.012   5.859  19.097  0.00  0.00    +0.000 A 
ATOM      5  C   UNL     1       8.284   7.186  18.784  0.00  0.00    +0.000 A 
ATOM      6  C   UNL     1       7.628   7.788  17.717  0.00  0.00    +0.000 A 
ATOM      7  C   UNL     1       6.701   7.058  16.967  0.00  0.00    +0.000 A 
ENDBRANCH   1   2
BRANCH   1   8
ATOM      8  N   UNL     1       4.221   4.884  17.000  0.00  0.00    +0.000 NA
ATOM      9  N   UNL     1       4.275   3.929  17.809  0.00  0.00    +0.000 NA
BRANCH   9  10
ATOM     10  C   UNL     1       3.108   3.800  18.592  0.00  0.00    +0.000 A 
ATOM     11  C   UNL     1       2.136   2.823  18.346  0.00  0.00    +0.000 A 
ATOM     12  F   UNL     1       2.252   1.999  17.294  0.00  0.00    +0.000 F 
ATOM     13  C   UNL     1       1.037   2.655  19.198  0.00  0.00    +0.000 A 
ATOM     14  C   UNL     1       0.893   3.462  20.326  0.00  0.00    +0.000 A 
ATOM     15  C   UNL     1       1.845   4.437  20.596  0.00  0.00    +0.000 A 
ATOM     16  C   UNL     1       2.937   4.594  19.731  0.00  0.00    +0.000 A 
ATOM     17  F   UNL     1       3.850   5.529  20.041  0.00  0.00    +0.000 F 
ENDBRANCH   9  10
ENDBRANCH   1   8
BRANCH   1  18
ATOM     18  C   UNL     1       5.517   5.381  14.998  0.00  0.00    +0.000 C 
BRANCH  18  19
ATOM     19  C   UNL     1       6.611   4.680  14.191  0.00  0.00    +0.000 C 
BRANCH  19  20
ATOM     20  C   UNL     1       6.109   3.364  13.554  0.00  0.00    +0.000 C 
BRANCH  20  22
ATOM     21  C   UNL     1       6.823   2.359  11.457  0.00  0.00    +0.000 C 
ATOM     22  N   UNL     1       5.997   3.393  12.085  0.00  0.00    +0.000 NA
ATOM     23  C   UNL     1       4.600   3.221  11.666  0.00  0.00    +0.000 C 
ENDBRANCH  20  22
ENDBRANCH  19  20
ENDBRANCH  18  19
ENDBRANCH   1  18
TORSDOF 7
ENDMDL
MODEL 5
REMARK VINA RESULT:      -7.4      3.380      5.286
REMARK  Name = 
REMARK  9 active torsions:
REMARK  status: ('A' for Active; 'I' for Inactive)
REMARK    1  A    between atoms: C_1  and  N_2
REMARK    2  A    between atoms: N_2  and  C_3
REMARK    3  A    between atoms: N_2  and  C_4
REMARK    4  A    between atoms: C_4  and  C_5
REMARK    5  A    between atoms: C_5  and  C_6
REMARK    6  A    between atoms: C_6  and  N_7
REMARK    7  A    between atoms: N_7  and  N_8
REMARK    8  A    between atoms: N_7  and  C_18
REMARK    9  A    between atoms: N_9  and  C_10
REMARK                            x       y       z     vdW  Elec       q    Type
REMARK                         _______ _______ _______ _____ _____    ______ ____
ROOT
ATOM      1  N   UNL     1       3.812   5.022  18.219  0.00  0.00    +0.000 N 
ENDROOT
BRANCH   1   2
ATOM      2  C   UNL     1       5.132   5.570  18.187  0.00  0.00    +0.000 A 
ATOM      3  C   UNL     1       5.575   6.497  17.227  0.00  0.00    +0.000 A 
ATOM      4  C   UNL     1       6.870   7.025  17.263  0.00  0.00    +0.000 A 
ATOM      5  C   UNL     1       7.758   6.636  18.259  0.00  0.00    +0.000 A 
ATOM      6  C   UNL     1       7.351   5.717  19.220  0.00  0.00    +0.000 A 
ATOM      7  C   UNL     1       6.056   5.192  19.180  0.00  0.00    +0.000 A 
ENDBRANCH   1   2
BRANCH   1   8
ATOM      8  N   UNL     1       2.817   5.980  18.214  0.00  0.00    +0.000 NA
ATOM      9  N   UNL     1       2.959   6.669  19.250  0.00  0.00    +0.000 NA
BRANCH   9  10
ATOM     10  C   UNL     1       2.113   7.797  19.284  0.00  0.00    +0.000 A 
ATOM     11  C   UNL     1       1.369   8.151  20.417  0.00  0.00    +0.000 A 
ATOM     12  F   UNL     1       1.386   7.374  21.510  0.00  0.00    +0.000 F 
ATOM     13  C   UNL     1       0.614   9.330  20.456  0.00  0.00    +0.000 A 
ATOM     14  C   UNL     1       0.596  10.189  19.358  0.00  0.00    +0.000 A 
ATOM     15  C   UNL     1       1.329   9.864  18.222  0.00  0.00    +0.000 A 
ATOM     16  C   UNL     1       2.076   8.679  18.199  0.00  0.00    +0.000 A 
ATOM     17  F   UNL     1       2.792   8.414  17.094  0.00  0.00    +0.000 F 
ENDBRANCH   9  10
ENDBRANCH   1   8
BRANCH   1  18
ATOM     18  C   UNL     1       3.611   3.850  17.336  0.00  0.00    +0.000 C 
BRANCH  18  19
ATOM     19  C   UNL     1       3.353   2.534  18.072  0.00  0.00    +0.000 C 
BRANCH  19  20
ATOM     20  C   UNL     1       3.084   2.756  19.578  0.00  0.00    +0.000 C 
BRANCH  20  22
ATOM     21  C   UNL     1       1.179   3.850  20.625  0.00  0.00    +0.000 C 
ATOM     22  N   UNL     1       1.670   2.631  19.978  0.00  0.00    +0.000 NA
ATOM     23  C   UNL     1       0.826   2.323  18.816  0.00  0.00    +0.000 C 
ENDBRANCH  20  22
ENDBRANCH  19  20
ENDBRANCH  18  19
ENDBRANCH   1  18
TORSDOF 7
ENDMDL
MODEL 6
REMARK VINA RESULT:      -7.4      2.897      5.725
REMARK  Name = 
REMARK  9 active torsions:
REMARK  status: ('A' for Active; 'I' for Inactive)
REMARK    1  A    between atoms: C_1  and  N_2
REMARK    2  A    between atoms: N_2  and  C_3
REMARK    3  A    between atoms: N_2  and  C_4
REMARK    4  A    between atoms: C_4  and  C_5
REMARK    5  A    between atoms: C_5  and  C_6
REMARK    6  A    between atoms: C_6  and  N_7
REMARK    7  A    between atoms: N_7  and  N_8
REMARK    8  A    between atoms: N_7  and  C_18
REMARK    9  A    between atoms: N_9  and  C_10
REMARK                            x       y       z     vdW  Elec       q    Type
REMARK                         _______ _______ _______ _____ _____    ______ ____
ROOT
ATOM      1  N   UNL     1       3.812   4.268  18.000  0.00  0.00    +0.000 N 
ENDROOT
BRANCH   1   2
ATOM      2  C   UNL     1       4.999   4.483  17.232  0.00  0.00    +0.000 A 
ATOM      3  C   UNL     1       6.296   4.484  17.776  0.00  0.00    +0.000 A 
ATOM      4  C   UNL     1       7.426   4.668  16.971  0.00  0.00    +0.000 A 
ATOM      5  C   UNL     1       7.287   4.860  15.601  0.00  0.00    +0.000 A 
ATOM      6  C   UNL     1       6.017   4.868  15.035  0.00  0.00    +0.000 A 
ATOM      7  C   UNL     1       4.891   4.683  15.843  0.00  0.00    +0.000 A 
ENDBRANCH   1   2
BRANCH   1   8
ATOM      8  N   UNL     1       2.959   5.353  18.012  0.00  0.00    +0.000 NA
ATOM      9  N   UNL     1       3.307   6.089  18.964  0.00  0.00    +0.000 NA
BRANCH   9  10
ATOM     10  C   UNL     1       2.628   7.325  18.985  0.00  0.00    +0.000 A 
ATOM     11  C   UNL     1       2.606   8.196  17.889  0.00  0.00    +0.000 A 
ATOM     12  F   UNL     1       3.301   7.906  16.779  0.00  0.00    +0.000 F 
ATOM     13  C   UNL     1       1.844   9.371  17.903  0.00  0.00    +0.000 A 
ATOM     14  C   UNL     1       1.075   9.695  19.020  0.00  0.00    +0.000 A 
ATOM     15  C   UNL     1       1.075   8.846  20.121  0.00  0.00    +0.000 A 
ATOM     16  C   UNL     1       1.846   7.676  20.091  0.00  0.00    +0.000 A 
ATOM     17  F   UNL     1       1.798   6.870  21.163  0.00  0.00    +0.000 F 
ENDBRANCH   9  10
ENDBRANCH   1   8
BRANCH   1  18
ATOM     18  C   UNL     1       3.191   2.936  17.813  0.00  0.00    +0.000 C 
BRANCH  18  19
ATOM     19  C   UNL     1       1.711   2.864  18.196  0.00  0.00    +0.000 C 
BRANCH  19  20
ATOM     20  C   UNL     1       1.474   1.952  19.422  0.00  0.00    +0.000 C 
BRANCH  20  22
ATOM     21  C   UNL     1       2.452   2.729  21.509  0.00  0.00    +0.000 C 
ATOM     22  N   UNL     1       1.241   2.669  20.688  0.00  0.00    +0.000 NA
ATOM     23  C   UNL     1       0.758   4.032  20.433  0.00  0.00    +0.000 C 
ENDBRANCH  20  22
ENDBRANCH  19  20
ENDBRANCH  18  19
ENDBRANCH   1  18
TORSDOF 7
ENDMDL
MODEL 7
REMARK VINA RESULT:      -7.4      2.994      6.515
REMARK  Name = 
REMARK  9 active torsions:
REMARK  status: ('A' for Active; 'I' for Inactive)
REMARK    1  A    between atoms: C_1  and  N_2
REMARK    2  A    between atoms: N_2  and  C_3
REMARK    3  A    between atoms: N_2  and  C_4
REMARK    4  A    between atoms: C_4  and  C_5
REMARK    5  A    between atoms: C_5  and  C_6
REMARK    6  A    between atoms: C_6  and  N_7
REMARK    7  A    between atoms: N_7  and  N_8
REMARK    8  A    between atoms: N_7  and  C_18
REMARK    9  A    between atoms: N_9  and  C_10
REMARK                            x       y       z     vdW  Elec       q    Type
REMARK                         _______ _______ _______ _____ _____    ______ ____
ROOT
ATOM      1  N   UNL     1       2.350   6.224  19.435  0.00  0.00    +0.000 N 
ENDROOT
BRANCH   1   2
ATOM      2  C   UNL     1       1.866   7.557  19.616  0.00  0.00    +0.000 A 
ATOM      3  C   UNL     1       1.783   8.509  18.585  0.00  0.00    +0.000 A 
ATOM      4  C   UNL     1       1.270   9.791  18.813  0.00  0.00    +0.000 A 
ATOM      5  C   UNL     1       0.831  10.155  20.081  0.00  0.00    +0.000 A 
ATOM      6  C   UNL     1       0.904   9.237  21.122  0.00  0.00    +0.000 A 
ATOM      7  C   UNL     1       1.417   7.957  20.889  0.00  0.00    +0.000 A 
ENDBRANCH   1   2
BRANCH   1   8
ATOM      8  N   UNL     1       3.510   6.155  18.690  0.00  0.00    +0.000 NA
ATOM      9  N   UNL     1       4.035   5.041  18.921  0.00  0.00    +0.000 NA
BRANCH   9  10
ATOM     10  C   UNL     1       5.139   4.766  18.087  0.00  0.00    +0.000 A 
ATOM     11  C   UNL     1       5.003   4.224  16.804  0.00  0.00    +0.000 A 
ATOM     12  F   UNL     1       3.793   3.879  16.338  0.00  0.00    +0.000 F 
ATOM     13  C   UNL     1       6.108   4.052  15.961  0.00  0.00    +0.000 A 
ATOM     14  C   UNL     1       7.381   4.432  16.387  0.00  0.00    +0.000 A 
ATOM     15  C   UNL     1       7.545   4.976  17.655  0.00  0.00    +0.000 A 
ATOM     16  C   UNL     1       6.428   5.138  18.487  0.00  0.00    +0.000 A 
ATOM     17  F   UNL     1       6.623   5.692  19.693  0.00  0.00    +0.000 F 
ENDBRANCH   9  10
ENDBRANCH   1   8
BRANCH   1  18
ATOM     18  C   UNL     1       2.289   5.377  20.649  0.00  0.00    +0.000 C 
BRANCH  18  19
ATOM     19  C   UNL     1       1.204   4.298  20.619  0.00  0.00    +0.000 C 
BRANCH  19  20
ATOM     20  C   UNL     1       1.790   2.881  20.815  0.00  0.00    +0.000 C 
BRANCH  20  22
ATOM     21  C   UNL     1       0.638   2.475  18.712  0.00  0.00    +0.000 C 
ATOM     22  N   UNL     1       1.653   1.990  19.649  0.00  0.00    +0.000 NA
ATOM     23  C   UNL     1       2.935   1.849  18.948  0.00  0.00    +0.000 C 
ENDBRANCH  20  22
ENDBRANCH  19  20
ENDBRANCH  18  19
ENDBRANCH   1  18
TORSDOF 7
ENDMDL
MODEL 8
REMARK VINA RESULT:      -7.4      1.024      1.950
REMARK  Name = 
REMARK  9 active torsions:
REMARK  status: ('A' for Active; 'I' for Inactive)
REMARK    1  A    between atoms: C_1  and  N_2
REMARK    2  A    between atoms: N_2  and  C_3
REMARK    3  A    between atoms: N_2  and  C_4
REMARK    4  A    between atoms: C_4  and  C_5
REMARK    5  A    between atoms: C_5  and  C_6
REMARK    6  A    between atoms: C_6  and  N_7
REMARK    7  A    between atoms: N_7  and  N_8
REMARK    8  A    between atoms: N_7  and  C_18
REMARK    9  A    between atoms: N_9  and  C_10
REMARK                            x       y       z     vdW  Elec       q    Type
REMARK                         _______ _______ _______ _____ _____    ______ ____
ROOT
ATOM      1  N   UNL     1       6.383   4.279  15.966  0.00  0.00    +0.000 N 
ENDROOT
BRANCH   1   2
ATOM      2  C   UNL     1       6.960   5.228  16.867  0.00  0.00    +0.000 A 
ATOM      3  C   UNL     1       6.950   6.618  16.656  0.00  0.00    +0.000 A 
ATOM      4  C   UNL     1       7.502   7.503  17.588  0.00  0.00    +0.000 A 
ATOM      5  C   UNL     1       8.082   7.020  18.756  0.00  0.00    +0.000 A 
ATOM      6  C   UNL     1       8.110   5.650  18.991  0.00  0.00    +0.000 A 
ATOM      7  C   UNL     1       7.558   4.769  18.056  0.00  0.00    +0.000 A 
ENDBRANCH   1   2
BRANCH   1   8
ATOM      8  N   UNL     1       5.054   4.010  16.224  0.00  0.00    +0.000 NA
ATOM      9  N   UNL     1       4.979   3.615  17.411  0.00  0.00    +0.000 NA
BRANCH   9  10
ATOM     10  C   UNL     1       3.650   3.470  17.863  0.00  0.00    +0.000 A 
ATOM     11  C   UNL     1       3.072   2.223  18.130  0.00  0.00    +0.000 A 
ATOM     12  F   UNL     1       3.759   1.094  17.897  0.00  0.00    +0.000 F 
ATOM     13  C   UNL     1       1.785   2.113  18.671  0.00  0.00    +0.000 A 
ATOM     14  C   UNL     1       1.048   3.260  18.965  0.00  0.00    +0.000 A 
ATOM     15  C   UNL     1       1.599   4.511  18.714  0.00  0.00    +0.000 A 
ATOM     16  C   UNL     1       2.887   4.602  18.169  0.00  0.00    +0.000 A 
ATOM     17  F   UNL     1       3.394   5.828  17.966  0.00  0.00    +0.000 F 
ENDBRANCH   9  10
ENDBRANCH   1   8
BRANCH   1  18
ATOM     18  C   UNL     1       6.758   4.472  14.546  0.00  0.00    +0.000 C 
BRANCH  18  19
ATOM     19  C   UNL     1       5.813   3.810  13.542  0.00  0.00    +0.000 C 
BRANCH  19  20
ATOM     20  C   UNL     1       6.533   3.440  12.225  0.00  0.00    +0.000 C 
BRANCH  20  22
ATOM     21  C   UNL     1       5.865   1.285  11.316  0.00  0.00    +0.000 C 
ATOM     22  N   UNL     1       5.693   2.737  11.238  0.00  0.00    +0.000 NA
ATOM     23  C   UNL     1       4.276   3.070  11.430  0.00  0.00    +0.000 C 
ENDBRANCH  20  22
ENDBRANCH  19  20
ENDBRANCH  18  19
ENDBRANCH   1  18
TORSDOF 7
ENDMDL
MODEL 9
REMARK VINA RESULT:      -7.3      3.433      7.317
REMARK  Name = 
REMARK  9 active torsions:
REMARK  status: ('A' for Active; 'I' for Inactive)
REMARK    1  A    between atoms: C_1  and  N_2
REMARK    2  A    between atoms: N_2  and  C_3
REMARK    3  A    between atoms: N_2  and  C_4
REMARK    4  A    between atoms: C_4  and  C_5
REMARK    5  A    between atoms: C_5  and  C_6
REMARK    6  A    between atoms: C_6  and  N_7
REMARK    7  A    between atoms: N_7  and  N_8
REMARK    8  A    between atoms: N_7  and  C_18
REMARK    9  A    between atoms: N_9  and  C_10
REMARK                            x       y       z     vdW  Elec       q    Type
REMARK                         _______ _______ _______ _____ _____    ______ ____
ROOT
ATOM      1  N   UNL     1       2.988   6.386  19.181  0.00  0.00    +0.000 N 
ENDROOT
BRANCH   1   2
ATOM      2  C   UNL     1       2.324   5.187  19.588  0.00  0.00    +0.000 A 
ATOM      3  C   UNL     1       1.608   4.350  18.714  0.00  0.00    +0.000 A 
ATOM      4  C   UNL     1       1.005   3.170  19.162  0.00  0.00    +0.000 A 
ATOM      5  C   UNL     1       1.097   2.799  20.499  0.00  0.00    +0.000 A 
ATOM      6  C   UNL     1       1.795   3.608  21.388  0.00  0.00    +0.000 A 
ATOM      7  C   UNL     1       2.397   4.786  20.935  0.00  0.00    +0.000 A 
ENDBRANCH   1   2
BRANCH   1   8
ATOM      8  N   UNL     1       3.731   6.240  18.026  0.00  0.00    +0.000 NA
ATOM      9  N   UNL     1       4.701   5.497  18.300  0.00  0.00    +0.000 NA
BRANCH   9  10
ATOM     10  C   UNL     1       5.449   5.121  17.164  0.00  0.00    +0.000 A 
ATOM     11  C   UNL     1       4.982   4.197  16.222  0.00  0.00    +0.000 A 
ATOM     12  F   UNL     1       3.809   3.574  16.407  0.00  0.00    +0.000 F 
ATOM     13  C   UNL     1       5.702   3.916  15.054  0.00  0.00    +0.000 A 
ATOM     14  C   UNL     1       6.908   4.567  14.799  0.00  0.00    +0.000 A 
ATOM     15  C   UNL     1       7.394   5.493  15.716  0.00  0.00    +0.000 A 
ATOM     16  C   UNL     1       6.662   5.759  16.881  0.00  0.00    +0.000 A 
ATOM     17  F   UNL     1       7.150   6.679  17.728  0.00  0.00    +0.000 F 
ENDBRANCH   9  10
ENDBRANCH   1   8
BRANCH   1  18
ATOM     18  C   UNL     1       2.166   7.613  19.291  0.00  0.00    +0.000 C 
BRANCH  18  19
ATOM     19  C   UNL     1       2.135   8.476  18.028  0.00  0.00    +0.000 C 
BRANCH  19  20
ATOM     20  C   UNL     1       1.002   9.526  18.071  0.00  0.00    +0.000 C 
BRANCH  20  22
ATOM     21  C   UNL     1       1.320  11.690  19.137  0.00  0.00    +0.000 C 
ATOM     22  N   UNL     1       0.920  10.294  19.327  0.00  0.00    +0.000 NA
ATOM     23  C   UNL     1      -0.441  10.248  19.876  0.00  0.00    +0.000 C 
ENDBRANCH  20  22
ENDBRANCH  19  20
ENDBRANCH  18  19
ENDBRANCH   1  18
TORSDOF 7
ENDMDL
