MODEL 1
REMARK VINA RESULT:      -8.0      0.000      0.000
REMARK  Name = 
REMARK  10 active torsions:
REMARK  status: ('A' for Active; 'I' for Inactive)
REMARK    1  A    between atoms: C_1  and  O_2
REMARK    2  A    between atoms: O_2  and  C_3
REMARK    3  A    between atoms: C_6  and  C_7
REMARK    4  A    between atoms: C_7  and  O_8
REMARK    5  A    between atoms: O_8  and  N_9
REMARK    6  A    between atoms: C_15  and  O_16
REMARK    7  A    between atoms: O_16  and  C_17
REMARK    8  A    between atoms: C_22  and  O_23
REMARK    9  A    between atoms: O_23  and  C_24
REMARK   10  A    between atoms: C_30  and  O_31
REMARK                            x       y       z     vdW  Elec       q    Type
REMARK                         _______ _______ _______ _____ _____    ______ ____
ROOT
ATOM      1  N   UNL     1       1.807   8.974  17.696  0.00  0.00    +0.000 NA
ATOM      2  C   UNL     1       0.979   9.480  18.572  0.00  0.00    +0.000 C 
ATOM      3  C   UNL     1       1.096   9.448  20.093  0.00  0.00    +0.000 A 
ATOM      4  C   UNL     1       1.532   8.497  20.990  0.00  0.00    +0.000 A 
ATOM      5  C   UNL     1       1.087   8.609  22.325  0.00  0.00    +0.000 A 
ATOM      6  C   UNL     1       0.076   9.531  22.678  0.00  0.00    +0.000 A 
ATOM      7  C   UNL     1      -0.275  10.512  21.774  0.00  0.00    +0.000 A 
ATOM      8  C   UNL     1       0.522  10.575  20.650  0.00  0.00    +0.000 A 
ATOM      9  C   UNL     1       0.734  11.715  19.784  0.00  0.00    +0.000 C 
ATOM     10  O   UNL     1       1.775  12.349  19.787  0.00  0.00    +0.000 OA
ATOM     11  C   UNL     1      -0.201  11.700  18.705  0.00  0.00    +0.000 A 
ATOM     12  C   UNL     1      -1.273  12.590  18.768  0.00  0.00    +0.000 A 
ATOM     13  C   UNL     1      -2.486  12.121  18.283  0.00  0.00    +0.000 A 
ATOM     14  C   UNL     1      -2.583  10.829  17.735  0.00  0.00    +0.000 A 
ATOM     15  C   UNL     1      -1.465   9.958  17.638  0.00  0.00    +0.000 A 
ATOM     16  C   UNL     1      -0.221  10.405  18.113  0.00  0.00    +0.000 A 
ENDROOT
BRANCH   7  17
ATOM     17  O   UNL     1      -1.307  11.393  21.865  0.00  0.00    +0.000 OA
ATOM     18  C   UNL     1      -1.881  11.641  23.150  0.00  0.00    +0.000 C 
ENDBRANCH   7  17
BRANCH  12  19
ATOM     19  O   UNL     1      -1.337  13.774  19.454  0.00  0.00    +0.000 OA
ATOM     20  C   UNL     1      -0.550  14.883  19.003  0.00  0.00    +0.000 C 
ENDBRANCH  12  19
BRANCH   1  21
ATOM     21  O   UNL     1       2.944   8.379  18.311  0.00  0.00    +0.000 OA
BRANCH  21  22
ATOM     22  C   UNL     1       3.355   7.188  17.589  0.00  0.00    +0.000 C 
BRANCH  22  26
ATOM     23  C   UNL     1       3.134   3.631  20.141  0.00  0.00    +0.000 A 
ATOM     24  C   UNL     1       2.058   4.514  20.073  0.00  0.00    +0.000 A 
ATOM     25  C   UNL     1       2.112   5.657  19.233  0.00  0.00    +0.000 A 
ATOM     26  C   UNL     1       3.254   5.928  18.452  0.00  0.00    +0.000 A 
ATOM     27  C   UNL     1       4.327   5.047  18.553  0.00  0.00    +0.000 A 
ATOM     28  C   UNL     1       4.295   3.929  19.391  0.00  0.00    +0.000 A 
BRANCH  23  30
ATOM     29  C   UNL     1       1.659   2.485  21.663  0.00  0.00    +0.000 C 
ATOM     30  O   UNL     1       2.915   2.577  21.000  0.00  0.00    +0.000 OA
ENDBRANCH  23  30
BRANCH  28  31
ATOM     31  O   UNL     1       5.378   3.099  19.443  0.00  0.00    +0.000 OA
ATOM     32  H   UNL     1       5.602   2.834  18.537  0.00  0.00    +0.000 HD
ENDBRANCH  28  31
ENDBRANCH  22  26
ENDBRANCH  21  22
ENDBRANCH   1  21
TORSDOF 7
ENDMDL
MODEL 2
REMARK VINA RESULT:      -7.9      1.872      3.117
REMARK  Name = 
REMARK  10 active torsions:
REMARK  status: ('A' for Active; 'I' for Inactive)
REMARK    1  A    between atoms: C_1  and  O_2
REMARK    2  A    between atoms: O_2  and  C_3
REMARK    3  A    between atoms: C_6  and  C_7
REMARK    4  A    between atoms: C_7  and  O_8
REMARK    5  A    between atoms: O_8  and  N_9
REMARK    6  A    between atoms: C_15  and  O_16
REMARK    7  A    between atoms: O_16  and  C_17
REMARK    8  A    between atoms: C_22  and  O_23
REMARK    9  A    between atoms: O_23  and  C_24
REMARK   10  A    between atoms: C_30  and  O_31
REMARK                            x       y       z     vdW  Elec       q    Type
REMARK                         _______ _______ _______ _____ _____    ______ ____
ROOT
ATOM      1  N   UNL     1       2.372   9.976  17.996  0.00  0.00    +0.000 NA
ATOM      2  C   UNL     1       1.445  10.809  18.391  0.00  0.00    +0.000 C 
ATOM      3  C   UNL     1      -0.053  10.542  18.521  0.00  0.00    +0.000 A 
ATOM      4  C   UNL     1      -0.956   9.823  17.768  0.00  0.00    +0.000 A 
ATOM      5  C   UNL     1      -2.323  10.152  17.902  0.00  0.00    +0.000 A 
ATOM      6  C   UNL     1      -2.724  11.304  18.615  0.00  0.00    +0.000 A 
ATOM      7  C   UNL     1      -1.803  11.948  19.415  0.00  0.00    +0.000 A 
ATOM      8  C   UNL     1      -0.594  11.295  19.545  0.00  0.00    +0.000 A 
ATOM      9  C   UNL     1       0.364  11.424  20.621  0.00  0.00    +0.000 C 
ATOM     10  O   UNL     1       0.521  10.554  21.460  0.00  0.00    +0.000 OA
ATOM     11  C   UNL     1       1.328  12.432  20.312  0.00  0.00    +0.000 A 
ATOM     12  C   UNL     1       1.204  13.662  20.956  0.00  0.00    +0.000 A 
ATOM     13  C   UNL     1       1.516  14.783  20.198  0.00  0.00    +0.000 A 
ATOM     14  C   UNL     1       1.963  14.644  18.871  0.00  0.00    +0.000 A 
ATOM     15  C   UNL     1       2.127  13.376  18.252  0.00  0.00    +0.000 A 
ATOM     16  C   UNL     1       1.826  12.222  18.994  0.00  0.00    +0.000 A 
ENDROOT
BRANCH   7  17
ATOM     17  O   UNL     1      -1.950  13.136  20.061  0.00  0.00    +0.000 OA
ATOM     18  C   UNL     1      -2.888  13.214  21.137  0.00  0.00    +0.000 C 
ENDBRANCH   7  17
BRANCH  12  19
ATOM     19  O   UNL     1       0.595  13.921  22.155  0.00  0.00    +0.000 OA
ATOM     20  C   UNL     1       0.016  15.214  22.376  0.00  0.00    +0.000 C 
ENDBRANCH  12  19
BRANCH   1  21
ATOM     21  O   UNL     1       1.852   8.682  17.714  0.00  0.00    +0.000 OA
BRANCH  21  22
ATOM     22  C   UNL     1       2.886   7.672  17.840  0.00  0.00    +0.000 C 
BRANCH  22  26
ATOM     23  C   UNL     1       1.529   4.006  19.823  0.00  0.00    +0.000 A 
ATOM     24  C   UNL     1       1.733   5.170  20.562  0.00  0.00    +0.000 A 
ATOM     25  C   UNL     1       2.151   6.368  19.925  0.00  0.00    +0.000 A 
ATOM     26  C   UNL     1       2.375   6.408  18.535  0.00  0.00    +0.000 A 
ATOM     27  C   UNL     1       2.190   5.228  17.818  0.00  0.00    +0.000 A 
ATOM     28  C   UNL     1       1.797   4.037  18.436  0.00  0.00    +0.000 A 
BRANCH  23  30
ATOM     29  C   UNL     1       1.839   2.649  21.790  0.00  0.00    +0.000 C 
ATOM     30  O   UNL     1       1.123   2.939  20.594  0.00  0.00    +0.000 OA
ENDBRANCH  23  30
BRANCH  28  31
ATOM     31  O   UNL     1       1.629   2.914  17.677  0.00  0.00    +0.000 OA
ATOM     32  H   UNL     1       2.483   2.458  17.617  0.00  0.00    +0.000 HD
ENDBRANCH  28  31
ENDBRANCH  22  26
ENDBRANCH  21  22
ENDBRANCH   1  21
TORSDOF 7
ENDMDL
MODEL 3
REMARK VINA RESULT:      -7.9      1.309      1.348
REMARK  Name = 
REMARK  10 active torsions:
REMARK  status: ('A' for Active; 'I' for Inactive)
REMARK    1  A    between atoms: C_1  and  O_2
REMARK    2  A    between atoms: O_2  and  C_3
REMARK    3  A    between atoms: C_6  and  C_7
REMARK    4  A    between atoms: C_7  and  O_8
REMARK    5  A    between atoms: O_8  and  N_9
REMARK    6  A    between atoms: C_15  and  O_16
REMARK    7  A    between atoms: O_16  and  C_17
REMARK    8  A    between atoms: C_22  and  O_23
REMARK    9  A    between atoms: O_23  and  C_24
REMARK   10  A    between atoms: C_30  and  O_31
REMARK                            x       y       z     vdW  Elec       q    Type
REMARK                         _______ _______ _______ _____ _____    ______ ____
ROOT
ATOM      1  N   UNL     1       1.459   9.176  17.896  0.00  0.00    +0.000 NA
ATOM      2  C   UNL     1       0.648   9.644  18.809  0.00  0.00    +0.000 C 
ATOM      3  C   UNL     1       0.850   9.645  20.322  0.00  0.00    +0.000 A 
ATOM      4  C   UNL     1       1.393   8.737  21.206  0.00  0.00    +0.000 A 
ATOM      5  C   UNL     1       1.015   8.843  22.562  0.00  0.00    +0.000 A 
ATOM      6  C   UNL     1      -0.032   9.705  22.958  0.00  0.00    +0.000 A 
ATOM      7  C   UNL     1      -0.493  10.648  22.062  0.00  0.00    +0.000 A 
ATOM      8  C   UNL     1       0.237  10.742  20.895  0.00  0.00    +0.000 A 
ATOM      9  C   UNL     1       0.328  11.879  20.004  0.00  0.00    +0.000 C 
ATOM     10  O   UNL     1       1.325  12.577  19.941  0.00  0.00    +0.000 OA
ATOM     11  C   UNL     1      -0.661  11.788  18.979  0.00  0.00    +0.000 A 
ATOM     12  C   UNL     1      -1.782  12.610  19.089  0.00  0.00    +0.000 A 
ATOM     13  C   UNL     1      -2.988  12.058  18.678  0.00  0.00    +0.000 A 
ATOM     14  C   UNL     1      -3.032  10.754  18.153  0.00  0.00    +0.000 A 
ATOM     15  C   UNL     1      -1.868   9.953  18.005  0.00  0.00    +0.000 A 
ATOM     16  C   UNL     1      -0.631  10.484  18.405  0.00  0.00    +0.000 A 
ENDROOT
BRANCH   7  17
ATOM     17  O   UNL     1      -1.572  11.464  22.198  0.00  0.00    +0.000 OA
ATOM     18  C   UNL     1      -1.636  12.326  23.337  0.00  0.00    +0.000 C 
ENDBRANCH   7  17
BRANCH  12  19
ATOM     19  O   UNL     1      -1.884  13.798  19.762  0.00  0.00    +0.000 OA
ATOM     20  C   UNL     1      -3.059  14.057  20.542  0.00  0.00    +0.000 C 
ENDBRANCH  12  19
BRANCH   1  21
ATOM     21  O   UNL     1       2.663   8.664  18.454  0.00  0.00    +0.000 OA
BRANCH  21  22
ATOM     22  C   UNL     1       3.033   7.412  17.819  0.00  0.00    +0.000 C 
BRANCH  22  26
ATOM     23  C   UNL     1       1.455   3.888  19.894  0.00  0.00    +0.000 A 
ATOM     24  C   UNL     1       1.812   5.026  20.615  0.00  0.00    +0.000 A 
ATOM     25  C   UNL     1       2.304   6.180  19.949  0.00  0.00    +0.000 A 
ATOM     26  C   UNL     1       2.447   6.201  18.548  0.00  0.00    +0.000 A 
ATOM     27  C   UNL     1       2.107   5.046  17.848  0.00  0.00    +0.000 A 
ATOM     28  C   UNL     1       1.641   3.897  18.492  0.00  0.00    +0.000 A 
BRANCH  23  30
ATOM     29  C   UNL     1       1.759   2.496  21.837  0.00  0.00    +0.000 C 
ATOM     30  O   UNL     1       0.997   2.863  20.691  0.00  0.00    +0.000 OA
ENDBRANCH  23  30
BRANCH  28  31
ATOM     31  O   UNL     1       1.322   2.795  17.750  0.00  0.00    +0.000 OA
ATOM     32  H   UNL     1       1.530   2.005  18.274  0.00  0.00    +0.000 HD
ENDBRANCH  28  31
ENDBRANCH  22  26
ENDBRANCH  21  22
ENDBRANCH   1  21
TORSDOF 7
ENDMDL
MODEL 4
REMARK VINA RESULT:      -7.7      7.524      9.167
REMARK  Name = 
REMARK  10 active torsions:
REMARK  status: ('A' for Active; 'I' for Inactive)
REMARK    1  A    between atoms: C_1  and  O_2
REMARK    2  A    between atoms: O_2  and  C_3
REMARK    3  A    between atoms: C_6  and  C_7
REMARK    4  A    between atoms: C_7  and  O_8
REMARK    5  A    between atoms: O_8  and  N_9
REMARK    6  A    between atoms: C_15  and  O_16
REMARK    7  A    between atoms: O_16  and  C_17
REMARK    8  A    between atoms: C_22  and  O_23
REMARK    9  A    between atoms: O_23  and  C_24
REMARK   10  A    between atoms: C_30  and  O_31
REMARK                            x       y       z     vdW  Elec       q    Type
REMARK                         _______ _______ _______ _____ _____    ______ ____
ROOT
ATOM      1  N   UNL     1       9.078  10.623  19.637  0.00  0.00    +0.000 NA
ATOM      2  C   UNL     1       9.448  11.868  19.490  0.00  0.00    +0.000 C 
ATOM      3  C   UNL     1      10.191  12.487  18.308  0.00  0.00    +0.000 A 
ATOM      4  C   UNL     1      11.206  12.042  17.490  0.00  0.00    +0.000 A 
ATOM      5  C   UNL     1      11.962  13.016  16.802  0.00  0.00    +0.000 A 
ATOM      6  C   UNL     1      11.819  14.390  17.103  0.00  0.00    +0.000 A 
ATOM      7  C   UNL     1      10.745  14.796  17.865  0.00  0.00    +0.000 A 
ATOM      8  C   UNL     1       9.822  13.807  18.138  0.00  0.00    +0.000 A 
ATOM      9  C   UNL     1       8.424  13.975  18.473  0.00  0.00    +0.000 C 
ATOM     10  O   UNL     1       7.531  13.715  17.686  0.00  0.00    +0.000 OA
ATOM     11  C   UNL     1       8.258  14.051  19.890  0.00  0.00    +0.000 A 
ATOM     12  C   UNL     1       8.018  15.306  20.446  0.00  0.00    +0.000 A 
ATOM     13  C   UNL     1       8.609  15.553  21.677  0.00  0.00    +0.000 A 
ATOM     14  C   UNL     1       9.370  14.556  22.315  0.00  0.00    +0.000 A 
ATOM     15  C   UNL     1       9.560  13.266  21.750  0.00  0.00    +0.000 A 
ATOM     16  C   UNL     1       8.969  12.983  20.508  0.00  0.00    +0.000 A 
ENDROOT
BRANCH   7  17
ATOM     17  O   UNL     1      10.510  16.035  18.375  0.00  0.00    +0.000 OA
ATOM     18  C   UNL     1      10.173  17.091  17.473  0.00  0.00    +0.000 C 
ENDBRANCH   7  17
BRANCH  12  19
ATOM     19  O   UNL     1       7.472  16.403  19.831  0.00  0.00    +0.000 OA
ATOM     20  C   UNL     1       6.134  16.792  20.165  0.00  0.00    +0.000 C 
ENDBRANCH  12  19
BRANCH   1  21
ATOM     21  O   UNL     1       9.404   9.826  18.505  0.00  0.00    +0.000 OA
BRANCH  21  22
ATOM     22  C   UNL     1       8.215   9.516  17.733  0.00  0.00    +0.000 C 
BRANCH  22  26
ATOM     23  C   UNL     1       6.873   5.393  18.380  0.00  0.00    +0.000 A 
ATOM     24  C   UNL     1       6.259   6.188  17.413  0.00  0.00    +0.000 A 
ATOM     25  C   UNL     1       6.701   7.517  17.181  0.00  0.00    +0.000 A 
ATOM     26  C   UNL     1       7.766   8.066  17.924  0.00  0.00    +0.000 A 
ATOM     27  C   UNL     1       8.349   7.264  18.902  0.00  0.00    +0.000 A 
ATOM     28  C   UNL     1       7.911   5.961  19.154  0.00  0.00    +0.000 A 
BRANCH  23  30
ATOM     29  C   UNL     1       5.008   3.999  18.999  0.00  0.00    +0.000 C 
ATOM     30  O   UNL     1       6.325   4.134  18.473  0.00  0.00    +0.000 OA
ENDBRANCH  23  30
BRANCH  28  31
ATOM     31  O   UNL     1       8.527   5.223  20.124  0.00  0.00    +0.000 OA
ATOM     32  H   UNL     1       8.199   5.522  20.987  0.00  0.00    +0.000 HD
ENDBRANCH  28  31
ENDBRANCH  22  26
ENDBRANCH  21  22
ENDBRANCH   1  21
TORSDOF 7
ENDMDL
MODEL 5
REMARK VINA RESULT:      -7.7      1.645      2.730
REMARK  Name = 
REMARK  10 active torsions:
REMARK  status: ('A' for Active; 'I' for Inactive)
REMARK    1  A    between atoms: C_1  and  O_2
REMARK    2  A    between atoms: O_2  and  C_3
REMARK    3  A    between atoms: C_6  and  C_7
REMARK    4  A    between atoms: C_7  and  O_8
REMARK    5  A    between atoms: O_8  and  N_9
REMARK    6  A    between atoms: C_15  and  O_16
REMARK    7  A    between atoms: O_16  and  C_17
REMARK    8  A    between atoms: C_22  and  O_23
REMARK    9  A    between atoms: O_23  and  C_24
REMARK   10  A    between atoms: C_30  and  O_31
REMARK                            x       y       z     vdW  Elec       q    Type
REMARK                         _______ _______ _______ _____ _____    ______ ____
ROOT
ATOM      1  N   UNL     1       1.618   8.551  18.730  0.00  0.00    +0.000 NA
ATOM      2  C   UNL     1       0.765   9.319  19.356  0.00  0.00    +0.000 C 
ATOM      3  C   UNL     1       0.636   9.536  20.861  0.00  0.00    +0.000 A 
ATOM      4  C   UNL     1       0.752   8.702  21.952  0.00  0.00    +0.000 A 
ATOM      5  C   UNL     1       0.131   9.110  23.152  0.00  0.00    +0.000 A 
ATOM      6  C   UNL     1      -0.745  10.218  23.175  0.00  0.00    +0.000 A 
ATOM      7  C   UNL     1      -0.773  11.068  22.089  0.00  0.00    +0.000 A 
ATOM      8  C   UNL     1       0.189  10.815  21.132  0.00  0.00    +0.000 A 
ATOM      9  C   UNL     1       0.731  11.742  20.162  0.00  0.00    +0.000 C 
ATOM     10  O   UNL     1       1.853  12.206  20.263  0.00  0.00    +0.000 OA
ATOM     11  C   UNL     1      -0.013  11.678  18.944  0.00  0.00    +0.000 A 
ATOM     12  C   UNL     1      -0.907  12.714  18.679  0.00  0.00    +0.000 A 
ATOM     13  C   UNL     1      -2.094  12.353  18.055  0.00  0.00    +0.000 A 
ATOM     14  C   UNL     1      -2.329  11.014  17.694  0.00  0.00    +0.000 A 
ATOM     15  C   UNL     1      -1.381   9.983  17.931  0.00  0.00    +0.000 A 
ATOM     16  C   UNL     1      -0.167  10.317  18.554  0.00  0.00    +0.000 A 
ENDROOT
BRANCH   7  17
ATOM     17  O   UNL     1      -1.635  12.094  21.859  0.00  0.00    +0.000 OA
ATOM     18  C   UNL     1      -2.612  12.400  22.857  0.00  0.00    +0.000 C 
ENDBRANCH   7  17
BRANCH  12  19
ATOM     19  O   UNL     1      -0.869  13.996  19.161  0.00  0.00    +0.000 OA
ATOM     20  C   UNL     1       0.083  14.917  18.614  0.00  0.00    +0.000 C 
ENDBRANCH  12  19
BRANCH   1  21
ATOM     21  O   UNL     1       2.523   7.911  19.622  0.00  0.00    +0.000 OA
BRANCH  21  22
ATOM     22  C   UNL     1       2.692   6.513  19.269  0.00  0.00    +0.000 C 
BRANCH  22  26
ATOM     23  C   UNL     1       6.209   5.754  16.764  0.00  0.00    +0.000 A 
ATOM     24  C   UNL     1       5.233   6.659  16.349  0.00  0.00    +0.000 A 
ATOM     25  C   UNL     1       4.102   6.928  17.164  0.00  0.00    +0.000 A 
ATOM     26  C   UNL     1       3.935   6.284  18.406  0.00  0.00    +0.000 A 
ATOM     27  C   UNL     1       4.908   5.366  18.792  0.00  0.00    +0.000 A 
ATOM     28  C   UNL     1       6.017   5.077  17.991  0.00  0.00    +0.000 A 
BRANCH  23  30
ATOM     29  C   UNL     1       7.028   4.800  14.709  0.00  0.00    +0.000 C 
ATOM     30  O   UNL     1       7.237   5.613  15.859  0.00  0.00    +0.000 OA
ENDBRANCH  23  30
BRANCH  28  31
ATOM     31  O   UNL     1       6.940   4.169  18.426  0.00  0.00    +0.000 OA
ATOM     32  H   UNL     1       7.617   4.644  18.934  0.00  0.00    +0.000 HD
ENDBRANCH  28  31
ENDBRANCH  22  26
ENDBRANCH  21  22
ENDBRANCH   1  21
TORSDOF 7
ENDMDL
MODEL 6
REMARK VINA RESULT:      -7.7      1.006      1.042
REMARK  Name = 
REMARK  10 active torsions:
REMARK  status: ('A' for Active; 'I' for Inactive)
REMARK    1  A    between atoms: C_1  and  O_2
REMARK    2  A    between atoms: O_2  and  C_3
REMARK    3  A    between atoms: C_6  and  C_7
REMARK    4  A    between atoms: C_7  and  O_8
REMARK    5  A    between atoms: O_8  and  N_9
REMARK    6  A    between atoms: C_15  and  O_16
REMARK    7  A    between atoms: O_16  and  C_17
REMARK    8  A    between atoms: C_22  and  O_23
REMARK    9  A    between atoms: O_23  and  C_24
REMARK   10  A    between atoms: C_30  and  O_31
REMARK                            x       y       z     vdW  Elec       q    Type
REMARK                         _______ _______ _______ _____ _____    ______ ____
ROOT
ATOM      1  N   UNL     1       1.451   9.074  17.901  0.00  0.00    +0.000 NA
ATOM      2  C   UNL     1       0.674   9.601  18.811  0.00  0.00    +0.000 C 
ATOM      3  C   UNL     1       0.849   9.553  20.327  0.00  0.00    +0.000 A 
ATOM      4  C   UNL     1       1.288   8.581  21.200  0.00  0.00    +0.000 A 
ATOM      5  C   UNL     1       0.900   8.698  22.552  0.00  0.00    +0.000 A 
ATOM      6  C   UNL     1      -0.067   9.650  22.950  0.00  0.00    +0.000 A 
ATOM      7  C   UNL     1      -0.420  10.649  22.067  0.00  0.00    +0.000 A 
ATOM      8  C   UNL     1       0.335  10.694  20.912  0.00  0.00    +0.000 A 
ATOM      9  C   UNL     1       0.551  11.833  20.046  0.00  0.00    +0.000 C 
ATOM     10  O   UNL     1       1.611  12.433  20.012  0.00  0.00    +0.000 OA
ATOM     11  C   UNL     1      -0.426  11.857  19.004  0.00  0.00    +0.000 A 
ATOM     12  C   UNL     1      -1.464  12.781  19.115  0.00  0.00    +0.000 A 
ATOM     13  C   UNL     1      -2.710  12.356  18.675  0.00  0.00    +0.000 A 
ATOM     14  C   UNL     1      -2.871  11.072  18.123  0.00  0.00    +0.000 A 
ATOM     15  C   UNL     1      -1.787  10.165  17.976  0.00  0.00    +0.000 A 
ATOM     16  C   UNL     1      -0.512  10.568  18.405  0.00  0.00    +0.000 A 
ENDROOT
BRANCH   7  17
ATOM     17  O   UNL     1      -1.418  11.563  22.203  0.00  0.00    +0.000 OA
ATOM     18  C   UNL     1      -1.205  12.680  23.068  0.00  0.00    +0.000 C 
ENDBRANCH   7  17
BRANCH  12  19
ATOM     19  O   UNL     1      -1.463  13.961  19.810  0.00  0.00    +0.000 OA
ATOM     20  C   UNL     1      -0.664  15.050  19.331  0.00  0.00    +0.000 C 
ENDBRANCH  12  19
BRANCH   1  21
ATOM     21  O   UNL     1       2.591   8.438  18.467  0.00  0.00    +0.000 OA
BRANCH  21  22
ATOM     22  C   UNL     1       3.338   7.720  17.450  0.00  0.00    +0.000 C 
BRANCH  22  26
ATOM     23  C   UNL     1       4.051   3.566  18.654  0.00  0.00    +0.000 A 
ATOM     24  C   UNL     1       2.752   4.070  18.605  0.00  0.00    +0.000 A 
ATOM     25  C   UNL     1       2.510   5.408  18.195  0.00  0.00    +0.000 A 
ATOM     26  C   UNL     1       3.574   6.258  17.833  0.00  0.00    +0.000 A 
ATOM     27  C   UNL     1       4.865   5.743  17.913  0.00  0.00    +0.000 A 
ATOM     28  C   UNL     1       5.120   4.435  18.334  0.00  0.00    +0.000 A 
BRANCH  23  30
ATOM     29  C   UNL     1       4.413   1.982  20.433  0.00  0.00    +0.000 C 
ATOM     30  O   UNL     1       4.108   2.255  19.069  0.00  0.00    +0.000 OA
ENDBRANCH  23  30
BRANCH  28  31
ATOM     31  O   UNL     1       6.409   3.987  18.387  0.00  0.00    +0.000 OA
ATOM     32  H   UNL     1       6.475   3.186  17.843  0.00  0.00    +0.000 HD
ENDBRANCH  28  31
ENDBRANCH  22  26
ENDBRANCH  21  22
ENDBRANCH   1  21
TORSDOF 7
ENDMDL
MODEL 7
REMARK VINA RESULT:      -7.6      2.344      3.826
REMARK  Name = 
REMARK  10 active torsions:
REMARK  status: ('A' for Active; 'I' for Inactive)
REMARK    1  A    between atoms: C_1  and  O_2
REMARK    2  A    between atoms: O_2  and  C_3
REMARK    3  A    between atoms: C_6  and  C_7
REMARK    4  A    between atoms: C_7  and  O_8
REMARK    5  A    between atoms: O_8  and  N_9
REMARK    6  A    between atoms: C_15  and  O_16
REMARK    7  A    between atoms: O_16  and  C_17
REMARK    8  A    between atoms: C_22  and  O_23
REMARK    9  A    between atoms: O_23  and  C_24
REMARK   10  A    between atoms: C_30  and  O_31
REMARK                            x       y       z     vdW  Elec       q    Type
REMARK                         _______ _______ _______ _____ _____    ______ ____
ROOT
ATOM      1  N   UNL     1       2.285   9.719  18.034  0.00  0.00    +0.000 NA
ATOM      2  C   UNL     1       1.368  10.585  18.377  0.00  0.00    +0.000 C 
ATOM      3  C   UNL     1      -0.144  10.377  18.412  0.00  0.00    +0.000 A 
ATOM      4  C   UNL     1      -1.026   9.698  17.600  0.00  0.00    +0.000 A 
ATOM      5  C   UNL     1      -2.384  10.079  17.651  0.00  0.00    +0.000 A 
ATOM      6  C   UNL     1      -2.785  11.242  18.347  0.00  0.00    +0.000 A 
ATOM      7  C   UNL     1      -1.891  11.845  19.207  0.00  0.00    +0.000 A 
ATOM      8  C   UNL     1      -0.718  11.145  19.407  0.00  0.00    +0.000 A 
ATOM      9  C   UNL     1       0.175  11.231  20.541  0.00  0.00    +0.000 C 
ATOM     10  O   UNL     1       0.246  10.351  21.382  0.00  0.00    +0.000 OA
ATOM     11  C   UNL     1       1.194  12.202  20.300  0.00  0.00    +0.000 A 
ATOM     12  C   UNL     1       1.078  13.433  20.944  0.00  0.00    +0.000 A 
ATOM     13  C   UNL     1       1.480  14.545  20.215  0.00  0.00    +0.000 A 
ATOM     14  C   UNL     1       2.002  14.395  18.917  0.00  0.00    +0.000 A 
ATOM     15  C   UNL     1       2.156  13.125  18.301  0.00  0.00    +0.000 A 
ATOM     16  C   UNL     1       1.765  11.979  19.014  0.00  0.00    +0.000 A 
ENDROOT
BRANCH   7  17
ATOM     17  O   UNL     1      -2.032  13.034  19.852  0.00  0.00    +0.000 OA
ATOM     18  C   UNL     1      -3.088  13.171  20.805  0.00  0.00    +0.000 C 
ENDBRANCH   7  17
BRANCH  12  19
ATOM     19  O   UNL     1       0.406  13.710  22.105  0.00  0.00    +0.000 OA
ATOM     20  C   UNL     1       0.099  15.073  22.423  0.00  0.00    +0.000 C 
ENDBRANCH  12  19
BRANCH   1  21
ATOM     21  O   UNL     1       1.734   8.449  17.711  0.00  0.00    +0.000 OA
BRANCH  21  22
ATOM     22  C   UNL     1       2.270   7.418  18.581  0.00  0.00    +0.000 C 
BRANCH  22  26
ATOM     23  C   UNL     1       5.183   4.818  16.588  0.00  0.00    +0.000 A 
ATOM     24  C   UNL     1       4.015   4.280  17.127  0.00  0.00    +0.000 A 
ATOM     25  C   UNL     1       3.055   5.118  17.755  0.00  0.00    +0.000 A 
ATOM     26  C   UNL     1       3.262   6.508  17.853  0.00  0.00    +0.000 A 
ATOM     27  C   UNL     1       4.446   7.022  17.331  0.00  0.00    +0.000 A 
ATOM     28  C   UNL     1       5.408   6.207  16.728  0.00  0.00    +0.000 A 
BRANCH  23  30
ATOM     29  C   UNL     1       6.118   3.835  14.597  0.00  0.00    +0.000 C 
ATOM     30  O   UNL     1       6.001   3.870  16.016  0.00  0.00    +0.000 OA
ENDBRANCH  23  30
BRANCH  28  31
ATOM     31  O   UNL     1       6.548   6.771  16.231  0.00  0.00    +0.000 OA
ATOM     32  H   UNL     1       6.930   6.161  15.580  0.00  0.00    +0.000 HD
ENDBRANCH  28  31
ENDBRANCH  22  26
ENDBRANCH  21  22
ENDBRANCH   1  21
TORSDOF 7
ENDMDL
MODEL 8
REMARK VINA RESULT:      -7.6      2.083      3.775
REMARK  Name = 
REMARK  10 active torsions:
REMARK  status: ('A' for Active; 'I' for Inactive)
REMARK    1  A    between atoms: C_1  and  O_2
REMARK    2  A    between atoms: O_2  and  C_3
REMARK    3  A    between atoms: C_6  and  C_7
REMARK    4  A    between atoms: C_7  and  O_8
REMARK    5  A    between atoms: O_8  and  N_9
REMARK    6  A    between atoms: C_15  and  O_16
REMARK    7  A    between atoms: O_16  and  C_17
REMARK    8  A    between atoms: C_22  and  O_23
REMARK    9  A    between atoms: O_23  and  C_24
REMARK   10  A    between atoms: C_30  and  O_31
REMARK                            x       y       z     vdW  Elec       q    Type
REMARK                         _______ _______ _______ _____ _____    ______ ____
ROOT
ATOM      1  N   UNL     1       2.356   9.761  17.888  0.00  0.00    +0.000 NA
ATOM      2  C   UNL     1       1.476  10.645  18.280  0.00  0.00    +0.000 C 
ATOM      3  C   UNL     1      -0.029  10.450  18.450  0.00  0.00    +0.000 A 
ATOM      4  C   UNL     1      -0.980   9.753  17.737  0.00  0.00    +0.000 A 
ATOM      5  C   UNL     1      -2.327  10.147  17.891  0.00  0.00    +0.000 A 
ATOM      6  C   UNL     1      -2.661  11.334  18.582  0.00  0.00    +0.000 A 
ATOM      7  C   UNL     1      -1.694  11.956  19.343  0.00  0.00    +0.000 A 
ATOM      8  C   UNL     1      -0.512  11.253  19.465  0.00  0.00    +0.000 A 
ATOM      9  C   UNL     1       0.475  11.366  20.516  0.00  0.00    +0.000 C 
ATOM     10  O   UNL     1       0.611  10.512  21.375  0.00  0.00    +0.000 OA
ATOM     11  C   UNL     1       1.475  12.321  20.159  0.00  0.00    +0.000 A 
ATOM     12  C   UNL     1       1.421  13.572  20.772  0.00  0.00    +0.000 A 
ATOM     13  C   UNL     1       1.765  14.657  19.977  0.00  0.00    +0.000 A 
ATOM     14  C   UNL     1       2.175  14.464  18.645  0.00  0.00    +0.000 A 
ATOM     15  C   UNL     1       2.269  13.174  18.058  0.00  0.00    +0.000 A 
ATOM     16  C   UNL     1       1.933  12.054  18.837  0.00  0.00    +0.000 A 
ENDROOT
BRANCH   7  17
ATOM     17  O   UNL     1      -1.773  13.165  19.960  0.00  0.00    +0.000 OA
ATOM     18  C   UNL     1      -2.705  13.324  21.032  0.00  0.00    +0.000 C 
ENDBRANCH   7  17
BRANCH  12  19
ATOM     19  O   UNL     1       0.852  13.890  21.976  0.00  0.00    +0.000 OA
ATOM     20  C   UNL     1       0.396  15.230  22.199  0.00  0.00    +0.000 C 
ENDBRANCH  12  19
BRANCH   1  21
ATOM     21  O   UNL     1       1.772   8.485  17.653  0.00  0.00    +0.000 OA
BRANCH  21  22
ATOM     22  C   UNL     1       2.294   7.500  18.582  0.00  0.00    +0.000 C 
BRANCH  22  26
ATOM     23  C   UNL     1       4.912   4.634  16.545  0.00  0.00    +0.000 A 
ATOM     24  C   UNL     1       5.110   6.005  16.383  0.00  0.00    +0.000 A 
ATOM     25  C   UNL     1       4.281   6.940  17.056  0.00  0.00    +0.000 A 
ATOM     26  C   UNL     1       3.237   6.508  17.898  0.00  0.00    +0.000 A 
ATOM     27  C   UNL     1       3.041   5.135  18.027  0.00  0.00    +0.000 A 
ATOM     28  C   UNL     1       3.837   4.203  17.355  0.00  0.00    +0.000 A 
BRANCH  23  30
ATOM     29  C   UNL     1       6.828   4.528  15.088  0.00  0.00    +0.000 C 
ATOM     30  O   UNL     1       5.803   3.870  15.825  0.00  0.00    +0.000 OA
ENDBRANCH  23  30
BRANCH  28  31
ATOM     31  O   UNL     1       3.596   2.870  17.525  0.00  0.00    +0.000 OA
ATOM     32  H   UNL     1       2.695   2.682  17.218  0.00  0.00    +0.000 HD
ENDBRANCH  28  31
ENDBRANCH  22  26
ENDBRANCH  21  22
ENDBRANCH   1  21
TORSDOF 7
ENDMDL
MODEL 9
REMARK VINA RESULT:      -7.6      1.852      2.676
REMARK  Name = 
REMARK  10 active torsions:
REMARK  status: ('A' for Active; 'I' for Inactive)
REMARK    1  A    between atoms: C_1  and  O_2
REMARK    2  A    between atoms: O_2  and  C_3
REMARK    3  A    between atoms: C_6  and  C_7
REMARK    4  A    between atoms: C_7  and  O_8
REMARK    5  A    between atoms: O_8  and  N_9
REMARK    6  A    between atoms: C_15  and  O_16
REMARK    7  A    between atoms: O_16  and  C_17
REMARK    8  A    between atoms: C_22  and  O_23
REMARK    9  A    between atoms: O_23  and  C_24
REMARK   10  A    between atoms: C_30  and  O_31
REMARK                            x       y       z     vdW  Elec       q    Type
REMARK                         _______ _______ _______ _____ _____    ______ ____
ROOT
ATOM      1  N   UNL     1       1.571   8.724  18.115  0.00  0.00    +0.000 NA
ATOM      2  C   UNL     1       0.782   9.390  18.918  0.00  0.00    +0.000 C 
ATOM      3  C   UNL     1       0.859   9.477  20.440  0.00  0.00    +0.000 A 
ATOM      4  C   UNL     1       1.166   8.565  21.426  0.00  0.00    +0.000 A 
ATOM      5  C   UNL     1       0.705   8.839  22.732  0.00  0.00    +0.000 A 
ATOM      6  C   UNL     1      -0.208   9.891  22.973  0.00  0.00    +0.000 A 
ATOM      7  C   UNL     1      -0.427  10.822  21.981  0.00  0.00    +0.000 A 
ATOM      8  C   UNL     1       0.399  10.702  20.881  0.00  0.00    +0.000 A 
ATOM      9  C   UNL     1       0.755  11.734  19.932  0.00  0.00    +0.000 C 
ATOM     10  O   UNL     1       1.859  12.251  19.916  0.00  0.00    +0.000 OA
ATOM     11  C   UNL     1      -0.150  11.727  18.827  0.00  0.00    +0.000 A 
ATOM     12  C   UNL     1      -1.119  12.729  18.781  0.00  0.00    +0.000 A 
ATOM     13  C   UNL     1      -2.365  12.353  18.297  0.00  0.00    +0.000 A 
ATOM     14  C   UNL     1      -2.590  11.037  17.855  0.00  0.00    +0.000 A 
ATOM     15  C   UNL     1      -1.572  10.046  17.867  0.00  0.00    +0.000 A 
ATOM     16  C   UNL     1      -0.298  10.396  18.344  0.00  0.00    +0.000 A 
ENDROOT
BRANCH   7  17
ATOM     17  O   UNL     1      -1.358  11.814  21.964  0.00  0.00    +0.000 OA
ATOM     18  C   UNL     1      -2.126  12.048  23.146  0.00  0.00    +0.000 C 
ENDBRANCH   7  17
BRANCH  12  19
ATOM     19  O   UNL     1      -1.070  13.968  19.364  0.00  0.00    +0.000 OA
ATOM     20  C   UNL     1      -0.241  14.980  18.778  0.00  0.00    +0.000 C 
ENDBRANCH  12  19
BRANCH   1  21
ATOM     21  O   UNL     1       2.620   8.066  18.814  0.00  0.00    +0.000 OA
BRANCH  21  22
ATOM     22  C   UNL     1       2.475   6.624  18.723  0.00  0.00    +0.000 C 
BRANCH  22  26
ATOM     23  C   UNL     1       5.648   4.803  16.308  0.00  0.00    +0.000 A 
ATOM     24  C   UNL     1       4.543   4.049  16.700  0.00  0.00    +0.000 A 
ATOM     25  C   UNL     1       3.500   4.636  17.464  0.00  0.00    +0.000 A 
ATOM     26  C   UNL     1       3.558   5.991  17.847  0.00  0.00    +0.000 A 
ATOM     27  C   UNL     1       4.681   6.720  17.466  0.00  0.00    +0.000 A 
ATOM     28  C   UNL     1       5.724   6.150  16.731  0.00  0.00    +0.000 A 
BRANCH  23  30
ATOM     29  C   UNL     1       6.354   3.942  14.171  0.00  0.00    +0.000 C 
ATOM     30  O   UNL     1       6.562   4.083  15.573  0.00  0.00    +0.000 OA
ENDBRANCH  23  30
BRANCH  28  31
ATOM     31  O   UNL     1       6.798   6.919  16.385  0.00  0.00    +0.000 OA
ATOM     32  H   UNL     1       6.955   6.811  15.433  0.00  0.00    +0.000 HD
ENDBRANCH  28  31
ENDBRANCH  22  26
ENDBRANCH  21  22
ENDBRANCH   1  21
TORSDOF 7
ENDMDL
