MODEL 1
REMARK VINA RESULT:      -7.2      0.000      0.000
REMARK  Name = 
REMARK  9 active torsions:
REMARK  status: ('A' for Active; 'I' for Inactive)
REMARK    1  A    between atoms: N_15  and  C_16
REMARK    2  A    between atoms: C_16  and  C_17
REMARK    3  A    between atoms: C_17  and  N_18
REMARK    4  A    between atoms: N_18  and  C_19
REMARK    5  A    between atoms: N_18  and  C_22
REMARK    6  A    between atoms: C_19  and  C_20
REMARK    7  A    between atoms: C_20  and  O_21
REMARK    8  A    between atoms: C_22  and  C_23
REMARK    9  A    between atoms: C_23  and  O_24
REMARK                            x       y       z     vdW  Elec       q    Type
REMARK                         _______ _______ _______ _____ _____    ______ ____
ROOT
ATOM      1  O   UNL     1       4.632   3.628  15.821  0.00  0.00    +0.000 OA
ATOM      2  C   UNL     1       4.199   4.304  16.749  0.00  0.00    +0.000 C 
ATOM      3  C   UNL     1       3.384   3.649  17.801  0.00  0.00    +0.000 A 
ATOM      4  C   UNL     1       3.270   2.252  17.812  0.00  0.00    +0.000 A 
ATOM      5  C   UNL     1       2.522   1.626  18.804  0.00  0.00    +0.000 A 
ATOM      6  C   UNL     1       1.877   2.392  19.776  0.00  0.00    +0.000 A 
ATOM      7  C   UNL     1       1.977   3.791  19.770  0.00  0.00    +0.000 A 
ATOM      8  C   UNL     1       1.329   4.572  20.742  0.00  0.00    +0.000 A 
ATOM      9  C   UNL     1       1.439   5.963  20.733  0.00  0.00    +0.000 A 
ATOM     10  C   UNL     1       2.205   6.590  19.754  0.00  0.00    +0.000 A 
ATOM     11  C   UNL     1       2.862   5.825  18.780  0.00  0.00    +0.000 A 
ATOM     12  C   UNL     1       2.750   4.427  18.772  0.00  0.00    +0.000 A 
ATOM     13  C   UNL     1       3.700   6.495  17.770  0.00  0.00    +0.000 C 
ATOM     14  O   UNL     1       3.760   7.723  17.753  0.00  0.00    +0.000 OA
ATOM     15  N   UNL     1       4.392   5.676  16.871  0.00  0.00    +0.000 N 
ENDROOT
BRANCH  15  16
ATOM     16  C   UNL     1       5.282   6.331  15.919  0.00  0.00    +0.000 C 
BRANCH  16  17
ATOM     17  C   UNL     1       6.715   5.745  15.921  0.00  0.00    +0.000 C 
BRANCH  17  18
ATOM     18  N   UNL     1       7.634   6.120  17.039  0.00  0.00    +0.000 NA
BRANCH  18  19
ATOM     19  C   UNL     1       7.209   7.427  17.623  0.00  0.00    +0.000 C 
BRANCH  19  20
ATOM     20  C   UNL     1       8.334   8.368  18.109  0.00  0.00    +0.000 C 
BRANCH  20  21
ATOM     21  O   UNL     1       8.038   9.732  17.841  0.00  0.00    +0.000 OA
ATOM     22  H   UNL     1       7.907   9.796  16.878  0.00  0.00    +0.000 HD
ENDBRANCH  20  21
ENDBRANCH  19  20
ENDBRANCH  18  19
BRANCH  18  23
ATOM     23  C   UNL     1       7.582   5.058  18.086  0.00  0.00    +0.000 C 
BRANCH  23  24
ATOM     24  C   UNL     1       6.960   5.488  19.430  0.00  0.00    +0.000 C 
BRANCH  24  25
ATOM     25  O   UNL     1       7.941   5.469  20.462  0.00  0.00    +0.000 OA
ATOM     26  H   UNL     1       7.799   4.630  20.942  0.00  0.00    +0.000 HD
ENDBRANCH  24  25
ENDBRANCH  23  24
ENDBRANCH  18  23
ENDBRANCH  17  18
ENDBRANCH  16  17
ENDBRANCH  15  16
TORSDOF 9
ENDMDL
MODEL 2
REMARK VINA RESULT:      -7.2      0.427      2.722
REMARK  Name = 
REMARK  9 active torsions:
REMARK  status: ('A' for Active; 'I' for Inactive)
REMARK    1  A    between atoms: N_15  and  C_16
REMARK    2  A    between atoms: C_16  and  C_17
REMARK    3  A    between atoms: C_17  and  N_18
REMARK    4  A    between atoms: N_18  and  C_19
REMARK    5  A    between atoms: N_18  and  C_22
REMARK    6  A    between atoms: C_19  and  C_20
REMARK    7  A    between atoms: C_20  and  O_21
REMARK    8  A    between atoms: C_22  and  C_23
REMARK    9  A    between atoms: C_23  and  O_24
REMARK                            x       y       z     vdW  Elec       q    Type
REMARK                         _______ _______ _______ _____ _____    ______ ____
ROOT
ATOM      1  O   UNL     1       4.007   7.582  18.054  0.00  0.00    +0.000 OA
ATOM      2  C   UNL     1       3.787   6.384  17.910  0.00  0.00    +0.000 C 
ATOM      3  C   UNL     1       2.860   5.702  18.845  0.00  0.00    +0.000 A 
ATOM      4  C   UNL     1       2.121   6.466  19.759  0.00  0.00    +0.000 A 
ATOM      5  C   UNL     1       1.236   5.838  20.630  0.00  0.00    +0.000 A 
ATOM      6  C   UNL     1       1.096   4.451  20.599  0.00  0.00    +0.000 A 
ATOM      7  C   UNL     1       1.835   3.675  19.693  0.00  0.00    +0.000 A 
ATOM      8  C   UNL     1       1.705   2.276  19.654  0.00  0.00    +0.000 A 
ATOM      9  C   UNL     1       2.439   1.513  18.746  0.00  0.00    +0.000 A 
ATOM     10  C   UNL     1       3.310   2.141  17.860  0.00  0.00    +0.000 A 
ATOM     11  C   UNL     1       3.448   3.536  17.882  0.00  0.00    +0.000 A 
ATOM     12  C   UNL     1       2.724   4.313  18.797  0.00  0.00    +0.000 A 
ATOM     13  C   UNL     1       4.344   4.195  16.915  0.00  0.00    +0.000 C 
ATOM     14  O   UNL     1       5.011   3.507  16.145  0.00  0.00    +0.000 OA
ATOM     15  N   UNL     1       4.385   5.593  16.934  0.00  0.00    +0.000 N 
ENDROOT
BRANCH  15  16
ATOM     16  C   UNL     1       5.211   6.252  15.928  0.00  0.00    +0.000 C 
BRANCH  16  17
ATOM     17  C   UNL     1       6.668   5.731  15.899  0.00  0.00    +0.000 C 
BRANCH  17  18
ATOM     18  N   UNL     1       7.603   6.173  16.978  0.00  0.00    +0.000 NA
BRANCH  18  19
ATOM     19  C   UNL     1       7.126   7.464  17.558  0.00  0.00    +0.000 C 
BRANCH  19  20
ATOM     20  C   UNL     1       8.172   8.593  17.692  0.00  0.00    +0.000 C 
BRANCH  20  21
ATOM     21  O   UNL     1       8.794   8.593  18.970  0.00  0.00    +0.000 OA
ATOM     22  H   UNL     1       8.085   8.762  19.615  0.00  0.00    +0.000 HD
ENDBRANCH  20  21
ENDBRANCH  19  20
ENDBRANCH  18  19
BRANCH  18  23
ATOM     23  C   UNL     1       7.648   5.127  18.040  0.00  0.00    +0.000 C 
BRANCH  23  24
ATOM     24  C   UNL     1       7.018   5.530  19.389  0.00  0.00    +0.000 C 
BRANCH  24  25
ATOM     25  O   UNL     1       7.984   5.455  20.432  0.00  0.00    +0.000 OA
ATOM     26  H   UNL     1       8.620   6.174  20.250  0.00  0.00    +0.000 HD
ENDBRANCH  24  25
ENDBRANCH  23  24
ENDBRANCH  18  23
ENDBRANCH  17  18
ENDBRANCH  16  17
ENDBRANCH  15  16
TORSDOF 9
ENDMDL
MODEL 3
REMARK VINA RESULT:      -7.0      0.788      2.160
REMARK  Name = 
REMARK  9 active torsions:
REMARK  status: ('A' for Active; 'I' for Inactive)
REMARK    1  A    between atoms: N_15  and  C_16
REMARK    2  A    between atoms: C_16  and  C_17
REMARK    3  A    between atoms: C_17  and  N_18
REMARK    4  A    between atoms: N_18  and  C_19
REMARK    5  A    between atoms: N_18  and  C_22
REMARK    6  A    between atoms: C_19  and  C_20
REMARK    7  A    between atoms: C_20  and  O_21
REMARK    8  A    between atoms: C_22  and  C_23
REMARK    9  A    between atoms: C_23  and  O_24
REMARK                            x       y       z     vdW  Elec       q    Type
REMARK                         _______ _______ _______ _____ _____    ______ ____
ROOT
ATOM      1  O   UNL     1       4.951   3.841  15.850  0.00  0.00    +0.000 OA
ATOM      2  C   UNL     1       4.437   4.464  16.774  0.00  0.00    +0.000 C 
ATOM      3  C   UNL     1       3.619   3.733  17.771  0.00  0.00    +0.000 A 
ATOM      4  C   UNL     1       3.590   2.332  17.743  0.00  0.00    +0.000 A 
ATOM      5  C   UNL     1       2.840   1.635  18.684  0.00  0.00    +0.000 A 
ATOM      6  C   UNL     1       2.107   2.333  19.644  0.00  0.00    +0.000 A 
ATOM      7  C   UNL     1       2.121   3.736  19.678  0.00  0.00    +0.000 A 
ATOM      8  C   UNL     1       1.385   4.450  20.639  0.00  0.00    +0.000 A 
ATOM      9  C   UNL     1       1.410   5.844  20.669  0.00  0.00    +0.000 A 
ATOM     10  C   UNL     1       2.178   6.543  19.742  0.00  0.00    +0.000 A 
ATOM     11  C   UNL     1       2.922   5.845  18.780  0.00  0.00    +0.000 A 
ATOM     12  C   UNL     1       2.897   4.445  18.732  0.00  0.00    +0.000 A 
ATOM     13  C   UNL     1       3.761   6.592  17.826  0.00  0.00    +0.000 C 
ATOM     14  O   UNL     1       3.746   7.821  17.842  0.00  0.00    +0.000 OA
ATOM     15  N   UNL     1       4.540   5.842  16.938  0.00  0.00    +0.000 N 
ENDROOT
BRANCH  15  16
ATOM     16  C   UNL     1       5.429   6.575  16.044  0.00  0.00    +0.000 C 
BRANCH  16  17
ATOM     17  C   UNL     1       6.886   6.651  16.561  0.00  0.00    +0.000 C 
BRANCH  17  18
ATOM     18  N   UNL     1       7.155   7.414  17.818  0.00  0.00    +0.000 NA
BRANCH  18  19
ATOM     19  C   UNL     1       8.074   6.630  18.695  0.00  0.00    +0.000 C 
BRANCH  19  20
ATOM     20  C   UNL     1       7.675   5.166  18.984  0.00  0.00    +0.000 C 
BRANCH  20  21
ATOM     21  O   UNL     1       6.476   5.081  19.743  0.00  0.00    +0.000 OA
ATOM     22  H   UNL     1       5.832   5.657  19.295  0.00  0.00    +0.000 HD
ENDBRANCH  20  21
ENDBRANCH  19  20
ENDBRANCH  18  19
BRANCH  18  23
ATOM     23  C   UNL     1       7.784   8.721  17.467  0.00  0.00    +0.000 C 
BRANCH  23  24
ATOM     24  C   UNL     1       8.670   9.342  18.566  0.00  0.00    +0.000 C 
BRANCH  24  25
ATOM     25  O   UNL     1       8.982  10.694  18.249  0.00  0.00    +0.000 OA
ATOM     26  H   UNL     1       8.185  11.051  17.812  0.00  0.00    +0.000 HD
ENDBRANCH  24  25
ENDBRANCH  23  24
ENDBRANCH  18  23
ENDBRANCH  17  18
ENDBRANCH  16  17
ENDBRANCH  15  16
TORSDOF 9
ENDMDL
MODEL 4
REMARK VINA RESULT:      -6.9      2.659      4.814
REMARK  Name = 
REMARK  9 active torsions:
REMARK  status: ('A' for Active; 'I' for Inactive)
REMARK    1  A    between atoms: N_15  and  C_16
REMARK    2  A    between atoms: C_16  and  C_17
REMARK    3  A    between atoms: C_17  and  N_18
REMARK    4  A    between atoms: N_18  and  C_19
REMARK    5  A    between atoms: N_18  and  C_22
REMARK    6  A    between atoms: C_19  and  C_20
REMARK    7  A    between atoms: C_20  and  O_21
REMARK    8  A    between atoms: C_22  and  C_23
REMARK    9  A    between atoms: C_23  and  O_24
REMARK                            x       y       z     vdW  Elec       q    Type
REMARK                         _______ _______ _______ _____ _____    ______ ____
ROOT
ATOM      1  O   UNL     1       5.551   6.958  16.253  0.00  0.00    +0.000 OA
ATOM      2  C   UNL     1       4.949   6.295  17.092  0.00  0.00    +0.000 C 
ATOM      3  C   UNL     1       3.814   6.910  17.820  0.00  0.00    +0.000 A 
ATOM      4  C   UNL     1       3.339   8.166  17.418  0.00  0.00    +0.000 A 
ATOM      5  C   UNL     1       2.263   8.746  18.084  0.00  0.00    +0.000 A 
ATOM      6  C   UNL     1       1.670   8.081  19.157  0.00  0.00    +0.000 A 
ATOM      7  C   UNL     1       2.141   6.827  19.573  0.00  0.00    +0.000 A 
ATOM      8  C   UNL     1       1.553   6.149  20.655  0.00  0.00    +0.000 A 
ATOM      9  C   UNL     1       2.024   4.899  21.058  0.00  0.00    +0.000 A 
ATOM     10  C   UNL     1       3.086   4.308  20.380  0.00  0.00    +0.000 A 
ATOM     11  C   UNL     1       3.681   4.969  19.296  0.00  0.00    +0.000 A 
ATOM     12  C   UNL     1       3.224   6.230  18.887  0.00  0.00    +0.000 A 
ATOM     13  C   UNL     1       4.780   4.319  18.560  0.00  0.00    +0.000 C 
ATOM     14  O   UNL     1       5.208   3.233  18.949  0.00  0.00    +0.000 OA
ATOM     15  N   UNL     1       5.284   4.991  17.442  0.00  0.00    +0.000 N 
ENDROOT
BRANCH  15  16
ATOM     16  C   UNL     1       6.320   4.317  16.666  0.00  0.00    +0.000 C 
BRANCH  16  17
ATOM     17  C   UNL     1       5.759   3.512  15.470  0.00  0.00    +0.000 C 
BRANCH  17  18
ATOM     18  N   UNL     1       6.356   3.739  14.118  0.00  0.00    +0.000 NA
BRANCH  18  19
ATOM     19  C   UNL     1       5.271   4.012  13.129  0.00  0.00    +0.000 C 
BRANCH  19  20
ATOM     20  C   UNL     1       5.152   3.031  11.942  0.00  0.00    +0.000 C 
BRANCH  20  21
ATOM     21  O   UNL     1       6.169   2.038  11.969  0.00  0.00    +0.000 OA
ATOM     22  H   UNL     1       6.687   2.160  11.154  0.00  0.00    +0.000 HD
ENDBRANCH  20  21
ENDBRANCH  19  20
ENDBRANCH  18  19
BRANCH  18  23
ATOM     23  C   UNL     1       7.282   4.907  14.188  0.00  0.00    +0.000 C 
BRANCH  23  24
ATOM     24  C   UNL     1       7.955   5.294  12.855  0.00  0.00    +0.000 C 
BRANCH  24  25
ATOM     25  O   UNL     1       9.067   6.152  13.089  0.00  0.00    +0.000 OA
ATOM     26  H   UNL     1       9.016   6.839  12.397  0.00  0.00    +0.000 HD
ENDBRANCH  24  25
ENDBRANCH  23  24
ENDBRANCH  18  23
ENDBRANCH  17  18
ENDBRANCH  16  17
ENDBRANCH  15  16
TORSDOF 9
ENDMDL
MODEL 5
REMARK VINA RESULT:      -6.8      1.583      2.826
REMARK  Name = 
REMARK  9 active torsions:
REMARK  status: ('A' for Active; 'I' for Inactive)
REMARK    1  A    between atoms: N_15  and  C_16
REMARK    2  A    between atoms: C_16  and  C_17
REMARK    3  A    between atoms: C_17  and  N_18
REMARK    4  A    between atoms: N_18  and  C_19
REMARK    5  A    between atoms: N_18  and  C_22
REMARK    6  A    between atoms: C_19  and  C_20
REMARK    7  A    between atoms: C_20  and  O_21
REMARK    8  A    between atoms: C_22  and  C_23
REMARK    9  A    between atoms: C_23  and  O_24
REMARK                            x       y       z     vdW  Elec       q    Type
REMARK                         _______ _______ _______ _____ _____    ______ ____
ROOT
ATOM      1  O   UNL     1       4.106   3.931  16.536  0.00  0.00    +0.000 OA
ATOM      2  C   UNL     1       3.761   4.840  17.283  0.00  0.00    +0.000 C 
ATOM      3  C   UNL     1       2.947   4.522  18.481  0.00  0.00    +0.000 A 
ATOM      4  C   UNL     1       2.735   3.181  18.831  0.00  0.00    +0.000 A 
ATOM      5  C   UNL     1       1.987   2.871  19.962  0.00  0.00    +0.000 A 
ATOM      6  C   UNL     1       1.439   3.894  20.736  0.00  0.00    +0.000 A 
ATOM      7  C   UNL     1       1.638   5.240  20.391  0.00  0.00    +0.000 A 
ATOM      8  C   UNL     1       1.088   6.279  21.161  0.00  0.00    +0.000 A 
ATOM      9  C   UNL     1       1.296   7.614  20.814  0.00  0.00    +0.000 A 
ATOM     10  C   UNL     1       2.063   7.927  19.696  0.00  0.00    +0.000 A 
ATOM     11  C   UNL     1       2.622   6.902  18.919  0.00  0.00    +0.000 A 
ATOM     12  C   UNL     1       2.411   5.556  19.250  0.00  0.00    +0.000 A 
ATOM     13  C   UNL     1       3.463   7.244  17.758  0.00  0.00    +0.000 C 
ATOM     14  O   UNL     1       3.608   8.424  17.444  0.00  0.00    +0.000 OA
ATOM     15  N   UNL     1       4.056   6.183  17.066  0.00  0.00    +0.000 N 
ENDROOT
BRANCH  15  16
ATOM     16  C   UNL     1       4.950   6.519  15.963  0.00  0.00    +0.000 C 
BRANCH  16  17
ATOM     17  C   UNL     1       6.431   6.638  16.394  0.00  0.00    +0.000 C 
BRANCH  17  18
ATOM     18  N   UNL     1       7.421   5.684  15.807  0.00  0.00    +0.000 NA
BRANCH  18  19
ATOM     19  C   UNL     1       7.459   4.434  16.622  0.00  0.00    +0.000 C 
BRANCH  19  20
ATOM     20  C   UNL     1       7.485   4.606  18.156  0.00  0.00    +0.000 C 
BRANCH  20  21
ATOM     21  O   UNL     1       6.381   3.965  18.782  0.00  0.00    +0.000 OA
ATOM     22  H   UNL     1       6.694   3.687  19.661  0.00  0.00    +0.000 HD
ENDBRANCH  20  21
ENDBRANCH  19  20
ENDBRANCH  18  19
BRANCH  18  23
ATOM     23  C   UNL     1       7.014   5.364  14.407  0.00  0.00    +0.000 C 
BRANCH  23  24
ATOM     24  C   UNL     1       6.509   3.925  14.181  0.00  0.00    +0.000 C 
BRANCH  24  25
ATOM     25  O   UNL     1       5.182   3.937  13.668  0.00  0.00    +0.000 OA
ATOM     26  H   UNL     1       5.094   4.785  13.192  0.00  0.00    +0.000 HD
ENDBRANCH  24  25
ENDBRANCH  23  24
ENDBRANCH  18  23
ENDBRANCH  17  18
ENDBRANCH  16  17
ENDBRANCH  15  16
TORSDOF 9
ENDMDL
MODEL 6
REMARK VINA RESULT:      -6.7      1.746      3.429
REMARK  Name = 
REMARK  9 active torsions:
REMARK  status: ('A' for Active; 'I' for Inactive)
REMARK    1  A    between atoms: N_15  and  C_16
REMARK    2  A    between atoms: C_16  and  C_17
REMARK    3  A    between atoms: C_17  and  N_18
REMARK    4  A    between atoms: N_18  and  C_19
REMARK    5  A    between atoms: N_18  and  C_22
REMARK    6  A    between atoms: C_19  and  C_20
REMARK    7  A    between atoms: C_20  and  O_21
REMARK    8  A    between atoms: C_22  and  C_23
REMARK    9  A    between atoms: C_23  and  O_24
REMARK                            x       y       z     vdW  Elec       q    Type
REMARK                         _______ _______ _______ _____ _____    ______ ____
ROOT
ATOM      1  O   UNL     1       4.430   6.627  16.844  0.00  0.00    +0.000 OA
ATOM      2  C   UNL     1       3.879   5.666  17.370  0.00  0.00    +0.000 C 
ATOM      3  C   UNL     1       3.032   5.884  18.567  0.00  0.00    +0.000 A 
ATOM      4  C   UNL     1       2.736   7.194  18.970  0.00  0.00    +0.000 A 
ATOM      5  C   UNL     1       1.929   7.411  20.082  0.00  0.00    +0.000 A 
ATOM      6  C   UNL     1       1.428   6.326  20.801  0.00  0.00    +0.000 A 
ATOM      7  C   UNL     1       1.724   5.010  20.412  0.00  0.00    +0.000 A 
ATOM      8  C   UNL     1       1.228   3.909  21.130  0.00  0.00    +0.000 A 
ATOM      9  C   UNL     1       1.521   2.604  20.733  0.00  0.00    +0.000 A 
ATOM     10  C   UNL     1       2.310   2.384  19.608  0.00  0.00    +0.000 A 
ATOM     11  C   UNL     1       2.810   3.472  18.878  0.00  0.00    +0.000 A 
ATOM     12  C   UNL     1       2.531   4.788  19.272  0.00  0.00    +0.000 A 
ATOM     13  C   UNL     1       3.614   3.230  17.667  0.00  0.00    +0.000 C 
ATOM     14  O   UNL     1       3.894   2.075  17.349  0.00  0.00    +0.000 OA
ATOM     15  N   UNL     1       4.021   4.351  16.936  0.00  0.00    +0.000 N 
ENDROOT
BRANCH  15  16
ATOM     16  C   UNL     1       4.751   4.113  15.696  0.00  0.00    +0.000 C 
BRANCH  16  17
ATOM     17  C   UNL     1       6.200   3.620  15.926  0.00  0.00    +0.000 C 
BRANCH  17  18
ATOM     18  N   UNL     1       7.323   4.577  15.683  0.00  0.00    +0.000 NA
BRANCH  18  19
ATOM     19  C   UNL     1       7.001   5.443  14.510  0.00  0.00    +0.000 C 
BRANCH  19  20
ATOM     20  C   UNL     1       7.827   5.207  13.226  0.00  0.00    +0.000 C 
BRANCH  20  21
ATOM     21  O   UNL     1       8.966   6.056  13.164  0.00  0.00    +0.000 OA
ATOM     22  H   UNL     1       8.791   6.789  13.780  0.00  0.00    +0.000 HD
ENDBRANCH  20  21
ENDBRANCH  19  20
ENDBRANCH  18  19
BRANCH  18  23
ATOM     23  C   UNL     1       7.512   5.420  16.899  0.00  0.00    +0.000 C 
BRANCH  23  24
ATOM     24  C   UNL     1       7.488   4.659  18.239  0.00  0.00    +0.000 C 
BRANCH  24  25
ATOM     25  O   UNL     1       7.960   5.490  19.294  0.00  0.00    +0.000 OA
ATOM     26  H   UNL     1       8.715   5.983  18.919  0.00  0.00    +0.000 HD
ENDBRANCH  24  25
ENDBRANCH  23  24
ENDBRANCH  18  23
ENDBRANCH  17  18
ENDBRANCH  16  17
ENDBRANCH  15  16
TORSDOF 9
ENDMDL
MODEL 7
REMARK VINA RESULT:      -6.7      3.536      6.111
REMARK  Name = 
REMARK  9 active torsions:
REMARK  status: ('A' for Active; 'I' for Inactive)
REMARK    1  A    between atoms: N_15  and  C_16
REMARK    2  A    between atoms: C_16  and  C_17
REMARK    3  A    between atoms: C_17  and  N_18
REMARK    4  A    between atoms: N_18  and  C_19
REMARK    5  A    between atoms: N_18  and  C_22
REMARK    6  A    between atoms: C_19  and  C_20
REMARK    7  A    between atoms: C_20  and  O_21
REMARK    8  A    between atoms: C_22  and  C_23
REMARK    9  A    between atoms: C_23  and  O_24
REMARK                            x       y       z     vdW  Elec       q    Type
REMARK                         _______ _______ _______ _____ _____    ______ ____
ROOT
ATOM      1  O   UNL     1       1.439   7.230  20.760  0.00  0.00    +0.000 OA
ATOM      2  C   UNL     1       1.981   6.653  19.823  0.00  0.00    +0.000 C 
ATOM      3  C   UNL     1       2.030   5.171  19.819  0.00  0.00    +0.000 A 
ATOM      4  C   UNL     1       1.310   4.457  20.786  0.00  0.00    +0.000 A 
ATOM      5  C   UNL     1       1.335   3.066  20.782  0.00  0.00    +0.000 A 
ATOM      6  C   UNL     1       2.088   2.387  19.823  0.00  0.00    +0.000 A 
ATOM      7  C   UNL     1       2.819   3.091  18.854  0.00  0.00    +0.000 A 
ATOM      8  C   UNL     1       3.583   2.419  17.886  0.00  0.00    +0.000 A 
ATOM      9  C   UNL     1       4.302   3.126  16.923  0.00  0.00    +0.000 A 
ATOM     10  C   UNL     1       4.261   4.518  16.912  0.00  0.00    +0.000 A 
ATOM     11  C   UNL     1       3.500   5.204  17.869  0.00  0.00    +0.000 A 
ATOM     12  C   UNL     1       2.781   4.505  18.849  0.00  0.00    +0.000 A 
ATOM     13  C   UNL     1       3.432   6.676  17.827  0.00  0.00    +0.000 C 
ATOM     14  O   UNL     1       4.099   7.287  16.994  0.00  0.00    +0.000 OA
ATOM     15  N   UNL     1       2.598   7.303  18.758  0.00  0.00    +0.000 N 
ENDROOT
BRANCH  15  16
ATOM     16  C   UNL     1       2.468   8.753  18.671  0.00  0.00    +0.000 C 
BRANCH  16  17
ATOM     17  C   UNL     1       1.140   9.209  18.022  0.00  0.00    +0.000 C 
BRANCH  17  18
ATOM     18  N   UNL     1       0.100   9.834  18.896  0.00  0.00    +0.000 NA
BRANCH  18  19
ATOM     19  C   UNL     1       0.706  10.951  19.680  0.00  0.00    +0.000 C 
BRANCH  19  20
ATOM     20  C   UNL     1       0.706  10.799  21.217  0.00  0.00    +0.000 C 
BRANCH  20  21
ATOM     21  O   UNL     1       0.314  12.000  21.869  0.00  0.00    +0.000 OA
ATOM     22  H   UNL     1      -0.571  11.831  22.238  0.00  0.00    +0.000 HD
ENDBRANCH  20  21
ENDBRANCH  19  20
ENDBRANCH  18  19
BRANCH  18  23
ATOM     23  C   UNL     1      -1.003  10.357  18.038  0.00  0.00    +0.000 C 
BRANCH  23  24
ATOM     24  C   UNL     1      -1.450  11.800  18.348  0.00  0.00    +0.000 C 
BRANCH  24  25
ATOM     25  O   UNL     1      -1.227  12.644  17.223  0.00  0.00    +0.000 OA
ATOM     26  H   UNL     1      -1.235  12.050  16.447  0.00  0.00    +0.000 HD
ENDBRANCH  24  25
ENDBRANCH  23  24
ENDBRANCH  18  23
ENDBRANCH  17  18
ENDBRANCH  16  17
ENDBRANCH  15  16
TORSDOF 9
ENDMDL
MODEL 8
REMARK VINA RESULT:      -6.7      2.628      4.430
REMARK  Name = 
REMARK  9 active torsions:
REMARK  status: ('A' for Active; 'I' for Inactive)
REMARK    1  A    between atoms: N_15  and  C_16
REMARK    2  A    between atoms: C_16  and  C_17
REMARK    3  A    between atoms: C_17  and  N_18
REMARK    4  A    between atoms: N_18  and  C_19
REMARK    5  A    between atoms: N_18  and  C_22
REMARK    6  A    between atoms: C_19  and  C_20
REMARK    7  A    between atoms: C_20  and  O_21
REMARK    8  A    between atoms: C_22  and  C_23
REMARK    9  A    between atoms: C_23  and  O_24
REMARK                            x       y       z     vdW  Elec       q    Type
REMARK                         _______ _______ _______ _____ _____    ______ ____
ROOT
ATOM      1  O   UNL     1       4.874   3.044  18.505  0.00  0.00    +0.000 OA
ATOM      2  C   UNL     1       4.616   4.229  18.320  0.00  0.00    +0.000 C 
ATOM      3  C   UNL     1       3.569   4.878  19.146  0.00  0.00    +0.000 A 
ATOM      4  C   UNL     1       3.020   4.182  20.232  0.00  0.00    +0.000 A 
ATOM      5  C   UNL     1       2.049   4.787  21.023  0.00  0.00    +0.000 A 
ATOM      6  C   UNL     1       1.615   6.079  20.726  0.00  0.00    +0.000 A 
ATOM      7  C   UNL     1       2.152   6.783  19.637  0.00  0.00    +0.000 A 
ATOM      8  C   UNL     1       1.721   8.084  19.326  0.00  0.00    +0.000 A 
ATOM      9  C   UNL     1       2.264   8.779  18.245  0.00  0.00    +0.000 A 
ATOM     10  C   UNL     1       3.251   8.184  17.465  0.00  0.00    +0.000 A 
ATOM     11  C   UNL     1       3.695   6.888  17.765  0.00  0.00    +0.000 A 
ATOM     12  C   UNL     1       3.150   6.175  18.841  0.00  0.00    +0.000 A 
ATOM     13  C   UNL     1       4.767   6.281  16.956  0.00  0.00    +0.000 C 
ATOM     14  O   UNL     1       5.211   6.891  15.985  0.00  0.00    +0.000 OA
ATOM     15  N   UNL     1       5.223   5.017  17.347  0.00  0.00    +0.000 N 
ENDROOT
BRANCH  15  16
ATOM     16  C   UNL     1       6.335   4.445  16.596  0.00  0.00    +0.000 C 
BRANCH  16  17
ATOM     17  C   UNL     1       5.881   3.481  15.474  0.00  0.00    +0.000 C 
BRANCH  17  18
ATOM     18  N   UNL     1       6.332   3.757  14.075  0.00  0.00    +0.000 NA
BRANCH  18  19
ATOM     19  C   UNL     1       5.149   3.804  13.166  0.00  0.00    +0.000 C 
BRANCH  19  20
ATOM     20  C   UNL     1       5.306   3.125  11.788  0.00  0.00    +0.000 C 
BRANCH  20  21
ATOM     21  O   UNL     1       6.068   1.928  11.869  0.00  0.00    +0.000 OA
ATOM     22  H   UNL     1       5.541   1.242  11.422  0.00  0.00    +0.000 HD
ENDBRANCH  20  21
ENDBRANCH  19  20
ENDBRANCH  18  19
BRANCH  18  23
ATOM     23  C   UNL     1       7.045   5.067  14.046  0.00  0.00    +0.000 C 
BRANCH  23  24
ATOM     24  C   UNL     1       8.037   5.251  12.879  0.00  0.00    +0.000 C 
BRANCH  24  25
ATOM     25  O   UNL     1       9.128   6.074  13.276  0.00  0.00    +0.000 OA
ATOM     26  H   UNL     1       9.180   5.986  14.247  0.00  0.00    +0.000 HD
ENDBRANCH  24  25
ENDBRANCH  23  24
ENDBRANCH  18  23
ENDBRANCH  17  18
ENDBRANCH  16  17
ENDBRANCH  15  16
TORSDOF 9
ENDMDL
MODEL 9
REMARK VINA RESULT:      -6.7      1.414      3.619
REMARK  Name = 
REMARK  9 active torsions:
REMARK  status: ('A' for Active; 'I' for Inactive)
REMARK    1  A    between atoms: N_15  and  C_16
REMARK    2  A    between atoms: C_16  and  C_17
REMARK    3  A    between atoms: C_17  and  N_18
REMARK    4  A    between atoms: N_18  and  C_19
REMARK    5  A    between atoms: N_18  and  C_22
REMARK    6  A    between atoms: C_19  and  C_20
REMARK    7  A    between atoms: C_20  and  O_21
REMARK    8  A    between atoms: C_22  and  C_23
REMARK    9  A    between atoms: C_23  and  O_24
REMARK                            x       y       z     vdW  Elec       q    Type
REMARK                         _______ _______ _______ _____ _____    ______ ____
ROOT
ATOM      1  O   UNL     1       4.048   8.025  17.687  0.00  0.00    +0.000 OA
ATOM      2  C   UNL     1       3.663   6.878  17.889  0.00  0.00    +0.000 C 
ATOM      3  C   UNL     1       2.724   6.619  19.008  0.00  0.00    +0.000 A 
ATOM      4  C   UNL     1       2.161   7.701  19.698  0.00  0.00    +0.000 A 
ATOM      5  C   UNL     1       1.267   7.470  20.738  0.00  0.00    +0.000 A 
ATOM      6  C   UNL     1       0.944   6.161  21.099  0.00  0.00    +0.000 A 
ATOM      7  C   UNL     1       1.507   5.070  20.421  0.00  0.00    +0.000 A 
ATOM      8  C   UNL     1       1.191   3.748  20.778  0.00  0.00    +0.000 A 
ATOM      9  C   UNL     1       1.751   2.669  20.094  0.00  0.00    +0.000 A 
ATOM     10  C   UNL     1       2.629   2.898  19.039  0.00  0.00    +0.000 A 
ATOM     11  C   UNL     1       2.951   4.211  18.667  0.00  0.00    +0.000 A 
ATOM     12  C   UNL     1       2.404   5.304  19.354  0.00  0.00    +0.000 A 
ATOM     13  C   UNL     1       3.853   4.444  17.526  0.00  0.00    +0.000 C 
ATOM     14  O   UNL     1       4.366   3.484  16.955  0.00  0.00    +0.000 OA
ATOM     15  N   UNL     1       4.078   5.774  17.152  0.00  0.00    +0.000 N 
ENDROOT
BRANCH  15  16
ATOM     16  C   UNL     1       4.908   6.007  15.976  0.00  0.00    +0.000 C 
BRANCH  16  17
ATOM     17  C   UNL     1       6.365   6.397  16.324  0.00  0.00    +0.000 C 
BRANCH  17  18
ATOM     18  N   UNL     1       7.432   5.359  16.182  0.00  0.00    +0.000 NA
BRANCH  18  19
ATOM     19  C   UNL     1       7.636   4.665  17.487  0.00  0.00    +0.000 C 
BRANCH  19  20
ATOM     20  C   UNL     1       7.228   5.442  18.758  0.00  0.00    +0.000 C 
BRANCH  20  21
ATOM     21  O   UNL     1       8.334   6.115  19.347  0.00  0.00    +0.000 OA
ATOM     22  H   UNL     1       8.136   6.178  20.298  0.00  0.00    +0.000 HD
ENDBRANCH  20  21
ENDBRANCH  19  20
ENDBRANCH  18  19
BRANCH  18  23
ATOM     23  C   UNL     1       7.013   4.373  15.144  0.00  0.00    +0.000 C 
BRANCH  23  24
ATOM     24  C   UNL     1       7.320   4.779  13.688  0.00  0.00    +0.000 C 
BRANCH  24  25
ATOM     25  O   UNL     1       8.346   5.765  13.651  0.00  0.00    +0.000 OA
ATOM     26  H   UNL     1       7.994   6.487  13.094  0.00  0.00    +0.000 HD
ENDBRANCH  24  25
ENDBRANCH  23  24
ENDBRANCH  18  23
ENDBRANCH  17  18
ENDBRANCH  16  17
ENDBRANCH  15  16
TORSDOF 9
ENDMDL
