MODEL 1
REMARK VINA RESULT:      -7.8      0.000      0.000
REMARK  Name = 
REMARK  5 active torsions:
REMARK  status: ('A' for Active; 'I' for Inactive)
REMARK    1  A    between atoms: C_1  and  C_2
REMARK    2  A    between atoms: C_2  and  C_3
REMARK    3  A    between atoms: C_2  and  N_4
REMARK    4  A    between atoms: C_5  and  C_7
REMARK    5  A    between atoms: N_18  and  C_19
REMARK                            x       y       z     vdW  Elec       q    Type
REMARK                         _______ _______ _______ _____ _____    ______ ____
ROOT
ATOM      1  C   UNL     1       5.808   4.946  16.197  0.00  0.00    +0.000 C 
ATOM      2  C   UNL     1       4.835   5.873  16.212  0.00  0.00    +0.000 C 
ATOM      3  C   UNL     1       4.019   6.222  17.380  0.00  0.00    +0.000 A 
ATOM      4  C   UNL     1       3.308   7.425  17.422  0.00  0.00    +0.000 A 
ATOM      5  C   UNL     1       2.553   7.760  18.552  0.00  0.00    +0.000 A 
ATOM      6  C   UNL     1       2.501   6.896  19.647  0.00  0.00    +0.000 A 
ATOM      7  C   UNL     1       3.190   5.685  19.614  0.00  0.00    +0.000 A 
ATOM      8  C   UNL     1       3.920   5.357  18.468  0.00  0.00    +0.000 A 
ATOM      9  S   UNL     1       4.768   3.819  18.344  0.00  0.00    +0.000 S 
ATOM     10  O   UNL     1       3.935   2.937  17.555  0.00  0.00    +0.000 OA
ATOM     11  O   UNL     1       5.211   3.449  19.673  0.00  0.00    +0.000 OA
ATOM     12  N   UNL     1       6.148   4.246  17.417  0.00  0.00    +0.000 N 
ATOM     13  C   UNL     1       7.256   4.861  18.190  0.00  0.00    +0.000 C 
ENDROOT
BRANCH   1  15
ATOM     14  N   UNL     1       6.108   3.930  14.019  0.00  0.00    +0.000 N 
ATOM     15  C   UNL     1       6.651   4.770  14.965  0.00  0.00    +0.000 C 
ATOM     16  O   UNL     1       7.743   5.316  14.845  0.00  0.00    +0.000 OA
ATOM     17  H   UNL     1       5.157   3.612  14.170  0.00  0.00    +0.000 HD
BRANCH  14  19
ATOM     18  C   UNL     1       5.863   2.878  11.819  0.00  0.00    +0.000 C 
ATOM     19  C   UNL     1       6.780   3.659  12.758  0.00  0.00    +0.000 C 
ATOM     20  C   UNL     1       7.251   4.944  12.086  0.00  0.00    +0.000 C 
ENDBRANCH  14  19
ENDBRANCH   1  15
TORSDOF 2
ENDMDL
MODEL 2
REMARK VINA RESULT:      -7.5      3.048      5.733
REMARK  Name = 
REMARK  5 active torsions:
REMARK  status: ('A' for Active; 'I' for Inactive)
REMARK    1  A    between atoms: C_1  and  C_2
REMARK    2  A    between atoms: C_2  and  C_3
REMARK    3  A    between atoms: C_2  and  N_4
REMARK    4  A    between atoms: C_5  and  C_7
REMARK    5  A    between atoms: N_18  and  C_19
REMARK                            x       y       z     vdW  Elec       q    Type
REMARK                         _______ _______ _______ _____ _____    ______ ____
ROOT
ATOM      1  C   UNL     1       4.504   4.217  18.028  0.00  0.00    +0.000 C 
ATOM      2  C   UNL     1       5.665   4.392  18.684  0.00  0.00    +0.000 C 
ATOM      3  C   UNL     1       6.582   5.520  18.488  0.00  0.00    +0.000 A 
ATOM      4  C   UNL     1       7.552   5.826  19.448  0.00  0.00    +0.000 A 
ATOM      5  C   UNL     1       8.407   6.919  19.264  0.00  0.00    +0.000 A 
ATOM      6  C   UNL     1       8.300   7.714  18.121  0.00  0.00    +0.000 A 
ATOM      7  C   UNL     1       7.350   7.411  17.147  0.00  0.00    +0.000 A 
ATOM      8  C   UNL     1       6.521   6.302  17.337  0.00  0.00    +0.000 A 
ATOM      9  S   UNL     1       5.337   5.837  16.120  0.00  0.00    +0.000 S 
ATOM     10  O   UNL     1       5.914   4.749  15.360  0.00  0.00    +0.000 OA
ATOM     11  O   UNL     1       4.872   7.046  15.470  0.00  0.00    +0.000 OA
ATOM     12  N   UNL     1       4.059   5.218  17.083  0.00  0.00    +0.000 N 
ATOM     13  C   UNL     1       3.152   6.244  17.656  0.00  0.00    +0.000 C 
ENDROOT
BRANCH   1  15
ATOM     14  N   UNL     1       2.754   3.355  19.462  0.00  0.00    +0.000 N 
ATOM     15  C   UNL     1       3.597   3.080  18.409  0.00  0.00    +0.000 C 
ATOM     16  O   UNL     1       3.642   1.997  17.836  0.00  0.00    +0.000 OA
ATOM     17  H   UNL     1       2.723   4.311  19.798  0.00  0.00    +0.000 HD
BRANCH  14  19
ATOM     18  C   UNL     1       1.457   2.645  21.417  0.00  0.00    +0.000 C 
ATOM     19  C   UNL     1       1.797   2.375  19.952  0.00  0.00    +0.000 C 
ATOM     20  C   UNL     1       0.526   2.361  19.110  0.00  0.00    +0.000 C 
ENDBRANCH  14  19
ENDBRANCH   1  15
TORSDOF 2
ENDMDL
MODEL 3
REMARK VINA RESULT:      -7.5      2.039      2.737
REMARK  Name = 
REMARK  5 active torsions:
REMARK  status: ('A' for Active; 'I' for Inactive)
REMARK    1  A    between atoms: C_1  and  C_2
REMARK    2  A    between atoms: C_2  and  C_3
REMARK    3  A    between atoms: C_2  and  N_4
REMARK    4  A    between atoms: C_5  and  C_7
REMARK    5  A    between atoms: N_18  and  C_19
REMARK                            x       y       z     vdW  Elec       q    Type
REMARK                         _______ _______ _______ _____ _____    ______ ____
ROOT
ATOM      1  C   UNL     1       5.268   4.310  16.813  0.00  0.00    +0.000 C 
ATOM      2  C   UNL     1       4.415   3.284  16.976  0.00  0.00    +0.000 C 
ATOM      3  C   UNL     1       3.276   3.274  17.900  0.00  0.00    +0.000 A 
ATOM      4  C   UNL     1       2.238   2.349  17.745  0.00  0.00    +0.000 A 
ATOM      5  C   UNL     1       1.143   2.365  18.616  0.00  0.00    +0.000 A 
ATOM      6  C   UNL     1       1.076   3.301  19.649  0.00  0.00    +0.000 A 
ATOM      7  C   UNL     1       2.110   4.218  19.828  0.00  0.00    +0.000 A 
ATOM      8  C   UNL     1       3.207   4.173  18.962  0.00  0.00    +0.000 A 
ATOM      9  S   UNL     1       4.569   5.269  19.168  0.00  0.00    +0.000 S 
ATOM     10  O   UNL     1       5.610   4.530  19.849  0.00  0.00    +0.000 OA
ATOM     11  O   UNL     1       4.057   6.515  19.701  0.00  0.00    +0.000 OA
ATOM     12  N   UNL     1       5.058   5.539  17.545  0.00  0.00    +0.000 N 
ATOM     13  C   UNL     1       4.270   6.563  16.815  0.00  0.00    +0.000 C 
ENDROOT
BRANCH   1  15
ATOM     14  N   UNL     1       5.845   3.923  14.492  0.00  0.00    +0.000 N 
ATOM     15  C   UNL     1       6.323   4.237  15.744  0.00  0.00    +0.000 C 
ATOM     16  O   UNL     1       7.511   4.418  15.994  0.00  0.00    +0.000 OA
ATOM     17  H   UNL     1       4.838   3.894  14.372  0.00  0.00    +0.000 HD
BRANCH  14  19
ATOM     18  C   UNL     1       5.971   3.256  12.137  0.00  0.00    +0.000 C 
ATOM     19  C   UNL     1       6.723   3.827  13.337  0.00  0.00    +0.000 C 
ATOM     20  C   UNL     1       7.334   5.178  12.983  0.00  0.00    +0.000 C 
ENDBRANCH  14  19
ENDBRANCH   1  15
TORSDOF 2
ENDMDL
MODEL 4
REMARK VINA RESULT:      -7.4      2.248      2.799
REMARK  Name = 
REMARK  5 active torsions:
REMARK  status: ('A' for Active; 'I' for Inactive)
REMARK    1  A    between atoms: C_1  and  C_2
REMARK    2  A    between atoms: C_2  and  C_3
REMARK    3  A    between atoms: C_2  and  N_4
REMARK    4  A    between atoms: C_5  and  C_7
REMARK    5  A    between atoms: N_18  and  C_19
REMARK                            x       y       z     vdW  Elec       q    Type
REMARK                         _______ _______ _______ _____ _____    ______ ____
ROOT
ATOM      1  C   UNL     1       5.741   4.363  15.408  0.00  0.00    +0.000 C 
ATOM      2  C   UNL     1       4.926   3.467  15.990  0.00  0.00    +0.000 C 
ATOM      3  C   UNL     1       4.423   3.554  17.366  0.00  0.00    +0.000 A 
ATOM      4  C   UNL     1       3.309   2.810  17.767  0.00  0.00    +0.000 A 
ATOM      5  C   UNL     1       2.822   2.919  19.075  0.00  0.00    +0.000 A 
ATOM      6  C   UNL     1       3.444   3.769  19.991  0.00  0.00    +0.000 A 
ATOM      7  C   UNL     1       4.566   4.503  19.611  0.00  0.00    +0.000 A 
ATOM      8  C   UNL     1       5.052   4.365  18.308  0.00  0.00    +0.000 A 
ATOM      9  S   UNL     1       6.496   5.224  17.784  0.00  0.00    +0.000 S 
ATOM     10  O   UNL     1       7.595   4.285  17.845  0.00  0.00    +0.000 OA
ATOM     11  O   UNL     1       6.542   6.486  18.495  0.00  0.00    +0.000 OA
ATOM     12  N   UNL     1       6.140   5.548  16.137  0.00  0.00    +0.000 N 
ATOM     13  C   UNL     1       5.279   6.733  15.902  0.00  0.00    +0.000 C 
ENDROOT
BRANCH   1  15
ATOM     14  N   UNL     1       5.188   3.469  13.226  0.00  0.00    +0.000 N 
ATOM     15  C   UNL     1       6.086   4.220  13.951  0.00  0.00    +0.000 C 
ATOM     16  O   UNL     1       7.102   4.714  13.475  0.00  0.00    +0.000 OA
ATOM     17  H   UNL     1       4.330   3.192  13.690  0.00  0.00    +0.000 HD
BRANCH  14  19
ATOM     18  C   UNL     1       6.022   1.890  11.546  0.00  0.00    +0.000 C 
ATOM     19  C   UNL     1       5.356   3.241  11.799  0.00  0.00    +0.000 C 
ATOM     20  C   UNL     1       4.026   3.320  11.058  0.00  0.00    +0.000 C 
ENDBRANCH  14  19
ENDBRANCH   1  15
TORSDOF 2
ENDMDL
MODEL 5
REMARK VINA RESULT:      -7.4      2.622      6.079
REMARK  Name = 
REMARK  5 active torsions:
REMARK  status: ('A' for Active; 'I' for Inactive)
REMARK    1  A    between atoms: C_1  and  C_2
REMARK    2  A    between atoms: C_2  and  C_3
REMARK    3  A    between atoms: C_2  and  N_4
REMARK    4  A    between atoms: C_5  and  C_7
REMARK    5  A    between atoms: N_18  and  C_19
REMARK                            x       y       z     vdW  Elec       q    Type
REMARK                         _______ _______ _______ _____ _____    ______ ____
ROOT
ATOM      1  C   UNL     1       3.133   6.644  18.496  0.00  0.00    +0.000 C 
ATOM      2  C   UNL     1       3.926   6.933  17.449  0.00  0.00    +0.000 C 
ATOM      3  C   UNL     1       4.723   5.956  16.701  0.00  0.00    +0.000 A 
ATOM      4  C   UNL     1       5.212   6.258  15.426  0.00  0.00    +0.000 A 
ATOM      5  C   UNL     1       5.950   5.309  14.709  0.00  0.00    +0.000 A 
ATOM      6  C   UNL     1       6.207   4.053  15.260  0.00  0.00    +0.000 A 
ATOM      7  C   UNL     1       5.742   3.742  16.536  0.00  0.00    +0.000 A 
ATOM      8  C   UNL     1       5.027   4.709  17.246  0.00  0.00    +0.000 A 
ATOM      9  S   UNL     1       4.459   4.397  18.883  0.00  0.00    +0.000 S 
ATOM     10  O   UNL     1       5.395   5.031  19.786  0.00  0.00    +0.000 OA
ATOM     11  O   UNL     1       4.154   2.984  18.983  0.00  0.00    +0.000 OA
ATOM     12  N   UNL     1       2.982   5.269  18.921  0.00  0.00    +0.000 N 
ATOM     13  C   UNL     1       1.821   4.564  18.321  0.00  0.00    +0.000 C 
ENDROOT
BRANCH   1  15
ATOM     14  N   UNL     1       1.972   8.755  18.241  0.00  0.00    +0.000 N 
ATOM     15  C   UNL     1       2.275   7.721  19.099  0.00  0.00    +0.000 C 
ATOM     16  O   UNL     1       1.910   7.678  20.269  0.00  0.00    +0.000 OA
ATOM     17  H   UNL     1       2.236   8.645  17.268  0.00  0.00    +0.000 HD
BRANCH  14  19
ATOM     18  C   UNL     1       1.843  11.199  18.372  0.00  0.00    +0.000 C 
ATOM     19  C   UNL     1       1.139   9.873  18.652  0.00  0.00    +0.000 C 
ATOM     20  C   UNL     1      -0.221   9.842  17.964  0.00  0.00    +0.000 C 
ENDBRANCH  14  19
ENDBRANCH   1  15
TORSDOF 2
ENDMDL
MODEL 6
REMARK VINA RESULT:      -7.4      1.999      2.816
REMARK  Name = 
REMARK  5 active torsions:
REMARK  status: ('A' for Active; 'I' for Inactive)
REMARK    1  A    between atoms: C_1  and  C_2
REMARK    2  A    between atoms: C_2  and  C_3
REMARK    3  A    between atoms: C_2  and  N_4
REMARK    4  A    between atoms: C_5  and  C_7
REMARK    5  A    between atoms: N_18  and  C_19
REMARK                            x       y       z     vdW  Elec       q    Type
REMARK                         _______ _______ _______ _____ _____    ______ ____
ROOT
ATOM      1  C   UNL     1       5.112   4.488  16.080  0.00  0.00    +0.000 C 
ATOM      2  C   UNL     1       4.323   3.435  16.356  0.00  0.00    +0.000 C 
ATOM      3  C   UNL     1       3.643   3.203  17.635  0.00  0.00    +0.000 A 
ATOM      4  C   UNL     1       2.567   2.315  17.722  0.00  0.00    +0.000 A 
ATOM      5  C   UNL     1       1.908   2.120  18.941  0.00  0.00    +0.000 A 
ATOM      6  C   UNL     1       2.320   2.809  20.083  0.00  0.00    +0.000 A 
ATOM      7  C   UNL     1       3.401   3.685  20.017  0.00  0.00    +0.000 A 
ATOM      8  C   UNL     1       4.061   3.850  18.797  0.00  0.00    +0.000 A 
ATOM      9  S   UNL     1       5.467   4.901  18.661  0.00  0.00    +0.000 S 
ATOM     10  O   UNL     1       6.638   4.053  18.701  0.00  0.00    +0.000 OA
ATOM     11  O   UNL     1       5.294   5.993  19.599  0.00  0.00    +0.000 OA
ATOM     12  N   UNL     1       5.293   5.526  17.072  0.00  0.00    +0.000 N 
ATOM     13  C   UNL     1       4.354   6.668  16.946  0.00  0.00    +0.000 C 
ENDROOT
BRANCH   1  15
ATOM     14  N   UNL     1       5.101   3.825  13.751  0.00  0.00    +0.000 N 
ATOM     15  C   UNL     1       5.652   4.668  14.689  0.00  0.00    +0.000 C 
ATOM     16  O   UNL     1       6.532   5.485  14.437  0.00  0.00    +0.000 OA
ATOM     17  H   UNL     1       4.310   3.260  14.040  0.00  0.00    +0.000 HD
BRANCH  14  19
ATOM     18  C   UNL     1       6.795   3.105  12.133  0.00  0.00    +0.000 C 
ATOM     19  C   UNL     1       5.494   3.873  12.351  0.00  0.00    +0.000 C 
ATOM     20  C   UNL     1       4.399   3.327  11.442  0.00  0.00    +0.000 C 
ENDBRANCH  14  19
ENDBRANCH   1  15
TORSDOF 2
ENDMDL
MODEL 7
REMARK VINA RESULT:      -7.4      2.672      6.421
REMARK  Name = 
REMARK  5 active torsions:
REMARK  status: ('A' for Active; 'I' for Inactive)
REMARK    1  A    between atoms: C_1  and  C_2
REMARK    2  A    between atoms: C_2  and  C_3
REMARK    3  A    between atoms: C_2  and  N_4
REMARK    4  A    between atoms: C_5  and  C_7
REMARK    5  A    between atoms: N_18  and  C_19
REMARK                            x       y       z     vdW  Elec       q    Type
REMARK                         _______ _______ _______ _____ _____    ______ ____
ROOT
ATOM      1  C   UNL     1       2.804   5.586  19.111  0.00  0.00    +0.000 C 
ATOM      2  C   UNL     1       3.624   6.294  18.315  0.00  0.00    +0.000 C 
ATOM      3  C   UNL     1       4.430   5.735  17.224  0.00  0.00    +0.000 A 
ATOM      4  C   UNL     1       4.951   6.562  16.224  0.00  0.00    +0.000 A 
ATOM      5  C   UNL     1       5.697   6.016  15.174  0.00  0.00    +0.000 A 
ATOM      6  C   UNL     1       5.929   4.641  15.114  0.00  0.00    +0.000 A 
ATOM      7  C   UNL     1       5.432   3.805  16.112  0.00  0.00    +0.000 A 
ATOM      8  C   UNL     1       4.708   4.371  17.166  0.00  0.00    +0.000 A 
ATOM      9  S   UNL     1       4.099   3.376  18.484  0.00  0.00    +0.000 S 
ATOM     10  O   UNL     1       5.020   3.526  19.590  0.00  0.00    +0.000 OA
ATOM     11  O   UNL     1       3.779   2.071  17.941  0.00  0.00    +0.000 OA
ATOM     12  N   UNL     1       2.630   4.169  18.880  0.00  0.00    +0.000 N 
ATOM     13  C   UNL     1       1.477   3.825  18.010  0.00  0.00    +0.000 C 
ENDROOT
BRANCH   1  15
ATOM     14  N   UNL     1       1.845   7.659  19.917  0.00  0.00    +0.000 N 
ATOM     15  C   UNL     1       1.942   6.300  20.115  0.00  0.00    +0.000 C 
ATOM     16  O   UNL     1       1.403   5.707  21.043  0.00  0.00    +0.000 OA
ATOM     17  H   UNL     1       2.244   8.036  19.064  0.00  0.00    +0.000 HD
BRANCH  14  19
ATOM     18  C   UNL     1       1.825   8.898  22.032  0.00  0.00    +0.000 C 
ATOM     19  C   UNL     1       1.039   8.505  20.784  0.00  0.00    +0.000 C 
ATOM     20  C   UNL     1       0.549   9.750  20.054  0.00  0.00    +0.000 C 
ENDBRANCH  14  19
ENDBRANCH   1  15
TORSDOF 2
ENDMDL
MODEL 8
REMARK VINA RESULT:      -7.3      2.754      6.482
REMARK  Name = 
REMARK  5 active torsions:
REMARK  status: ('A' for Active; 'I' for Inactive)
REMARK    1  A    between atoms: C_1  and  C_2
REMARK    2  A    between atoms: C_2  and  C_3
REMARK    3  A    between atoms: C_2  and  N_4
REMARK    4  A    between atoms: C_5  and  C_7
REMARK    5  A    between atoms: N_18  and  C_19
REMARK                            x       y       z     vdW  Elec       q    Type
REMARK                         _______ _______ _______ _____ _____    ______ ____
ROOT
ATOM      1  C   UNL     1       3.073   6.764  18.502  0.00  0.00    +0.000 C 
ATOM      2  C   UNL     1       3.864   7.016  17.444  0.00  0.00    +0.000 C 
ATOM      3  C   UNL     1       4.682   6.018  16.747  0.00  0.00    +0.000 A 
ATOM      4  C   UNL     1       5.168   6.266  15.459  0.00  0.00    +0.000 A 
ATOM      5  C   UNL     1       5.926   5.297  14.792  0.00  0.00    +0.000 A 
ATOM      6  C   UNL     1       6.207   4.075  15.405  0.00  0.00    +0.000 A 
ATOM      7  C   UNL     1       5.745   3.819  16.695  0.00  0.00    +0.000 A 
ATOM      8  C   UNL     1       5.008   4.807  17.355  0.00  0.00    +0.000 A 
ATOM      9  S   UNL     1       4.443   4.566  19.004  0.00  0.00    +0.000 S 
ATOM     10  O   UNL     1       5.364   5.262  19.876  0.00  0.00    +0.000 OA
ATOM     11  O   UNL     1       4.166   3.153  19.174  0.00  0.00    +0.000 OA
ATOM     12  N   UNL     1       2.948   5.409  18.996  0.00  0.00    +0.000 N 
ATOM     13  C   UNL     1       1.804   4.652  18.431  0.00  0.00    +0.000 C 
ENDROOT
BRANCH   1  15
ATOM     14  N   UNL     1       1.879   7.714  20.383  0.00  0.00    +0.000 N 
ATOM     15  C   UNL     1       2.193   7.852  19.050  0.00  0.00    +0.000 C 
ATOM     16  O   UNL     1       1.776   8.764  18.343  0.00  0.00    +0.000 OA
ATOM     17  H   UNL     1       2.357   6.984  20.901  0.00  0.00    +0.000 HD
BRANCH  14  19
ATOM     18  C   UNL     1      -0.337   8.110  21.353  0.00  0.00    +0.000 C 
ATOM     19  C   UNL     1       1.051   8.685  21.081  0.00  0.00    +0.000 C 
ATOM     20  C   UNL     1       1.699   9.141  22.383  0.00  0.00    +0.000 C 
ENDBRANCH  14  19
ENDBRANCH   1  15
TORSDOF 2
ENDMDL
MODEL 9
REMARK VINA RESULT:      -7.2      2.235      5.912
REMARK  Name = 
REMARK  5 active torsions:
REMARK  status: ('A' for Active; 'I' for Inactive)
REMARK    1  A    between atoms: C_1  and  C_2
REMARK    2  A    between atoms: C_2  and  C_3
REMARK    3  A    between atoms: C_2  and  N_4
REMARK    4  A    between atoms: C_5  and  C_7
REMARK    5  A    between atoms: N_18  and  C_19
REMARK                            x       y       z     vdW  Elec       q    Type
REMARK                         _______ _______ _______ _____ _____    ______ ____
ROOT
ATOM      1  C   UNL     1       5.259   4.260  17.383  0.00  0.00    +0.000 C 
ATOM      2  C   UNL     1       5.040   3.769  16.150  0.00  0.00    +0.000 C 
ATOM      3  C   UNL     1       5.817   4.115  14.955  0.00  0.00    +0.000 A 
ATOM      4  C   UNL     1       5.779   3.302  13.818  0.00  0.00    +0.000 A 
ATOM      5  C   UNL     1       6.544   3.627  12.691  0.00  0.00    +0.000 A 
ATOM      6  C   UNL     1       7.351   4.766  12.692  0.00  0.00    +0.000 A 
ATOM      7  C   UNL     1       7.387   5.596  13.811  0.00  0.00    +0.000 A 
ATOM      8  C   UNL     1       6.600   5.268  14.918  0.00  0.00    +0.000 A 
ATOM      9  S   UNL     1       6.560   6.304  16.341  0.00  0.00    +0.000 S 
ATOM     10  O   UNL     1       5.359   7.105  16.250  0.00  0.00    +0.000 OA
ATOM     11  O   UNL     1       7.866   6.917  16.477  0.00  0.00    +0.000 OA
ATOM     12  N   UNL     1       6.367   5.163  17.607  0.00  0.00    +0.000 N 
ATOM     13  C   UNL     1       7.619   4.501  18.052  0.00  0.00    +0.000 C 
ENDROOT
BRANCH   1  15
ATOM     14  N   UNL     1       3.103   3.864  18.412  0.00  0.00    +0.000 N 
ATOM     15  C   UNL     1       4.466   3.731  18.546  0.00  0.00    +0.000 C 
ATOM     16  O   UNL     1       5.010   3.251  19.535  0.00  0.00    +0.000 OA
ATOM     17  H   UNL     1       2.751   4.180  17.514  0.00  0.00    +0.000 HD
BRANCH  14  19
ATOM     18  C   UNL     1       1.645   4.562  20.255  0.00  0.00    +0.000 C 
ATOM     19  C   UNL     1       2.182   3.391  19.434  0.00  0.00    +0.000 C 
ATOM     20  C   UNL     1       1.030   2.599  18.828  0.00  0.00    +0.000 C 
ENDBRANCH  14  19
ENDBRANCH   1  15
TORSDOF 2
ENDMDL
