MODEL 1
REMARK VINA RESULT:      -7.9      0.000      0.000
REMARK  Name = 
REMARK  5 active torsions:
REMARK  status: ('A' for Active; 'I' for Inactive)
REMARK    1  A    between atoms: C_1  and  C_2
REMARK    2  A    between atoms: C_6  and  C_8
REMARK    3  A    between atoms: C_8  and  C_9
REMARK    4  A    between atoms: C_8  and  O_10
REMARK    5  A    between atoms: O_10  and  C_11
REMARK                            x       y       z     vdW  Elec       q    Type
REMARK                         _______ _______ _______ _____ _____    ______ ____
ROOT
ATOM      1  C   UNL     1       6.765   5.062  19.070  0.00  0.00    +0.000 C 
ATOM      2  C   UNL     1       7.824   5.759  19.927  0.00  0.00    +0.000 C 
ENDROOT
BRANCH   1   8
ATOM      3  C   UNL     1       6.524   3.543  11.790  0.00  0.00    +0.000 C 
ATOM      4  C   UNL     1       6.655   4.007  13.181  0.00  0.00    +0.000 A 
ATOM      5  C   UNL     1       6.229   3.554  14.407  0.00  0.00    +0.000 A 
ATOM      6  C   UNL     1       6.722   4.508  15.336  0.00  0.00    +0.000 A 
ATOM      7  N   UNL     1       6.527   4.446  16.705  0.00  0.00    +0.000 N 
ATOM      8  C   UNL     1       7.083   5.360  17.590  0.00  0.00    +0.000 C 
ATOM      9  O   UNL     1       7.781   6.319  17.279  0.00  0.00    +0.000 OA
ATOM     10  N   UNL     1       7.409   5.459  14.693  0.00  0.00    +0.000 NA
ATOM     11  O   UNL     1       7.359   5.153  13.355  0.00  0.00    +0.000 OA
ATOM     12  H   UNL     1       5.952   3.695  17.055  0.00  0.00    +0.000 HD
ENDBRANCH   1   8
BRANCH   1  13
ATOM     13  O   UNL     1       5.455   5.592  19.290  0.00  0.00    +0.000 OA
BRANCH  13  14
ATOM     14  C   UNL     1       4.353   4.791  19.174  0.00  0.00    +0.000 A 
ATOM     15  C   UNL     1       4.271   3.479  19.643  0.00  0.00    +0.000 A 
ATOM     16  C   UNL     1       3.083   2.749  19.514  0.00  0.00    +0.000 A 
ATOM     17  C   UNL     1       1.975   3.321  18.895  0.00  0.00    +0.000 A 
ATOM     18 CL   UNL     1       0.531   2.406  18.718  0.00  0.00    +0.000 Cl
ATOM     19  C   UNL     1       2.035   4.625  18.417  0.00  0.00    +0.000 A 
ATOM     20  C   UNL     1       3.216   5.357  18.565  0.00  0.00    +0.000 A 
ATOM     21 CL   UNL     1       3.243   6.973  17.947  0.00  0.00    +0.000 Cl
ENDBRANCH  13  14
ENDBRANCH   1  13
TORSDOF 3
ENDMDL
MODEL 2
REMARK VINA RESULT:      -7.4      1.148      1.166
REMARK  Name = 
REMARK  5 active torsions:
REMARK  status: ('A' for Active; 'I' for Inactive)
REMARK    1  A    between atoms: C_1  and  C_2
REMARK    2  A    between atoms: C_6  and  C_8
REMARK    3  A    between atoms: C_8  and  C_9
REMARK    4  A    between atoms: C_8  and  O_10
REMARK    5  A    between atoms: O_10  and  C_11
REMARK                            x       y       z     vdW  Elec       q    Type
REMARK                         _______ _______ _______ _____ _____    ______ ____
ROOT
ATOM      1  C   UNL     1       6.576   5.069  18.481  0.00  0.00    +0.000 C 
ATOM      2  C   UNL     1       7.469   5.903  19.401  0.00  0.00    +0.000 C 
ENDROOT
BRANCH   1   8
ATOM      3  C   UNL     1       6.773   3.548  11.199  0.00  0.00    +0.000 C 
ATOM      4  C   UNL     1       6.824   4.010  12.596  0.00  0.00    +0.000 A 
ATOM      5  C   UNL     1       6.310   3.567  13.792  0.00  0.00    +0.000 A 
ATOM      6  C   UNL     1       6.762   4.512  14.751  0.00  0.00    +0.000 A 
ATOM      7  N   UNL     1       6.478   4.456  16.105  0.00  0.00    +0.000 N 
ATOM      8  C   UNL     1       6.995   5.359  17.024  0.00  0.00    +0.000 C 
ATOM      9  O   UNL     1       7.731   6.302  16.759  0.00  0.00    +0.000 OA
ATOM     10  N   UNL     1       7.509   5.448  14.154  0.00  0.00    +0.000 NA
ATOM     11  O   UNL     1       7.540   5.141  12.816  0.00  0.00    +0.000 OA
ATOM     12  H   UNL     1       5.866   3.717  16.417  0.00  0.00    +0.000 HD
ENDBRANCH   1   8
BRANCH   1  13
ATOM     13  O   UNL     1       5.201   5.455  18.563  0.00  0.00    +0.000 OA
BRANCH  13  14
ATOM     14  C   UNL     1       4.311   4.708  19.285  0.00  0.00    +0.000 A 
ATOM     15  C   UNL     1       4.491   3.366  19.623  0.00  0.00    +0.000 A 
ATOM     16  C   UNL     1       3.541   2.694  20.401  0.00  0.00    +0.000 A 
ATOM     17  C   UNL     1       2.394   3.356  20.830  0.00  0.00    +0.000 A 
ATOM     18 CL   UNL     1       1.222   2.513  21.762  0.00  0.00    +0.000 Cl
ATOM     19  C   UNL     1       2.193   4.692  20.502  0.00  0.00    +0.000 A 
ATOM     20  C   UNL     1       3.152   5.364  19.741  0.00  0.00    +0.000 A 
ATOM     21 CL   UNL     1       2.852   7.024  19.354  0.00  0.00    +0.000 Cl
ENDBRANCH  13  14
ENDBRANCH   1  13
TORSDOF 3
ENDMDL
MODEL 3
REMARK VINA RESULT:      -7.4      1.997      3.215
REMARK  Name = 
REMARK  5 active torsions:
REMARK  status: ('A' for Active; 'I' for Inactive)
REMARK    1  A    between atoms: C_1  and  C_2
REMARK    2  A    between atoms: C_6  and  C_8
REMARK    3  A    between atoms: C_8  and  C_9
REMARK    4  A    between atoms: C_8  and  O_10
REMARK    5  A    between atoms: O_10  and  C_11
REMARK                            x       y       z     vdW  Elec       q    Type
REMARK                         _______ _______ _______ _____ _____    ______ ____
ROOT
ATOM      1  C   UNL     1       4.056   2.765  18.594  0.00  0.00    +0.000 C 
ATOM      2  C   UNL     1       4.359   2.719  20.092  0.00  0.00    +0.000 C 
ENDROOT
BRANCH   1   8
ATOM      3  C   UNL     1       7.791   5.217  12.643  0.00  0.00    +0.000 C 
ATOM      4  C   UNL     1       7.164   4.846  13.923  0.00  0.00    +0.000 A 
ATOM      5  C   UNL     1       6.081   4.086  14.297  0.00  0.00    +0.000 A 
ATOM      6  C   UNL     1       6.060   4.161  15.715  0.00  0.00    +0.000 A 
ATOM      7  N   UNL     1       5.126   3.535  16.522  0.00  0.00    +0.000 N 
ATOM      8  C   UNL     1       5.177   3.574  17.909  0.00  0.00    +0.000 C 
ATOM      9  O   UNL     1       6.021   4.166  18.574  0.00  0.00    +0.000 OA
ATOM     10  N   UNL     1       7.080   4.912  16.147  0.00  0.00    +0.000 NA
ATOM     11  O   UNL     1       7.759   5.343  15.035  0.00  0.00    +0.000 OA
ATOM     12  H   UNL     1       4.382   3.033  16.061  0.00  0.00    +0.000 HD
ENDBRANCH   1   8
BRANCH   1  13
ATOM     13  O   UNL     1       2.848   3.474  18.307  0.00  0.00    +0.000 OA
BRANCH  13  14
ATOM     14  C   UNL     1       2.566   4.653  18.941  0.00  0.00    +0.000 A 
ATOM     15  C   UNL     1       3.068   5.899  18.563  0.00  0.00    +0.000 A 
ATOM     16  C   UNL     1       2.689   7.058  19.250  0.00  0.00    +0.000 A 
ATOM     17  C   UNL     1       1.821   6.975  20.335  0.00  0.00    +0.000 A 
ATOM     18 CL   UNL     1       1.385   8.402  21.189  0.00  0.00    +0.000 Cl
ATOM     19  C   UNL     1       1.312   5.744  20.732  0.00  0.00    +0.000 A 
ATOM     20  C   UNL     1       1.677   4.592  20.032  0.00  0.00    +0.000 A 
ATOM     21 CL   UNL     1       1.021   3.083  20.569  0.00  0.00    +0.000 Cl
ENDBRANCH  13  14
ENDBRANCH   1  13
TORSDOF 3
ENDMDL
MODEL 4
REMARK VINA RESULT:      -7.4      5.005      7.981
REMARK  Name = 
REMARK  5 active torsions:
REMARK  status: ('A' for Active; 'I' for Inactive)
REMARK    1  A    between atoms: C_1  and  C_2
REMARK    2  A    between atoms: C_6  and  C_8
REMARK    3  A    between atoms: C_8  and  C_9
REMARK    4  A    between atoms: C_8  and  O_10
REMARK    5  A    between atoms: O_10  and  C_11
REMARK                            x       y       z     vdW  Elec       q    Type
REMARK                         _______ _______ _______ _____ _____    ______ ____
ROOT
ATOM      1  C   UNL     1       2.712   6.149  19.740  0.00  0.00    +0.000 C 
ATOM      2  C   UNL     1       2.020   5.219  20.738  0.00  0.00    +0.000 C 
ENDROOT
BRANCH   1   8
ATOM      3  C   UNL     1      -1.387  11.322  23.177  0.00  0.00    +0.000 C 
ATOM      4  C   UNL     1      -0.549  10.428  22.361  0.00  0.00    +0.000 A 
ATOM      5  C   UNL     1      -0.010   9.175  22.525  0.00  0.00    +0.000 A 
ATOM      6  C   UNL     1       0.700   8.926  21.320  0.00  0.00    +0.000 A 
ATOM      7  N   UNL     1       1.404   7.766  21.046  0.00  0.00    +0.000 N 
ATOM      8  C   UNL     1       2.028   7.530  19.829  0.00  0.00    +0.000 C 
ATOM      9  O   UNL     1       2.050   8.303  18.878  0.00  0.00    +0.000 OA
ATOM     10  N   UNL     1       0.573   9.970  20.493  0.00  0.00    +0.000 NA
ATOM     11  O   UNL     1      -0.194  10.905  21.142  0.00  0.00    +0.000 OA
ATOM     12  H   UNL     1       1.453   7.074  21.778  0.00  0.00    +0.000 HD
ENDBRANCH   1   8
BRANCH   1  13
ATOM     13  O   UNL     1       2.532   5.724  18.387  0.00  0.00    +0.000 OA
BRANCH  13  14
ATOM     14  C   UNL     1       3.610   5.542  17.566  0.00  0.00    +0.000 A 
ATOM     15  C   UNL     1       4.489   6.553  17.174  0.00  0.00    +0.000 A 
ATOM     16  C   UNL     1       5.591   6.263  16.361  0.00  0.00    +0.000 A 
ATOM     17  C   UNL     1       5.811   4.961  15.920  0.00  0.00    +0.000 A 
ATOM     18 CL   UNL     1       7.152   4.623  14.900  0.00  0.00    +0.000 Cl
ATOM     19  C   UNL     1       4.947   3.939  16.295  0.00  0.00    +0.000 A 
ATOM     20  C   UNL     1       3.858   4.229  17.122  0.00  0.00    +0.000 A 
ATOM     21 CL   UNL     1       2.809   2.924  17.556  0.00  0.00    +0.000 Cl
ENDBRANCH  13  14
ENDBRANCH   1  13
TORSDOF 3
ENDMDL
MODEL 5
REMARK VINA RESULT:      -7.3      3.092      6.121
REMARK  Name = 
REMARK  5 active torsions:
REMARK  status: ('A' for Active; 'I' for Inactive)
REMARK    1  A    between atoms: C_1  and  C_2
REMARK    2  A    between atoms: C_6  and  C_8
REMARK    3  A    between atoms: C_8  and  C_9
REMARK    4  A    between atoms: C_8  and  O_10
REMARK    5  A    between atoms: O_10  and  C_11
REMARK                            x       y       z     vdW  Elec       q    Type
REMARK                         _______ _______ _______ _____ _____    ______ ____
ROOT
ATOM      1  C   UNL     1       6.763   6.284  16.723  0.00  0.00    +0.000 C 
ATOM      2  C   UNL     1       7.571   7.336  17.485  0.00  0.00    +0.000 C 
ENDROOT
BRANCH   1   8
ATOM      3  C   UNL     1       1.985   2.690  21.154  0.00  0.00    +0.000 C 
ATOM      4  C   UNL     1       3.054   3.264  20.319  0.00  0.00    +0.000 A 
ATOM      5  C   UNL     1       3.148   4.311  19.434  0.00  0.00    +0.000 A 
ATOM      6  C   UNL     1       4.496   4.288  18.988  0.00  0.00    +0.000 A 
ATOM      7  N   UNL     1       5.039   5.179  18.078  0.00  0.00    +0.000 N 
ATOM      8  C   UNL     1       6.380   5.169  17.718  0.00  0.00    +0.000 C 
ATOM      9  O   UNL     1       7.223   4.382  18.134  0.00  0.00    +0.000 OA
ATOM     10  N   UNL     1       5.158   3.292  19.588  0.00  0.00    +0.000 NA
ATOM     11  O   UNL     1       4.261   2.651  20.406  0.00  0.00    +0.000 OA
ATOM     12  H   UNL     1       4.415   5.857  17.669  0.00  0.00    +0.000 HD
ENDBRANCH   1   8
BRANCH   1  13
ATOM     13  O   UNL     1       7.535   5.637  15.708  0.00  0.00    +0.000 OA
BRANCH  13  14
ATOM     14  C   UNL     1       6.922   4.900  14.732  0.00  0.00    +0.000 A 
ATOM     15  C   UNL     1       5.771   4.134  14.920  0.00  0.00    +0.000 A 
ATOM     16  C   UNL     1       5.192   3.444  13.848  0.00  0.00    +0.000 A 
ATOM     17  C   UNL     1       5.773   3.501  12.585  0.00  0.00    +0.000 A 
ATOM     18 CL   UNL     1       5.068   2.627  11.283  0.00  0.00    +0.000 Cl
ATOM     19  C   UNL     1       6.922   4.255  12.375  0.00  0.00    +0.000 A 
ATOM     20  C   UNL     1       7.486   4.957  13.443  0.00  0.00    +0.000 A 
ATOM     21 CL   UNL     1       8.920   5.876  13.132  0.00  0.00    +0.000 Cl
ENDBRANCH  13  14
ENDBRANCH   1  13
TORSDOF 3
ENDMDL
MODEL 6
REMARK VINA RESULT:      -7.3      2.038      2.559
REMARK  Name = 
REMARK  5 active torsions:
REMARK  status: ('A' for Active; 'I' for Inactive)
REMARK    1  A    between atoms: C_1  and  C_2
REMARK    2  A    between atoms: C_6  and  C_8
REMARK    3  A    between atoms: C_8  and  C_9
REMARK    4  A    between atoms: C_8  and  O_10
REMARK    5  A    between atoms: O_10  and  C_11
REMARK                            x       y       z     vdW  Elec       q    Type
REMARK                         _______ _______ _______ _____ _____    ______ ____
ROOT
ATOM      1  C   UNL     1       3.956   6.620  18.078  0.00  0.00    +0.000 C 
ATOM      2  C   UNL     1       3.258   7.923  17.684  0.00  0.00    +0.000 C 
ENDROOT
BRANCH   1   8
ATOM      3  C   UNL     1       7.233   3.559  12.139  0.00  0.00    +0.000 C 
ATOM      4  C   UNL     1       6.742   4.270  13.332  0.00  0.00    +0.000 A 
ATOM      5  C   UNL     1       5.554   4.317  14.022  0.00  0.00    +0.000 A 
ATOM      6  C   UNL     1       5.791   5.223  15.089  0.00  0.00    +0.000 A 
ATOM      7  N   UNL     1       4.855   5.574  16.047  0.00  0.00    +0.000 N 
ATOM      8  C   UNL     1       5.144   6.411  17.117  0.00  0.00    +0.000 C 
ATOM      9  O   UNL     1       6.227   6.944  17.331  0.00  0.00    +0.000 OA
ATOM     10  N   UNL     1       7.051   5.672  15.035  0.00  0.00    +0.000 NA
ATOM     11  O   UNL     1       7.638   5.087  13.940  0.00  0.00    +0.000 OA
ATOM     12  H   UNL     1       3.927   5.193  15.945  0.00  0.00    +0.000 HD
ENDBRANCH   1   8
BRANCH   1  13
ATOM     13  O   UNL     1       3.116   5.478  17.896  0.00  0.00    +0.000 OA
BRANCH  13  14
ATOM     14  C   UNL     1       2.675   4.761  18.974  0.00  0.00    +0.000 A 
ATOM     15  C   UNL     1       2.490   5.284  20.255  0.00  0.00    +0.000 A 
ATOM     16  C   UNL     1       1.995   4.479  21.288  0.00  0.00    +0.000 A 
ATOM     17  C   UNL     1       1.699   3.140  21.051  0.00  0.00    +0.000 A 
ATOM     18 CL   UNL     1       1.117   2.156  22.334  0.00  0.00    +0.000 Cl
ATOM     19  C   UNL     1       1.878   2.597  19.783  0.00  0.00    +0.000 A 
ATOM     20  C   UNL     1       2.355   3.408  18.750  0.00  0.00    +0.000 A 
ATOM     21 CL   UNL     1       2.567   2.683  17.193  0.00  0.00    +0.000 Cl
ENDBRANCH  13  14
ENDBRANCH   1  13
TORSDOF 3
ENDMDL
MODEL 7
REMARK VINA RESULT:      -7.1      2.509      4.317
REMARK  Name = 
REMARK  5 active torsions:
REMARK  status: ('A' for Active; 'I' for Inactive)
REMARK    1  A    between atoms: C_1  and  C_2
REMARK    2  A    between atoms: C_6  and  C_8
REMARK    3  A    between atoms: C_8  and  C_9
REMARK    4  A    between atoms: C_8  and  O_10
REMARK    5  A    between atoms: O_10  and  C_11
REMARK                            x       y       z     vdW  Elec       q    Type
REMARK                         _______ _______ _______ _____ _____    ______ ____
ROOT
ATOM      1  C   UNL     1       5.459   4.610  15.611  0.00  0.00    +0.000 C 
ATOM      2  C   UNL     1       6.560   4.077  14.692  0.00  0.00    +0.000 C 
ENDROOT
BRANCH   1   8
ATOM      3  C   UNL     1       9.276   9.850  19.265  0.00  0.00    +0.000 C 
ATOM      4  C   UNL     1       8.440   8.956  18.446  0.00  0.00    +0.000 A 
ATOM      5  C   UNL     1       8.337   7.596  18.279  0.00  0.00    +0.000 A 
ATOM      6  C   UNL     1       7.305   7.427  17.318  0.00  0.00    +0.000 A 
ATOM      7  N   UNL     1       6.861   6.203  16.847  0.00  0.00    +0.000 N 
ATOM      8  C   UNL     1       5.801   6.074  15.958  0.00  0.00    +0.000 C 
ATOM      9  O   UNL     1       5.156   7.000  15.480  0.00  0.00    +0.000 OA
ATOM     10  N   UNL     1       6.821   8.620  16.953  0.00  0.00    +0.000 NA
ATOM     11  O   UNL     1       7.532   9.569  17.646  0.00  0.00    +0.000 OA
ATOM     12  H   UNL     1       7.343   5.381  17.175  0.00  0.00    +0.000 HD
ENDBRANCH   1   8
BRANCH   1  13
ATOM     13  O   UNL     1       5.418   3.923  16.864  0.00  0.00    +0.000 OA
BRANCH  13  14
ATOM     14  C   UNL     1       4.271   3.901  17.607  0.00  0.00    +0.000 A 
ATOM     15  C   UNL     1       3.043   3.410  17.160  0.00  0.00    +0.000 A 
ATOM     16  C   UNL     1       1.931   3.392  18.009  0.00  0.00    +0.000 A 
ATOM     17  C   UNL     1       2.035   3.882  19.308  0.00  0.00    +0.000 A 
ATOM     18 CL   UNL     1       0.655   3.879  20.332  0.00  0.00    +0.000 Cl
ATOM     19  C   UNL     1       3.246   4.379  19.774  0.00  0.00    +0.000 A 
ATOM     20  C   UNL     1       4.359   4.378  18.929  0.00  0.00    +0.000 A 
ATOM     21 CL   UNL     1       5.843   5.012  19.555  0.00  0.00    +0.000 Cl
ENDBRANCH  13  14
ENDBRANCH   1  13
TORSDOF 3
ENDMDL
MODEL 8
REMARK VINA RESULT:      -7.1      1.558      1.614
REMARK  Name = 
REMARK  5 active torsions:
REMARK  status: ('A' for Active; 'I' for Inactive)
REMARK    1  A    between atoms: C_1  and  C_2
REMARK    2  A    between atoms: C_6  and  C_8
REMARK    3  A    between atoms: C_8  and  C_9
REMARK    4  A    between atoms: C_8  and  O_10
REMARK    5  A    between atoms: O_10  and  C_11
REMARK                            x       y       z     vdW  Elec       q    Type
REMARK                         _______ _______ _______ _____ _____    ______ ____
ROOT
ATOM      1  C   UNL     1       6.614   4.963  18.176  0.00  0.00    +0.000 C 
ATOM      2  C   UNL     1       7.514   6.147  18.534  0.00  0.00    +0.000 C 
ENDROOT
BRANCH   1   8
ATOM      3  C   UNL     1       4.528   3.236  11.245  0.00  0.00    +0.000 C 
ATOM      4  C   UNL     1       5.119   3.574  12.550  0.00  0.00    +0.000 A 
ATOM      5  C   UNL     1       4.626   3.932  13.783  0.00  0.00    +0.000 A 
ATOM      6  C   UNL     1       5.778   4.114  14.593  0.00  0.00    +0.000 A 
ATOM      7  N   UNL     1       5.752   4.482  15.928  0.00  0.00    +0.000 N 
ATOM      8  C   UNL     1       6.896   4.582  16.708  0.00  0.00    +0.000 C 
ATOM      9  O   UNL     1       8.042   4.381  16.320  0.00  0.00    +0.000 OA
ATOM     10  N   UNL     1       6.882   3.864  13.880  0.00  0.00    +0.000 NA
ATOM     11  O   UNL     1       6.473   3.538  12.610  0.00  0.00    +0.000 OA
ATOM     12  H   UNL     1       4.850   4.681  16.332  0.00  0.00    +0.000 HD
ENDBRANCH   1   8
BRANCH   1  13
ATOM     13  O   UNL     1       5.226   5.303  18.219  0.00  0.00    +0.000 OA
BRANCH  13  14
ATOM     14  C   UNL     1       4.363   4.605  19.017  0.00  0.00    +0.000 A 
ATOM     15  C   UNL     1       4.519   3.264  19.374  0.00  0.00    +0.000 A 
ATOM     16  C   UNL     1       3.603   2.644  20.232  0.00  0.00    +0.000 A 
ATOM     17  C   UNL     1       2.512   3.357  20.722  0.00  0.00    +0.000 A 
ATOM     18 CL   UNL     1       1.379   2.577  21.752  0.00  0.00    +0.000 Cl
ATOM     19  C   UNL     1       2.335   4.691  20.377  0.00  0.00    +0.000 A 
ATOM     20  C   UNL     1       3.262   5.312  19.536  0.00  0.00    +0.000 A 
ATOM     21 CL   UNL     1       2.993   6.973  19.131  0.00  0.00    +0.000 Cl
ENDBRANCH  13  14
ENDBRANCH   1  13
TORSDOF 3
ENDMDL
MODEL 9
REMARK VINA RESULT:      -7.0      2.071      2.473
REMARK  Name = 
REMARK  5 active torsions:
REMARK  status: ('A' for Active; 'I' for Inactive)
REMARK    1  A    between atoms: C_1  and  C_2
REMARK    2  A    between atoms: C_6  and  C_8
REMARK    3  A    between atoms: C_8  and  C_9
REMARK    4  A    between atoms: C_8  and  O_10
REMARK    5  A    between atoms: O_10  and  C_11
REMARK                            x       y       z     vdW  Elec       q    Type
REMARK                         _______ _______ _______ _____ _____    ______ ____
ROOT
ATOM      1  C   UNL     1       4.308   6.229  17.651  0.00  0.00    +0.000 C 
ATOM      2  C   UNL     1       3.568   7.559  17.502  0.00  0.00    +0.000 C 
ENDROOT
BRANCH   1   8
ATOM      3  C   UNL     1       7.181   3.085  11.548  0.00  0.00    +0.000 C 
ATOM      4  C   UNL     1       6.743   3.843  12.733  0.00  0.00    +0.000 A 
ATOM      5  C   UNL     1       5.704   3.745  13.627  0.00  0.00    +0.000 A 
ATOM      6  C   UNL     1       5.900   4.823  14.529  0.00  0.00    +0.000 A 
ATOM      7  N   UNL     1       5.078   5.108  15.606  0.00  0.00    +0.000 N 
ATOM      8  C   UNL     1       5.340   6.131  16.508  0.00  0.00    +0.000 C 
ATOM      9  O   UNL     1       6.295   6.899  16.456  0.00  0.00    +0.000 OA
ATOM     10  N   UNL     1       6.999   5.508  14.190  0.00  0.00    +0.000 NA
ATOM     11  O   UNL     1       7.517   4.904  13.071  0.00  0.00    +0.000 OA
ATOM     12  H   UNL     1       4.256   4.536  15.722  0.00  0.00    +0.000 HD
ENDBRANCH   1   8
BRANCH   1  13
ATOM     13  O   UNL     1       3.443   5.104  17.477  0.00  0.00    +0.000 OA
BRANCH  13  14
ATOM     14  C   UNL     1       2.857   4.504  18.558  0.00  0.00    +0.000 A 
ATOM     15  C   UNL     1       1.489   4.527  18.835  0.00  0.00    +0.000 A 
ATOM     16  C   UNL     1       0.976   3.847  19.946  0.00  0.00    +0.000 A 
ATOM     17  C   UNL     1       1.831   3.155  20.798  0.00  0.00    +0.000 A 
ATOM     18 CL   UNL     1       1.193   2.348  22.175  0.00  0.00    +0.000 Cl
ATOM     19  C   UNL     1       3.198   3.122  20.544  0.00  0.00    +0.000 A 
ATOM     20  C   UNL     1       3.704   3.785  19.424  0.00  0.00    +0.000 A 
ATOM     21 CL   UNL     1       5.412   3.719  19.154  0.00  0.00    +0.000 Cl
ENDBRANCH  13  14
ENDBRANCH   1  13
TORSDOF 3
ENDMDL
