MODEL 1
REMARK VINA RESULT:      -7.1      0.000      0.000
REMARK  Name = 
REMARK  9 active torsions:
REMARK  status: ('A' for Active; 'I' for Inactive)
REMARK    1  A    between atoms: C_1  and  C_2
REMARK    2  A    between atoms: N_7  and  C_8
REMARK    3  A    between atoms: C_8  and  C_9
REMARK    4  A    between atoms: C_9  and  N_10
REMARK    5  A    between atoms: N_10  and  C_11
REMARK    6  A    between atoms: N_10  and  C_18
REMARK    7  A    between atoms: C_11  and  C_12
REMARK    8  A    between atoms: C_18  and  C_19
REMARK    9  A    between atoms: C_19  and  O_20
REMARK                            x       y       z     vdW  Elec       q    Type
REMARK                         _______ _______ _______ _____ _____    ______ ____
ROOT
ATOM      1  N   UNL     1       3.236   6.432  18.208  0.00  0.00    +0.000 NA
ENDROOT
BRANCH   1   2
ATOM      2  C   UNL     1       2.360   7.620  18.371  0.00  0.00    +0.000 C 
BRANCH   2   3
ATOM      3  C   UNL     1       1.879   7.949  19.811  0.00  0.00    +0.000 C 
BRANCH   3  10
ATOM      4  C   UNL     1       0.857   9.182  22.437  0.00  0.00    +0.000 C 
ATOM      5  C   UNL     1       0.265   9.335  21.030  0.00  0.00    +0.000 C 
ATOM      6  C   UNL     1      -0.588  10.630  21.027  0.00  0.00    +0.000 C 
ATOM      7  O   UNL     1      -1.115  10.924  19.731  0.00  0.00    +0.000 OA
ATOM      8  C   UNL     1      -0.032  11.107  18.821  0.00  0.00    +0.000 C 
ATOM      9  C   UNL     1       0.788   9.821  18.698  0.00  0.00    +0.000 C 
ATOM     10  N   UNL     1       1.333   9.327  19.988  0.00  0.00    +0.000 NA
ENDBRANCH   3  10
ENDBRANCH   2   3
ENDBRANCH   1   2
BRANCH   1  11
ATOM     11  C   UNL     1       2.426   5.214  17.935  0.00  0.00    +0.000 C 
BRANCH  11  12
ATOM     12  C   UNL     1       2.389   4.243  19.098  0.00  0.00    +0.000 A 
ATOM     13  C   UNL     1       1.284   4.226  19.962  0.00  0.00    +0.000 A 
ATOM     14  C   UNL     1       1.309   3.452  21.121  0.00  0.00    +0.000 A 
ATOM     15  C   UNL     1       2.432   2.683  21.422  0.00  0.00    +0.000 A 
ATOM     16  C   UNL     1       3.514   2.652  20.544  0.00  0.00    +0.000 A 
ATOM     17  C   UNL     1       3.490   3.419  19.379  0.00  0.00    +0.000 A 
ENDBRANCH  11  12
ENDBRANCH   1  11
BRANCH   1  18
ATOM     18  C   UNL     1       4.214   6.650  17.098  0.00  0.00    +0.000 C 
BRANCH  18  19
ATOM     19  C   UNL     1       5.724   6.308  17.320  0.00  0.00    +0.000 C 
ATOM     20  C   UNL     1       6.072   5.045  16.508  0.00  0.00    +0.000 C 
ATOM     21  C   UNL     1       7.481   4.563  16.824  0.00  0.00    +0.000 C 
ATOM     22  O   UNL     1       7.604   4.301  18.220  0.00  0.00    +0.000 OA
ATOM     23  C   UNL     1       7.439   5.493  18.991  0.00  0.00    +0.000 C 
ATOM     24  C   UNL     1       6.042   6.078  18.804  0.00  0.00    +0.000 C 
BRANCH  19  25
ATOM     25  O   UNL     1       6.573   7.352  16.819  0.00  0.00    +0.000 OA
ATOM     26  H   UNL     1       7.340   6.933  16.393  0.00  0.00    +0.000 HD
ENDBRANCH  19  25
ENDBRANCH  18  19
ENDBRANCH   1  18
TORSDOF 8
ENDMDL
MODEL 2
REMARK VINA RESULT:      -7.0      1.864      4.272
REMARK  Name = 
REMARK  9 active torsions:
REMARK  status: ('A' for Active; 'I' for Inactive)
REMARK    1  A    between atoms: C_1  and  C_2
REMARK    2  A    between atoms: N_7  and  C_8
REMARK    3  A    between atoms: C_8  and  C_9
REMARK    4  A    between atoms: C_9  and  N_10
REMARK    5  A    between atoms: N_10  and  C_11
REMARK    6  A    between atoms: N_10  and  C_18
REMARK    7  A    between atoms: C_11  and  C_12
REMARK    8  A    between atoms: C_18  and  C_19
REMARK    9  A    between atoms: C_19  and  O_20
REMARK                            x       y       z     vdW  Elec       q    Type
REMARK                         _______ _______ _______ _____ _____    ______ ____
ROOT
ATOM      1  N   UNL     1       3.023   6.735  18.072  0.00  0.00    +0.000 NA
ENDROOT
BRANCH   1   2
ATOM      2  C   UNL     1       2.081   7.864  18.279  0.00  0.00    +0.000 C 
BRANCH   2   3
ATOM      3  C   UNL     1       1.701   8.207  19.746  0.00  0.00    +0.000 C 
BRANCH   3  10
ATOM      4  C   UNL     1       0.532   9.346  22.352  0.00  0.00    +0.000 C 
ATOM      5  C   UNL     1       0.039   9.575  20.918  0.00  0.00    +0.000 C 
ATOM      6  C   UNL     1      -0.784  10.890  20.917  0.00  0.00    +0.000 C 
ATOM      7  O   UNL     1      -1.216  11.253  19.604  0.00  0.00    +0.000 OA
ATOM      8  C   UNL     1      -0.071  11.451  18.777  0.00  0.00    +0.000 C 
ATOM      9  C   UNL     1       0.728  10.152  18.649  0.00  0.00    +0.000 C 
ATOM     10  N   UNL     1       1.175   9.588  19.949  0.00  0.00    +0.000 NA
ENDBRANCH   3  10
ENDBRANCH   2   3
ENDBRANCH   1   2
BRANCH   1  11
ATOM     11  C   UNL     1       4.310   7.220  17.506  0.00  0.00    +0.000 C 
BRANCH  11  12
ATOM     12  C   UNL     1       5.232   6.102  17.063  0.00  0.00    +0.000 A 
ATOM     13  C   UNL     1       6.373   5.794  17.817  0.00  0.00    +0.000 A 
ATOM     14  C   UNL     1       7.308   4.878  17.337  0.00  0.00    +0.000 A 
ATOM     15  C   UNL     1       7.107   4.258  16.105  0.00  0.00    +0.000 A 
ATOM     16  C   UNL     1       5.950   4.517  15.372  0.00  0.00    +0.000 A 
ATOM     17  C   UNL     1       5.008   5.427  15.853  0.00  0.00    +0.000 A 
ENDBRANCH  11  12
ENDBRANCH   1  11
BRANCH   1  18
ATOM     18  C   UNL     1       3.274   6.018  19.361  0.00  0.00    +0.000 C 
BRANCH  18  19
ATOM     19  C   UNL     1       2.813   4.533  19.521  0.00  0.00    +0.000 C 
ATOM     20  C   UNL     1       2.138   4.079  18.212  0.00  0.00    +0.000 C 
ATOM     21  C   UNL     1       1.511   2.700  18.369  0.00  0.00    +0.000 C 
ATOM     22  O   UNL     1       0.563   2.715  19.434  0.00  0.00    +0.000 OA
ATOM     23  C   UNL     1       1.192   2.981  20.689  0.00  0.00    +0.000 C 
ATOM     24  C   UNL     1       1.839   4.362  20.696  0.00  0.00    +0.000 C 
BRANCH  19  25
ATOM     25  O   UNL     1       3.935   3.658  19.716  0.00  0.00    +0.000 OA
ATOM     26  H   UNL     1       4.283   3.420  18.840  0.00  0.00    +0.000 HD
ENDBRANCH  19  25
ENDBRANCH  18  19
ENDBRANCH   1  18
TORSDOF 8
ENDMDL
MODEL 3
REMARK VINA RESULT:      -6.9      1.936      3.981
REMARK  Name = 
REMARK  9 active torsions:
REMARK  status: ('A' for Active; 'I' for Inactive)
REMARK    1  A    between atoms: C_1  and  C_2
REMARK    2  A    between atoms: N_7  and  C_8
REMARK    3  A    between atoms: C_8  and  C_9
REMARK    4  A    between atoms: C_9  and  N_10
REMARK    5  A    between atoms: N_10  and  C_11
REMARK    6  A    between atoms: N_10  and  C_18
REMARK    7  A    between atoms: C_11  and  C_12
REMARK    8  A    between atoms: C_18  and  C_19
REMARK    9  A    between atoms: C_19  and  O_20
REMARK                            x       y       z     vdW  Elec       q    Type
REMARK                         _______ _______ _______ _____ _____    ______ ____
ROOT
ATOM      1  N   UNL     1       3.163   6.730  17.944  0.00  0.00    +0.000 NA
ENDROOT
BRANCH   1   2
ATOM      2  C   UNL     1       2.157   7.795  18.181  0.00  0.00    +0.000 C 
BRANCH   2   3
ATOM      3  C   UNL     1       1.764   8.081  19.657  0.00  0.00    +0.000 C 
BRANCH   3  10
ATOM      4  C   UNL     1       0.886   9.224  22.373  0.00  0.00    +0.000 C 
ATOM      5  C   UNL     1       0.236   9.447  21.001  0.00  0.00    +0.000 C 
ATOM      6  C   UNL     1      -0.586  10.760  21.088  0.00  0.00    +0.000 C 
ATOM      7  O   UNL     1      -1.161  11.118  19.829  0.00  0.00    +0.000 OA
ATOM      8  C   UNL     1      -0.116  11.316  18.881  0.00  0.00    +0.000 C 
ATOM      9  C   UNL     1       0.669  10.020  18.669  0.00  0.00    +0.000 C 
ATOM     10  N   UNL     1       1.258   9.461  19.912  0.00  0.00    +0.000 NA
ENDBRANCH   3  10
ENDBRANCH   2   3
ENDBRANCH   1   2
BRANCH   1  11
ATOM     11  C   UNL     1       4.466   7.317  17.529  0.00  0.00    +0.000 C 
BRANCH  11  12
ATOM     12  C   UNL     1       5.441   6.293  16.985  0.00  0.00    +0.000 A 
ATOM     13  C   UNL     1       5.147   5.605  15.799  0.00  0.00    +0.000 A 
ATOM     14  C   UNL     1       5.958   4.553  15.376  0.00  0.00    +0.000 A 
ATOM     15  C   UNL     1       7.072   4.185  16.128  0.00  0.00    +0.000 A 
ATOM     16  C   UNL     1       7.404   4.897  17.280  0.00  0.00    +0.000 A 
ATOM     17  C   UNL     1       6.599   5.955  17.703  0.00  0.00    +0.000 A 
ENDBRANCH  11  12
ENDBRANCH   1  11
BRANCH   1  18
ATOM     18  C   UNL     1       3.350   5.903  19.177  0.00  0.00    +0.000 C 
BRANCH  18  19
ATOM     19  C   UNL     1       3.014   4.376  19.142  0.00  0.00    +0.000 C 
ATOM     20  C   UNL     1       4.293   3.578  19.459  0.00  0.00    +0.000 C 
ATOM     21  C   UNL     1       4.068   2.085  19.266  0.00  0.00    +0.000 C 
ATOM     22  O   UNL     1       3.645   1.826  17.929  0.00  0.00    +0.000 OA
ATOM     23  C   UNL     1       2.378   2.429  17.657  0.00  0.00    +0.000 C 
ATOM     24  C   UNL     1       2.458   3.948  17.776  0.00  0.00    +0.000 C 
BRANCH  19  25
ATOM     25  O   UNL     1       2.063   4.029  20.160  0.00  0.00    +0.000 OA
ATOM     26  H   UNL     1       1.485   3.334  19.803  0.00  0.00    +0.000 HD
ENDBRANCH  19  25
ENDBRANCH  18  19
ENDBRANCH   1  18
TORSDOF 8
ENDMDL
MODEL 4
REMARK VINA RESULT:      -6.9      1.282      1.614
REMARK  Name = 
REMARK  9 active torsions:
REMARK  status: ('A' for Active; 'I' for Inactive)
REMARK    1  A    between atoms: C_1  and  C_2
REMARK    2  A    between atoms: N_7  and  C_8
REMARK    3  A    between atoms: C_8  and  C_9
REMARK    4  A    between atoms: C_9  and  N_10
REMARK    5  A    between atoms: N_10  and  C_11
REMARK    6  A    between atoms: N_10  and  C_18
REMARK    7  A    between atoms: C_11  and  C_12
REMARK    8  A    between atoms: C_18  and  C_19
REMARK    9  A    between atoms: C_19  and  O_20
REMARK                            x       y       z     vdW  Elec       q    Type
REMARK                         _______ _______ _______ _____ _____    ______ ____
ROOT
ATOM      1  N   UNL     1       2.779   6.942  18.637  0.00  0.00    +0.000 NA
ENDROOT
BRANCH   1   2
ATOM      2  C   UNL     1       2.064   8.220  18.877  0.00  0.00    +0.000 C 
BRANCH   2   3
ATOM      3  C   UNL     1       1.439   8.426  20.285  0.00  0.00    +0.000 C 
BRANCH   3  10
ATOM      4  C   UNL     1       0.278   9.453  22.940  0.00  0.00    +0.000 C 
ATOM      5  C   UNL     1      -0.145   9.834  21.516  0.00  0.00    +0.000 C 
ATOM      6  C   UNL     1      -0.857  11.210  21.599  0.00  0.00    +0.000 C 
ATOM      7  O   UNL     1      -1.212  11.710  20.308  0.00  0.00    +0.000 OA
ATOM      8  C   UNL     1      -0.027  11.874  19.532  0.00  0.00    +0.000 C 
ATOM      9  C   UNL     1       0.667  10.527  19.322  0.00  0.00    +0.000 C 
ATOM     10  N   UNL     1       1.021   9.827  20.583  0.00  0.00    +0.000 NA
ENDBRANCH   3  10
ENDBRANCH   2   3
ENDBRANCH   1   2
BRANCH   1  11
ATOM     11  C   UNL     1       1.825   5.868  18.248  0.00  0.00    +0.000 C 
BRANCH  11  12
ATOM     12  C   UNL     1       1.837   4.682  19.191  0.00  0.00    +0.000 A 
ATOM     13  C   UNL     1       1.417   3.423  18.739  0.00  0.00    +0.000 A 
ATOM     14  C   UNL     1       1.274   2.366  19.636  0.00  0.00    +0.000 A 
ATOM     15  C   UNL     1       1.558   2.554  20.987  0.00  0.00    +0.000 A 
ATOM     16  C   UNL     1       2.028   3.786  21.438  0.00  0.00    +0.000 A 
ATOM     17  C   UNL     1       2.179   4.845  20.542  0.00  0.00    +0.000 A 
ENDBRANCH  11  12
ENDBRANCH   1  11
BRANCH   1  18
ATOM     18  C   UNL     1       3.814   7.112  17.569  0.00  0.00    +0.000 C 
BRANCH  18  19
ATOM     19  C   UNL     1       5.088   6.207  17.577  0.00  0.00    +0.000 C 
ATOM     20  C   UNL     1       6.324   7.087  17.310  0.00  0.00    +0.000 C 
ATOM     21  C   UNL     1       7.574   6.236  17.130  0.00  0.00    +0.000 C 
ATOM     22  O   UNL     1       7.384   5.314  16.058  0.00  0.00    +0.000 OA
ATOM     23  C   UNL     1       6.341   4.383  16.350  0.00  0.00    +0.000 C 
ATOM     24  C   UNL     1       5.002   5.095  16.521  0.00  0.00    +0.000 C 
BRANCH  19  25
ATOM     25  O   UNL     1       5.294   5.608  18.865  0.00  0.00    +0.000 OA
ATOM     26  H   UNL     1       4.613   4.925  18.989  0.00  0.00    +0.000 HD
ENDBRANCH  19  25
ENDBRANCH  18  19
ENDBRANCH   1  18
TORSDOF 8
ENDMDL
MODEL 5
REMARK VINA RESULT:      -6.9      2.011      4.487
REMARK  Name = 
REMARK  9 active torsions:
REMARK  status: ('A' for Active; 'I' for Inactive)
REMARK    1  A    between atoms: C_1  and  C_2
REMARK    2  A    between atoms: N_7  and  C_8
REMARK    3  A    between atoms: C_8  and  C_9
REMARK    4  A    between atoms: C_9  and  N_10
REMARK    5  A    between atoms: N_10  and  C_11
REMARK    6  A    between atoms: N_10  and  C_18
REMARK    7  A    between atoms: C_11  and  C_12
REMARK    8  A    between atoms: C_18  and  C_19
REMARK    9  A    between atoms: C_19  and  O_20
REMARK                            x       y       z     vdW  Elec       q    Type
REMARK                         _______ _______ _______ _____ _____    ______ ____
ROOT
ATOM      1  N   UNL     1       2.740   6.910  17.930  0.00  0.00    +0.000 NA
ENDROOT
BRANCH   1   2
ATOM      2  C   UNL     1       1.727   7.994  17.937  0.00  0.00    +0.000 C 
BRANCH   2   3
ATOM      3  C   UNL     1       1.942   9.156  18.947  0.00  0.00    +0.000 C 
BRANCH   3  10
ATOM      4  C   UNL     1      -0.338  11.207  18.732  0.00  0.00    +0.000 C 
ATOM      5  C   UNL     1       0.436  10.785  19.988  0.00  0.00    +0.000 C 
ATOM      6  C   UNL     1      -0.452  11.125  21.213  0.00  0.00    +0.000 C 
ATOM      7  O   UNL     1       0.134  10.685  22.441  0.00  0.00    +0.000 OA
ATOM      8  C   UNL     1       0.298   9.269  22.395  0.00  0.00    +0.000 C 
ATOM      9  C   UNL     1       1.255   8.877  21.268  0.00  0.00    +0.000 C 
ATOM     10  N   UNL     1       0.831   9.347  19.924  0.00  0.00    +0.000 NA
ENDBRANCH   3  10
ENDBRANCH   2   3
ENDBRANCH   1   2
BRANCH   1  11
ATOM     11  C   UNL     1       4.054   7.418  17.451  0.00  0.00    +0.000 C 
BRANCH  11  12
ATOM     12  C   UNL     1       5.069   6.321  17.200  0.00  0.00    +0.000 A 
ATOM     13  C   UNL     1       6.319   6.364  17.833  0.00  0.00    +0.000 A 
ATOM     14  C   UNL     1       7.314   5.451  17.490  0.00  0.00    +0.000 A 
ATOM     15  C   UNL     1       7.066   4.482  16.519  0.00  0.00    +0.000 A 
ATOM     16  C   UNL     1       5.810   4.396  15.922  0.00  0.00    +0.000 A 
ATOM     17  C   UNL     1       4.808   5.304  16.268  0.00  0.00    +0.000 A 
ENDBRANCH  11  12
ENDBRANCH   1  11
BRANCH   1  18
ATOM     18  C   UNL     1       2.892   6.325  19.299  0.00  0.00    +0.000 C 
BRANCH  18  19
ATOM     19  C   UNL     1       2.608   4.805  19.525  0.00  0.00    +0.000 C 
ATOM     20  C   UNL     1       1.852   4.253  18.301  0.00  0.00    +0.000 C 
ATOM     21  C   UNL     1       1.392   2.822  18.541  0.00  0.00    +0.000 C 
ATOM     22  O   UNL     1       0.562   2.764  19.699  0.00  0.00    +0.000 OA
ATOM     23  C   UNL     1       1.287   3.123  20.877  0.00  0.00    +0.000 C 
ATOM     24  C   UNL     1       1.784   4.563  20.798  0.00  0.00    +0.000 C 
BRANCH  19  25
ATOM     25  O   UNL     1       3.828   4.054  19.613  0.00  0.00    +0.000 OA
ATOM     26  H   UNL     1       3.824   3.578  20.460  0.00  0.00    +0.000 HD
ENDBRANCH  19  25
ENDBRANCH  18  19
ENDBRANCH   1  18
TORSDOF 8
ENDMDL
MODEL 6
REMARK VINA RESULT:      -6.9      1.119      1.595
REMARK  Name = 
REMARK  9 active torsions:
REMARK  status: ('A' for Active; 'I' for Inactive)
REMARK    1  A    between atoms: C_1  and  C_2
REMARK    2  A    between atoms: N_7  and  C_8
REMARK    3  A    between atoms: C_8  and  C_9
REMARK    4  A    between atoms: C_9  and  N_10
REMARK    5  A    between atoms: N_10  and  C_11
REMARK    6  A    between atoms: N_10  and  C_18
REMARK    7  A    between atoms: C_11  and  C_12
REMARK    8  A    between atoms: C_18  and  C_19
REMARK    9  A    between atoms: C_19  and  O_20
REMARK                            x       y       z     vdW  Elec       q    Type
REMARK                         _______ _______ _______ _____ _____    ______ ____
ROOT
ATOM      1  N   UNL     1       3.091   6.573  18.474  0.00  0.00    +0.000 NA
ENDROOT
BRANCH   1   2
ATOM      2  C   UNL     1       2.446   7.903  18.614  0.00  0.00    +0.000 C 
BRANCH   2   3
ATOM      3  C   UNL     1       1.668   8.175  19.932  0.00  0.00    +0.000 C 
BRANCH   3  10
ATOM      4  C   UNL     1       0.512   9.434  22.488  0.00  0.00    +0.000 C 
ATOM      5  C   UNL     1       0.016   9.602  21.046  0.00  0.00    +0.000 C 
ATOM      6  C   UNL     1      -0.801  10.920  20.989  0.00  0.00    +0.000 C 
ATOM      7  O   UNL     1      -1.235  11.226  19.663  0.00  0.00    +0.000 OA
ATOM      8  C   UNL     1      -0.092  11.381  18.825  0.00  0.00    +0.000 C 
ATOM      9  C   UNL     1       0.700  10.075  18.752  0.00  0.00    +0.000 C 
ATOM     10  N   UNL     1       1.149   9.567  20.074  0.00  0.00    +0.000 NA
ENDBRANCH   3  10
ENDBRANCH   2   3
ENDBRANCH   1   2
BRANCH   1  11
ATOM     11  C   UNL     1       2.090   5.540  18.093  0.00  0.00    +0.000 C 
BRANCH  11  12
ATOM     12  C   UNL     1       1.803   4.544  19.199  0.00  0.00    +0.000 A 
ATOM     13  C   UNL     1       2.251   4.796  20.503  0.00  0.00    +0.000 A 
ATOM     14  C   UNL     1       2.131   3.819  21.490  0.00  0.00    +0.000 A 
ATOM     15  C   UNL     1       1.555   2.587  21.185  0.00  0.00    +0.000 A 
ATOM     16  C   UNL     1       1.058   2.346  19.905  0.00  0.00    +0.000 A 
ATOM     17  C   UNL     1       1.169   3.324  18.917  0.00  0.00    +0.000 A 
ENDBRANCH  11  12
ENDBRANCH   1  11
BRANCH   1  18
ATOM     18  C   UNL     1       4.181   6.624  17.451  0.00  0.00    +0.000 C 
BRANCH  18  19
ATOM     19  C   UNL     1       5.192   5.437  17.339  0.00  0.00    +0.000 C 
ATOM     20  C   UNL     1       6.517   5.848  18.009  0.00  0.00    +0.000 C 
ATOM     21  C   UNL     1       7.596   4.799  17.776  0.00  0.00    +0.000 C 
ATOM     22  O   UNL     1       7.791   4.604  16.377  0.00  0.00    +0.000 OA
ATOM     23  C   UNL     1       6.619   4.073  15.756  0.00  0.00    +0.000 C 
ATOM     24  C   UNL     1       5.447   5.043  15.877  0.00  0.00    +0.000 C 
BRANCH  19  25
ATOM     25  O   UNL     1       4.722   4.284  18.055  0.00  0.00    +0.000 OA
ATOM     26  H   UNL     1       5.149   4.282  18.928  0.00  0.00    +0.000 HD
ENDBRANCH  19  25
ENDBRANCH  18  19
ENDBRANCH   1  18
TORSDOF 8
ENDMDL
MODEL 7
REMARK VINA RESULT:      -6.9      1.256      1.954
REMARK  Name = 
REMARK  9 active torsions:
REMARK  status: ('A' for Active; 'I' for Inactive)
REMARK    1  A    between atoms: C_1  and  C_2
REMARK    2  A    between atoms: N_7  and  C_8
REMARK    3  A    between atoms: C_8  and  C_9
REMARK    4  A    between atoms: C_9  and  N_10
REMARK    5  A    between atoms: N_10  and  C_11
REMARK    6  A    between atoms: N_10  and  C_18
REMARK    7  A    between atoms: C_11  and  C_12
REMARK    8  A    between atoms: C_18  and  C_19
REMARK    9  A    between atoms: C_19  and  O_20
REMARK                            x       y       z     vdW  Elec       q    Type
REMARK                         _______ _______ _______ _____ _____    ______ ____
ROOT
ATOM      1  N   UNL     1       2.978   6.341  19.372  0.00  0.00    +0.000 NA
ENDROOT
BRANCH   1   2
ATOM      2  C   UNL     1       2.295   7.659  19.351  0.00  0.00    +0.000 C 
BRANCH   2   3
ATOM      3  C   UNL     1       1.469   8.047  20.608  0.00  0.00    +0.000 C 
BRANCH   3  10
ATOM      4  C   UNL     1       0.114   9.447  22.987  0.00  0.00    +0.000 C 
ATOM      5  C   UNL     1      -0.152   9.660  21.492  0.00  0.00    +0.000 C 
ATOM      6  C   UNL     1      -0.799  11.060  21.333  0.00  0.00    +0.000 C 
ATOM      7  O   UNL     1      -1.005  11.405  19.961  0.00  0.00    +0.000 OA
ATOM      8  C   UNL     1       0.255  11.424  19.294  0.00  0.00    +0.000 C 
ATOM      9  C   UNL     1       0.898  10.036  19.322  0.00  0.00    +0.000 C 
ATOM     10  N   UNL     1       1.095   9.489  20.689  0.00  0.00    +0.000 NA
ENDBRANCH   3  10
ENDBRANCH   2   3
ENDBRANCH   1   2
BRANCH   1  11
ATOM     11  C   UNL     1       2.029   5.262  19.761  0.00  0.00    +0.000 C 
BRANCH  11  12
ATOM     12  C   UNL     1       2.473   3.883  19.318  0.00  0.00    +0.000 A 
ATOM     13  C   UNL     1       3.454   3.194  20.045  0.00  0.00    +0.000 A 
ATOM     14  C   UNL     1       3.981   1.999  19.559  0.00  0.00    +0.000 A 
ATOM     15  C   UNL     1       3.527   1.477  18.349  0.00  0.00    +0.000 A 
ATOM     16  C   UNL     1       2.514   2.126  17.644  0.00  0.00    +0.000 A 
ATOM     17  C   UNL     1       1.978   3.319  18.131  0.00  0.00    +0.000 A 
ENDBRANCH  11  12
ENDBRANCH   1  11
BRANCH   1  18
ATOM     18  C   UNL     1       3.572   6.036  18.034  0.00  0.00    +0.000 C 
BRANCH  18  19
ATOM     19  C   UNL     1       5.110   5.786  17.910  0.00  0.00    +0.000 C 
ATOM     20  C   UNL     1       5.782   7.076  17.398  0.00  0.00    +0.000 C 
ATOM     21  C   UNL     1       7.254   6.839  17.089  0.00  0.00    +0.000 C 
ATOM     22  O   UNL     1       7.388   5.798  16.125  0.00  0.00    +0.000 OA
ATOM     23  C   UNL     1       6.912   4.551  16.635  0.00  0.00    +0.000 C 
ATOM     24  C   UNL     1       5.423   4.623  16.958  0.00  0.00    +0.000 C 
BRANCH  19  25
ATOM     25  O   UNL     1       5.698   5.510  19.190  0.00  0.00    +0.000 OA
ATOM     26  H   UNL     1       6.215   6.290  19.454  0.00  0.00    +0.000 HD
ENDBRANCH  19  25
ENDBRANCH  18  19
ENDBRANCH   1  18
TORSDOF 8
ENDMDL
MODEL 8
REMARK VINA RESULT:      -6.9      2.020      4.379
REMARK  Name = 
REMARK  9 active torsions:
REMARK  status: ('A' for Active; 'I' for Inactive)
REMARK    1  A    between atoms: C_1  and  C_2
REMARK    2  A    between atoms: N_7  and  C_8
REMARK    3  A    between atoms: C_8  and  C_9
REMARK    4  A    between atoms: C_9  and  N_10
REMARK    5  A    between atoms: N_10  and  C_11
REMARK    6  A    between atoms: N_10  and  C_18
REMARK    7  A    between atoms: C_11  and  C_12
REMARK    8  A    between atoms: C_18  and  C_19
REMARK    9  A    between atoms: C_19  and  O_20
REMARK                            x       y       z     vdW  Elec       q    Type
REMARK                         _______ _______ _______ _____ _____    ______ ____
ROOT
ATOM      1  N   UNL     1       3.225   6.939  17.775  0.00  0.00    +0.000 NA
ENDROOT
BRANCH   1   2
ATOM      2  C   UNL     1       2.474   8.189  18.052  0.00  0.00    +0.000 C 
BRANCH   2   3
ATOM      3  C   UNL     1       1.675   8.253  19.383  0.00  0.00    +0.000 C 
BRANCH   3  10
ATOM      4  C   UNL     1       0.998   9.254  22.211  0.00  0.00    +0.000 C 
ATOM      5  C   UNL     1       0.236   9.524  20.907  0.00  0.00    +0.000 C 
ATOM      6  C   UNL     1      -0.601  10.812  21.120  0.00  0.00    +0.000 C 
ATOM      7  O   UNL     1      -1.283  11.214  19.930  0.00  0.00    +0.000 OA
ATOM      8  C   UNL     1      -0.321  11.477  18.911  0.00  0.00    +0.000 C 
ATOM      9  C   UNL     1       0.468  10.209  18.577  0.00  0.00    +0.000 C 
ATOM     10  N   UNL     1       1.166   9.609  19.742  0.00  0.00    +0.000 NA
ENDBRANCH   3  10
ENDBRANCH   2   3
ENDBRANCH   1   2
BRANCH   1  11
ATOM     11  C   UNL     1       4.681   7.216  17.645  0.00  0.00    +0.000 C 
BRANCH  11  12
ATOM     12  C   UNL     1       5.435   6.135  16.898  0.00  0.00    +0.000 A 
ATOM     13  C   UNL     1       6.461   5.424  17.538  0.00  0.00    +0.000 A 
ATOM     14  C   UNL     1       7.263   4.543  16.816  0.00  0.00    +0.000 A 
ATOM     15  C   UNL     1       7.042   4.356  15.452  0.00  0.00    +0.000 A 
ATOM     16  C   UNL     1       5.992   5.017  14.817  0.00  0.00    +0.000 A 
ATOM     17  C   UNL     1       5.181   5.894  15.538  0.00  0.00    +0.000 A 
ENDBRANCH  11  12
ENDBRANCH   1  11
BRANCH   1  18
ATOM     18  C   UNL     1       2.994   5.937  18.861  0.00  0.00    +0.000 C 
BRANCH  18  19
ATOM     19  C   UNL     1       2.269   4.591  18.530  0.00  0.00    +0.000 C 
ATOM     20  C   UNL     1       1.482   4.133  19.773  0.00  0.00    +0.000 C 
ATOM     21  C   UNL     1       0.900   2.740  19.569  0.00  0.00    +0.000 C 
ATOM     22  O   UNL     1       1.945   1.815  19.278  0.00  0.00    +0.000 OA
ATOM     23  C   UNL     1       2.592   2.130  18.044  0.00  0.00    +0.000 C 
ATOM     24  C   UNL     1       3.263   3.498  18.110  0.00  0.00    +0.000 C 
BRANCH  19  25
ATOM     25  O   UNL     1       1.301   4.765  17.484  0.00  0.00    +0.000 OA
ATOM     26  H   UNL     1       0.458   5.015  17.899  0.00  0.00    +0.000 HD
ENDBRANCH  19  25
ENDBRANCH  18  19
ENDBRANCH   1  18
TORSDOF 8
ENDMDL
MODEL 9
REMARK VINA RESULT:      -6.9      1.069      1.789
REMARK  Name = 
REMARK  9 active torsions:
REMARK  status: ('A' for Active; 'I' for Inactive)
REMARK    1  A    between atoms: C_1  and  C_2
REMARK    2  A    between atoms: N_7  and  C_8
REMARK    3  A    between atoms: C_8  and  C_9
REMARK    4  A    between atoms: C_9  and  N_10
REMARK    5  A    between atoms: N_10  and  C_11
REMARK    6  A    between atoms: N_10  and  C_18
REMARK    7  A    between atoms: C_11  and  C_12
REMARK    8  A    between atoms: C_18  and  C_19
REMARK    9  A    between atoms: C_19  and  O_20
REMARK                            x       y       z     vdW  Elec       q    Type
REMARK                         _______ _______ _______ _____ _____    ______ ____
ROOT
ATOM      1  N   UNL     1       3.360   6.540  17.998  0.00  0.00    +0.000 NA
ENDROOT
BRANCH   1   2
ATOM      2  C   UNL     1       2.150   7.391  17.871  0.00  0.00    +0.000 C 
BRANCH   2   3
ATOM      3  C   UNL     1       2.219   8.813  18.493  0.00  0.00    +0.000 C 
BRANCH   3  10
ATOM      4  C   UNL     1       0.410  11.295  18.628  0.00  0.00    +0.000 C 
ATOM      5  C   UNL     1       1.091  10.562  19.789  0.00  0.00    +0.000 C 
ATOM      6  C   UNL     1       0.304  10.907  21.080  0.00  0.00    +0.000 C 
ATOM      7  O   UNL     1       0.797  10.198  22.218  0.00  0.00    +0.000 OA
ATOM      8  C   UNL     1       0.665   8.797  21.984  0.00  0.00    +0.000 C 
ATOM      9  C   UNL     1       1.511   8.372  20.782  0.00  0.00    +0.000 C 
ATOM     10  N   UNL     1       1.181   9.094  19.526  0.00  0.00    +0.000 NA
ENDBRANCH   3  10
ENDBRANCH   2   3
ENDBRANCH   1   2
BRANCH   1  11
ATOM     11  C   UNL     1       3.025   5.109  17.768  0.00  0.00    +0.000 C 
BRANCH  11  12
ATOM     12  C   UNL     1       2.324   4.458  18.943  0.00  0.00    +0.000 A 
ATOM     13  C   UNL     1       2.769   4.706  20.250  0.00  0.00    +0.000 A 
ATOM     14  C   UNL     1       2.236   3.993  21.322  0.00  0.00    +0.000 A 
ATOM     15  C   UNL     1       1.249   3.034  21.100  0.00  0.00    +0.000 A 
ATOM     16  C   UNL     1       0.762   2.817  19.812  0.00  0.00    +0.000 A 
ATOM     17  C   UNL     1       1.288   3.534  18.737  0.00  0.00    +0.000 A 
ENDBRANCH  11  12
ENDBRANCH   1  11
BRANCH   1  18
ATOM     18  C   UNL     1       4.412   6.977  17.028  0.00  0.00    +0.000 C 
BRANCH  18  19
ATOM     19  C   UNL     1       5.889   6.500  17.223  0.00  0.00    +0.000 C 
ATOM     20  C   UNL     1       6.132   5.264  16.336  0.00  0.00    +0.000 C 
ATOM     21  C   UNL     1       7.497   4.649  16.617  0.00  0.00    +0.000 C 
ATOM     22  O   UNL     1       7.597   4.295  17.994  0.00  0.00    +0.000 OA
ATOM     23  C   UNL     1       7.530   5.449  18.835  0.00  0.00    +0.000 C 
ATOM     24  C   UNL     1       6.186   6.156  18.689  0.00  0.00    +0.000 C 
BRANCH  19  25
ATOM     25  O   UNL     1       6.821   7.499  16.781  0.00  0.00    +0.000 OA
ATOM     26  H   UNL     1       7.316   7.132  16.029  0.00  0.00    +0.000 HD
ENDBRANCH  19  25
ENDBRANCH  18  19
ENDBRANCH   1  18
TORSDOF 8
ENDMDL
