MODEL 1
REMARK VINA RESULT:      -8.1      0.000      0.000
REMARK  Name = 
REMARK  8 active torsions:
REMARK  status: ('A' for Active; 'I' for Inactive)
REMARK    1  A    between atoms: C_1  and  C_2
REMARK    2  A    between atoms: C_2  and  C_3
REMARK    3  A    between atoms: C_3  and  C_4
REMARK    4  A    between atoms: C_4  and  N_5
REMARK    5  A    between atoms: C_7  and  C_8
REMARK    6  A    between atoms: C_8  and  O_10
REMARK    7  A    between atoms: C_15  and  C_16
REMARK    8  A    between atoms: C_16  and  C_17
REMARK                            x       y       z     vdW  Elec       q    Type
REMARK                         _______ _______ _______ _____ _____    ______ ____
ROOT
ATOM      1  N   UNL     1       4.303   5.762  17.460  0.00  0.00    +0.000 N 
ATOM      2  C   UNL     1       4.388   4.449  17.911  0.00  0.00    +0.000 A 
ATOM      3  C   UNL     1       3.811   3.947  19.012  0.00  0.00    +0.000 A 
ATOM      4  C   UNL     1       3.023   4.883  19.839  0.00  0.00    +0.000 A 
ATOM      5  O   UNL     1       2.547   4.504  20.908  0.00  0.00    +0.000 OA
ATOM      6  C   UNL     1       2.805   6.256  19.326  0.00  0.00    +0.000 A 
ATOM      7  C   UNL     1       1.948   7.110  20.039  0.00  0.00    +0.000 A 
ATOM      8  C   UNL     1       1.670   8.394  19.559  0.00  0.00    +0.000 A 
ATOM      9  C   UNL     1       2.279   8.797  18.366  0.00  0.00    +0.000 A 
ATOM     10  C   UNL     1       3.140   7.944  17.667  0.00  0.00    +0.000 A 
ATOM     11  C   UNL     1       3.438   6.656  18.131  0.00  0.00    +0.000 A 
ENDROOT
BRANCH   3  12
ATOM     12  C   UNL     1       3.983   2.517  19.335  0.00  0.00    +0.000 C 
ATOM     13  O   UNL     1       3.189   1.649  18.998  0.00  0.00    +0.000 OA
BRANCH  12  14
ATOM     14  O   UNL     1       5.095   2.230  20.048  0.00  0.00    +0.000 OA
ATOM     15  H   UNL     1       5.250   2.845  20.808  0.00  0.00    +0.000 HD
ENDBRANCH  12  14
ENDBRANCH   3  12
BRANCH   1  16
ATOM     16  C   UNL     1       5.078   6.216  16.286  0.00  0.00    +0.000 C 
BRANCH  16  17
ATOM     17  C   UNL     1       6.590   5.996  16.434  0.00  0.00    +0.000 C 
BRANCH  17  19
ATOM     18  C   UNL     1       7.714   6.219  18.668  0.00  0.00    +0.000 C 
ATOM     19  C   UNL     1       7.265   6.954  17.414  0.00  0.00    +0.000 C 
ENDBRANCH  17  19
ENDBRANCH  16  17
ENDBRANCH   1  16
BRANCH   8  20
ATOM     20  C   UNL     1       0.753   9.329  20.316  0.00  0.00    +0.000 C 
BRANCH  20  21
ATOM     21  C   UNL     1       0.031  10.311  19.416  0.00  0.00    +0.000 A 
ATOM     22  C   UNL     1      -1.003   9.819  18.595  0.00  0.00    +0.000 A 
ATOM     23  C   UNL     1      -1.776  10.678  17.817  0.00  0.00    +0.000 A 
ATOM     24  C   UNL     1      -1.536  12.049  17.854  0.00  0.00    +0.000 A 
ATOM     25  C   UNL     1      -0.500  12.561  18.642  0.00  0.00    +0.000 A 
ATOM     26 CL   UNL     1      -0.276  14.276  18.629  0.00  0.00    +0.000 Cl
ATOM     27  C   UNL     1       0.297  11.696  19.411  0.00  0.00    +0.000 A 
ATOM     28 CL   UNL     1       1.625  12.341  20.324  0.00  0.00    +0.000 Cl
ENDBRANCH  20  21
ENDBRANCH   8  20
TORSDOF 7
ENDMDL
MODEL 2
REMARK VINA RESULT:      -8.0      2.362      3.910
REMARK  Name = 
REMARK  8 active torsions:
REMARK  status: ('A' for Active; 'I' for Inactive)
REMARK    1  A    between atoms: C_1  and  C_2
REMARK    2  A    between atoms: C_2  and  C_3
REMARK    3  A    between atoms: C_3  and  C_4
REMARK    4  A    between atoms: C_4  and  N_5
REMARK    5  A    between atoms: C_7  and  C_8
REMARK    6  A    between atoms: C_8  and  O_10
REMARK    7  A    between atoms: C_15  and  C_16
REMARK    8  A    between atoms: C_16  and  C_17
REMARK                            x       y       z     vdW  Elec       q    Type
REMARK                         _______ _______ _______ _____ _____    ______ ____
ROOT
ATOM      1  N   UNL     1       3.085   5.237  20.051  0.00  0.00    +0.000 N 
ATOM      2  C   UNL     1       4.156   4.624  19.406  0.00  0.00    +0.000 A 
ATOM      3  C   UNL     1       4.756   5.047  18.285  0.00  0.00    +0.000 A 
ATOM      4  C   UNL     1       4.216   6.271  17.660  0.00  0.00    +0.000 A 
ATOM      5  O   UNL     1       4.665   6.657  16.581  0.00  0.00    +0.000 OA
ATOM      6  C   UNL     1       3.162   7.020  18.383  0.00  0.00    +0.000 A 
ATOM      7  C   UNL     1       2.738   8.254  17.863  0.00  0.00    +0.000 A 
ATOM      8  C   UNL     1       1.786   9.019  18.545  0.00  0.00    +0.000 A 
ATOM      9  C   UNL     1       1.268   8.512  19.740  0.00  0.00    +0.000 A 
ATOM     10  C   UNL     1       1.687   7.276  20.246  0.00  0.00    +0.000 A 
ATOM     11  C   UNL     1       2.635   6.490  19.579  0.00  0.00    +0.000 A 
ENDROOT
BRANCH   3  12
ATOM     12  C   UNL     1       5.902   4.289  17.744  0.00  0.00    +0.000 C 
ATOM     13  O   UNL     1       7.013   4.291  18.255  0.00  0.00    +0.000 OA
BRANCH  12  14
ATOM     14  O   UNL     1       5.633   3.589  16.620  0.00  0.00    +0.000 OA
ATOM     15  H   UNL     1       4.679   3.608  16.358  0.00  0.00    +0.000 HD
ENDBRANCH  12  14
ENDBRANCH   3  12
BRANCH   1  16
ATOM     16  C   UNL     1       2.444   4.608  21.224  0.00  0.00    +0.000 C 
BRANCH  16  17
ATOM     17  C   UNL     1       1.858   3.221  20.927  0.00  0.00    +0.000 C 
BRANCH  17  19
ATOM     18  C   UNL     1       1.108   2.431  18.664  0.00  0.00    +0.000 C 
ATOM     19  C   UNL     1       0.725   3.231  19.900  0.00  0.00    +0.000 C 
ENDBRANCH  17  19
ENDBRANCH  16  17
ENDBRANCH   1  16
BRANCH   8  20
ATOM     20  C   UNL     1       1.315  10.348  17.997  0.00  0.00    +0.000 C 
BRANCH  20  21
ATOM     21  C   UNL     1       0.218  10.979  18.830  0.00  0.00    +0.000 A 
ATOM     22  C   UNL     1       0.594  11.702  19.980  0.00  0.00    +0.000 A 
ATOM     23  C   UNL     1      -0.351  12.391  20.738  0.00  0.00    +0.000 A 
ATOM     24  C   UNL     1      -1.688  12.380  20.353  0.00  0.00    +0.000 A 
ATOM     25  C   UNL     1      -2.091  11.649  19.230  0.00  0.00    +0.000 A 
ATOM     26 CL   UNL     1      -3.772  11.693  18.825  0.00  0.00    +0.000 Cl
ATOM     27  C   UNL     1      -1.146  10.933  18.475  0.00  0.00    +0.000 A 
ATOM     28 CL   UNL     1      -1.674   9.973  17.130  0.00  0.00    +0.000 Cl
ENDBRANCH  20  21
ENDBRANCH   8  20
TORSDOF 7
ENDMDL
MODEL 3
REMARK VINA RESULT:      -8.0      4.515      8.292
REMARK  Name = 
REMARK  8 active torsions:
REMARK  status: ('A' for Active; 'I' for Inactive)
REMARK    1  A    between atoms: C_1  and  C_2
REMARK    2  A    between atoms: C_2  and  C_3
REMARK    3  A    between atoms: C_3  and  C_4
REMARK    4  A    between atoms: C_4  and  N_5
REMARK    5  A    between atoms: C_7  and  C_8
REMARK    6  A    between atoms: C_8  and  O_10
REMARK    7  A    between atoms: C_15  and  C_16
REMARK    8  A    between atoms: C_16  and  C_17
REMARK                            x       y       z     vdW  Elec       q    Type
REMARK                         _______ _______ _______ _____ _____    ______ ____
ROOT
ATOM      1  N   UNL     1      -0.921  11.130  19.256  0.00  0.00    +0.000 N 
ATOM      2  C   UNL     1      -1.236  11.708  20.482  0.00  0.00    +0.000 A 
ATOM      3  C   UNL     1      -0.773  11.331  21.681  0.00  0.00    +0.000 A 
ATOM      4  C   UNL     1       0.146  10.176  21.709  0.00  0.00    +0.000 A 
ATOM      5  O   UNL     1       0.531   9.725  22.787  0.00  0.00    +0.000 OA
ATOM      6  C   UNL     1       0.603   9.615  20.416  0.00  0.00    +0.000 A 
ATOM      7  C   UNL     1       1.579   8.605  20.431  0.00  0.00    +0.000 A 
ATOM      8  C   UNL     1       2.080   8.088  19.232  0.00  0.00    +0.000 A 
ATOM      9  C   UNL     1       1.571   8.596  18.033  0.00  0.00    +0.000 A 
ATOM     10  C   UNL     1       0.591   9.595  18.027  0.00  0.00    +0.000 A 
ATOM     11  C   UNL     1       0.071  10.124  19.215  0.00  0.00    +0.000 A 
ENDROOT
BRANCH   3  12
ATOM     12  C   UNL     1      -1.191  12.073  22.888  0.00  0.00    +0.000 C 
ATOM     13  O   UNL     1      -0.564  13.015  23.352  0.00  0.00    +0.000 OA
BRANCH  12  14
ATOM     14  O   UNL     1      -2.331  11.623  23.458  0.00  0.00    +0.000 OA
ATOM     15  H   UNL     1      -2.681  10.793  23.048  0.00  0.00    +0.000 HD
ENDBRANCH  12  14
ENDBRANCH   3  12
BRANCH   1  16
ATOM     16  C   UNL     1      -1.585  11.573  18.013  0.00  0.00    +0.000 C 
BRANCH  16  17
ATOM     17  C   UNL     1      -3.022  11.051  17.871  0.00  0.00    +0.000 C 
BRANCH  17  19
ATOM     18  C   UNL     1      -2.746  10.084  15.570  0.00  0.00    +0.000 C 
ATOM     19  C   UNL     1      -3.144   9.794  17.009  0.00  0.00    +0.000 C 
ENDBRANCH  17  19
ENDBRANCH  16  17
ENDBRANCH   1  16
BRANCH   8  20
ATOM     20  C   UNL     1       3.128   6.997  19.229  0.00  0.00    +0.000 C 
BRANCH  20  21
ATOM     21  C   UNL     1       2.540   5.608  19.371  0.00  0.00    +0.000 A 
ATOM     22  C   UNL     1       1.632   5.378  20.423  0.00  0.00    +0.000 A 
ATOM     23  C   UNL     1       0.977   4.155  20.555  0.00  0.00    +0.000 A 
ATOM     24  C   UNL     1       1.210   3.142  19.629  0.00  0.00    +0.000 A 
ATOM     25  C   UNL     1       2.125   3.337  18.589  0.00  0.00    +0.000 A 
ATOM     26 CL   UNL     1       2.349   2.025  17.484  0.00  0.00    +0.000 Cl
ATOM     27  C   UNL     1       2.806   4.559  18.465  0.00  0.00    +0.000 A 
ATOM     28 CL   UNL     1       3.992   4.756  17.213  0.00  0.00    +0.000 Cl
ENDBRANCH  20  21
ENDBRANCH   8  20
TORSDOF 7
ENDMDL
MODEL 4
REMARK VINA RESULT:      -8.0      2.476      4.089
REMARK  Name = 
REMARK  8 active torsions:
REMARK  status: ('A' for Active; 'I' for Inactive)
REMARK    1  A    between atoms: C_1  and  C_2
REMARK    2  A    between atoms: C_2  and  C_3
REMARK    3  A    between atoms: C_3  and  C_4
REMARK    4  A    between atoms: C_4  and  N_5
REMARK    5  A    between atoms: C_7  and  C_8
REMARK    6  A    between atoms: C_8  and  O_10
REMARK    7  A    between atoms: C_15  and  C_16
REMARK    8  A    between atoms: C_16  and  C_17
REMARK                            x       y       z     vdW  Elec       q    Type
REMARK                         _______ _______ _______ _____ _____    ______ ____
ROOT
ATOM      1  N   UNL     1       4.274   4.246  18.911  0.00  0.00    +0.000 N 
ATOM      2  C   UNL     1       5.466   4.106  18.206  0.00  0.00    +0.000 A 
ATOM      3  C   UNL     1       5.980   4.981  17.331  0.00  0.00    +0.000 A 
ATOM      4  C   UNL     1       5.196   6.205  17.073  0.00  0.00    +0.000 A 
ATOM      5  O   UNL     1       5.570   7.002  16.213  0.00  0.00    +0.000 OA
ATOM      6  C   UNL     1       3.989   6.450  17.896  0.00  0.00    +0.000 A 
ATOM      7  C   UNL     1       3.314   7.673  17.751  0.00  0.00    +0.000 A 
ATOM      8  C   UNL     1       2.204   7.967  18.549  0.00  0.00    +0.000 A 
ATOM      9  C   UNL     1       1.786   7.006  19.475  0.00  0.00    +0.000 A 
ATOM     10  C   UNL     1       2.457   5.785  19.606  0.00  0.00    +0.000 A 
ATOM     11  C   UNL     1       3.568   5.467  18.814  0.00  0.00    +0.000 A 
ENDROOT
BRANCH   3  12
ATOM     12  C   UNL     1       7.275   4.687  16.685  0.00  0.00    +0.000 C 
ATOM     13  O   UNL     1       8.220   4.177  17.270  0.00  0.00    +0.000 OA
BRANCH  12  14
ATOM     14  O   UNL     1       7.345   5.036  15.381  0.00  0.00    +0.000 OA
ATOM     15  H   UNL     1       7.040   5.960  15.199  0.00  0.00    +0.000 HD
ENDBRANCH  12  14
ENDBRANCH   3  12
BRANCH   1  16
ATOM     16  C   UNL     1       3.764   3.155  19.767  0.00  0.00    +0.000 C 
BRANCH  16  17
ATOM     17  C   UNL     1       3.338   1.910  18.977  0.00  0.00    +0.000 C 
BRANCH  17  19
ATOM     18  C   UNL     1       0.902   2.489  18.790  0.00  0.00    +0.000 C 
ATOM     19  C   UNL     1       2.170   2.150  18.021  0.00  0.00    +0.000 C 
ENDBRANCH  17  19
ENDBRANCH  16  17
ENDBRANCH   1  16
BRANCH   8  20
ATOM     20  C   UNL     1       1.462   9.277  18.403  0.00  0.00    +0.000 C 
BRANCH  20  21
ATOM     21  C   UNL     1       0.763   9.709  19.676  0.00  0.00    +0.000 A 
ATOM     22  C   UNL     1       1.263   9.227  20.902  0.00  0.00    +0.000 A 
ATOM     23  C   UNL     1       0.734   9.660  22.116  0.00  0.00    +0.000 A 
ATOM     24  C   UNL     1      -0.299  10.593  22.127  0.00  0.00    +0.000 A 
ATOM     25  C   UNL     1      -0.830  11.069  20.923  0.00  0.00    +0.000 A 
ATOM     26 CL   UNL     1      -2.109  12.228  21.032  0.00  0.00    +0.000 Cl
ATOM     27  C   UNL     1      -0.316  10.619  19.695  0.00  0.00    +0.000 A 
ATOM     28 CL   UNL     1      -1.035  11.163  18.213  0.00  0.00    +0.000 Cl
ENDBRANCH  20  21
ENDBRANCH   8  20
TORSDOF 7
ENDMDL
MODEL 5
REMARK VINA RESULT:      -8.0      2.577      4.147
REMARK  Name = 
REMARK  8 active torsions:
REMARK  status: ('A' for Active; 'I' for Inactive)
REMARK    1  A    between atoms: C_1  and  C_2
REMARK    2  A    between atoms: C_2  and  C_3
REMARK    3  A    between atoms: C_3  and  C_4
REMARK    4  A    between atoms: C_4  and  N_5
REMARK    5  A    between atoms: C_7  and  C_8
REMARK    6  A    between atoms: C_8  and  O_10
REMARK    7  A    between atoms: C_15  and  C_16
REMARK    8  A    between atoms: C_16  and  C_17
REMARK                            x       y       z     vdW  Elec       q    Type
REMARK                         _______ _______ _______ _____ _____    ______ ____
ROOT
ATOM      1  N   UNL     1       3.854   4.017  17.493  0.00  0.00    +0.000 N 
ATOM      2  C   UNL     1       5.187   3.944  17.102  0.00  0.00    +0.000 A 
ATOM      3  C   UNL     1       5.984   4.977  16.796  0.00  0.00    +0.000 A 
ATOM      4  C   UNL     1       5.383   6.324  16.860  0.00  0.00    +0.000 A 
ATOM      5  O   UNL     1       6.036   7.304  16.502  0.00  0.00    +0.000 OA
ATOM      6  C   UNL     1       4.006   6.452  17.392  0.00  0.00    +0.000 A 
ATOM      7  C   UNL     1       3.477   7.739  17.581  0.00  0.00    +0.000 A 
ATOM      8  C   UNL     1       2.204   7.905  18.135  0.00  0.00    +0.000 A 
ATOM      9  C   UNL     1       1.480   6.759  18.476  0.00  0.00    +0.000 A 
ATOM     10  C   UNL     1       2.010   5.480  18.274  0.00  0.00    +0.000 A 
ATOM     11  C   UNL     1       3.281   5.289  17.717  0.00  0.00    +0.000 A 
ENDROOT
BRANCH   3  12
ATOM     12  C   UNL     1       7.390   4.725  16.423  0.00  0.00    +0.000 C 
ATOM     13  O   UNL     1       8.189   4.151  17.150  0.00  0.00    +0.000 OA
BRANCH  12  14
ATOM     14  O   UNL     1       7.740   5.189  15.203  0.00  0.00    +0.000 OA
ATOM     15  H   UNL     1       8.714   5.325  15.093  0.00  0.00    +0.000 HD
ENDBRANCH  12  14
ENDBRANCH   3  12
BRANCH   1  16
ATOM     16  C   UNL     1       3.054   2.791  17.698  0.00  0.00    +0.000 C 
BRANCH  16  17
ATOM     17  C   UNL     1       3.509   1.963  18.908  0.00  0.00    +0.000 C 
BRANCH  17  19
ATOM     18  C   UNL     1       1.629   2.600  20.445  0.00  0.00    +0.000 C 
ATOM     19  C   UNL     1       3.138   2.576  20.257  0.00  0.00    +0.000 C 
ENDBRANCH  17  19
ENDBRANCH  16  17
ENDBRANCH   1  16
BRANCH   8  20
ATOM     20  C   UNL     1       1.616   9.284  18.342  0.00  0.00    +0.000 C 
BRANCH  20  21
ATOM     21  C   UNL     1       1.000   9.468  19.713  0.00  0.00    +0.000 A 
ATOM     22  C   UNL     1       1.509   8.696  20.776  0.00  0.00    +0.000 A 
ATOM     23  C   UNL     1       1.060   8.883  22.082  0.00  0.00    +0.000 A 
ATOM     24  C   UNL     1       0.101   9.854  22.351  0.00  0.00    +0.000 A 
ATOM     25  C   UNL     1      -0.439  10.618  21.310  0.00  0.00    +0.000 A 
ATOM     26 CL   UNL     1      -1.624  11.803  21.737  0.00  0.00    +0.000 Cl
ATOM     27  C   UNL     1      -0.007  10.418  19.988  0.00  0.00    +0.000 A 
ATOM     28 CL   UNL     1      -0.740  11.321  18.700  0.00  0.00    +0.000 Cl
ENDBRANCH  20  21
ENDBRANCH   8  20
TORSDOF 7
ENDMDL
MODEL 6
REMARK VINA RESULT:      -8.0      2.472      3.940
REMARK  Name = 
REMARK  8 active torsions:
REMARK  status: ('A' for Active; 'I' for Inactive)
REMARK    1  A    between atoms: C_1  and  C_2
REMARK    2  A    between atoms: C_2  and  C_3
REMARK    3  A    between atoms: C_3  and  C_4
REMARK    4  A    between atoms: C_4  and  N_5
REMARK    5  A    between atoms: C_7  and  C_8
REMARK    6  A    between atoms: C_8  and  O_10
REMARK    7  A    between atoms: C_15  and  C_16
REMARK    8  A    between atoms: C_16  and  C_17
REMARK                            x       y       z     vdW  Elec       q    Type
REMARK                         _______ _______ _______ _____ _____    ______ ____
ROOT
ATOM      1  N   UNL     1       4.253   4.548  18.992  0.00  0.00    +0.000 N 
ATOM      2  C   UNL     1       5.451   4.279  18.337  0.00  0.00    +0.000 A 
ATOM      3  C   UNL     1       6.007   5.013  17.364  0.00  0.00    +0.000 A 
ATOM      4  C   UNL     1       5.268   6.215  16.929  0.00  0.00    +0.000 A 
ATOM      5  O   UNL     1       5.681   6.878  15.978  0.00  0.00    +0.000 OA
ATOM      6  C   UNL     1       4.055   6.603  17.687  0.00  0.00    +0.000 A 
ATOM      7  C   UNL     1       3.423   7.815  17.366  0.00  0.00    +0.000 A 
ATOM      8  C   UNL     1       2.310   8.246  18.095  0.00  0.00    +0.000 A 
ATOM      9  C   UNL     1       1.846   7.431  19.132  0.00  0.00    +0.000 A 
ATOM     10  C   UNL     1       2.476   6.219  19.439  0.00  0.00    +0.000 A 
ATOM     11  C   UNL     1       3.588   5.765  18.720  0.00  0.00    +0.000 A 
ENDROOT
BRANCH   3  12
ATOM     12  C   UNL     1       7.302   4.598  16.790  0.00  0.00    +0.000 C 
ATOM     13  O   UNL     1       8.242   4.199  17.464  0.00  0.00    +0.000 OA
BRANCH  12  14
ATOM     14  O   UNL     1       7.380   4.699  15.444  0.00  0.00    +0.000 OA
ATOM     15  H   UNL     1       6.879   5.468  15.073  0.00  0.00    +0.000 HD
ENDBRANCH  12  14
ENDBRANCH   3  12
BRANCH   1  16
ATOM     16  C   UNL     1       3.694   3.597  19.976  0.00  0.00    +0.000 C 
BRANCH  16  17
ATOM     17  C   UNL     1       3.058   2.358  19.331  0.00  0.00    +0.000 C 
BRANCH  17  19
ATOM     18  C   UNL     1       0.810   3.105  20.165  0.00  0.00    +0.000 C 
ATOM     19  C   UNL     1       1.579   2.526  18.986  0.00  0.00    +0.000 C 
ENDBRANCH  17  19
ENDBRANCH  16  17
ENDBRANCH   1  16
BRANCH   8  20
ATOM     20  C   UNL     1       1.613   9.547  17.761  0.00  0.00    +0.000 C 
BRANCH  20  21
ATOM     21  C   UNL     1       1.104  10.280  18.984  0.00  0.00    +0.000 A 
ATOM     22  C   UNL     1       0.217   9.599  19.843  0.00  0.00    +0.000 A 
ATOM     23  C   UNL     1      -0.212  10.174  21.037  0.00  0.00    +0.000 A 
ATOM     24  C   UNL     1       0.244  11.437  21.401  0.00  0.00    +0.000 A 
ATOM     25  C   UNL     1       1.105  12.144  20.554  0.00  0.00    +0.000 A 
ATOM     26 CL   UNL     1       1.624  13.706  21.088  0.00  0.00    +0.000 Cl
ATOM     27  C   UNL     1       1.524  11.579  19.338  0.00  0.00    +0.000 A 
ATOM     28 CL   UNL     1       2.531  12.501  18.267  0.00  0.00    +0.000 Cl
ENDBRANCH  20  21
ENDBRANCH   8  20
TORSDOF 7
ENDMDL
MODEL 7
REMARK VINA RESULT:      -7.9      2.174      3.717
REMARK  Name = 
REMARK  8 active torsions:
REMARK  status: ('A' for Active; 'I' for Inactive)
REMARK    1  A    between atoms: C_1  and  C_2
REMARK    2  A    between atoms: C_2  and  C_3
REMARK    3  A    between atoms: C_3  and  C_4
REMARK    4  A    between atoms: C_4  and  N_5
REMARK    5  A    between atoms: C_7  and  C_8
REMARK    6  A    between atoms: C_8  and  O_10
REMARK    7  A    between atoms: C_15  and  C_16
REMARK    8  A    between atoms: C_16  and  C_17
REMARK                            x       y       z     vdW  Elec       q    Type
REMARK                         _______ _______ _______ _____ _____    ______ ____
ROOT
ATOM      1  N   UNL     1       2.926   5.334  19.993  0.00  0.00    +0.000 N 
ATOM      2  C   UNL     1       3.966   4.755  19.274  0.00  0.00    +0.000 A 
ATOM      3  C   UNL     1       4.545   5.252  18.172  0.00  0.00    +0.000 A 
ATOM      4  C   UNL     1       4.013   6.530  17.658  0.00  0.00    +0.000 A 
ATOM      5  O   UNL     1       4.440   6.990  16.600  0.00  0.00    +0.000 OA
ATOM      6  C   UNL     1       2.992   7.239  18.466  0.00  0.00    +0.000 A 
ATOM      7  C   UNL     1       2.580   8.516  18.054  0.00  0.00    +0.000 A 
ATOM      8  C   UNL     1       1.661   9.243  18.819  0.00  0.00    +0.000 A 
ATOM      9  C   UNL     1       1.165   8.654  19.986  0.00  0.00    +0.000 A 
ATOM     10  C   UNL     1       1.573   7.376  20.384  0.00  0.00    +0.000 A 
ATOM     11  C   UNL     1       2.487   6.628  19.631  0.00  0.00    +0.000 A 
ENDROOT
BRANCH   3  12
ATOM     12  C   UNL     1       5.661   4.519  17.543  0.00  0.00    +0.000 C 
ATOM     13  O   UNL     1       6.732   4.314  18.097  0.00  0.00    +0.000 OA
BRANCH  12  14
ATOM     14  O   UNL     1       5.414   4.089  16.285  0.00  0.00    +0.000 OA
ATOM     15  H   UNL     1       4.518   4.341  15.947  0.00  0.00    +0.000 HD
ENDBRANCH  12  14
ENDBRANCH   3  12
BRANCH   1  16
ATOM     16  C   UNL     1       2.303   4.627  21.132  0.00  0.00    +0.000 C 
BRANCH  16  17
ATOM     17  C   UNL     1       1.060   3.816  20.740  0.00  0.00    +0.000 C 
BRANCH  17  19
ATOM     18  C   UNL     1       1.047   2.461  18.626  0.00  0.00    +0.000 C 
ATOM     19  C   UNL     1       1.377   2.460  20.110  0.00  0.00    +0.000 C 
ENDBRANCH  17  19
ENDBRANCH  16  17
ENDBRANCH   1  16
BRANCH   8  20
ATOM     20  C   UNL     1       1.201  10.619  18.389  0.00  0.00    +0.000 C 
BRANCH  20  21
ATOM     21  C   UNL     1      -0.306  10.741  18.300  0.00  0.00    +0.000 A 
ATOM     22  C   UNL     1      -0.990   9.874  17.425  0.00  0.00    +0.000 A 
ATOM     23  C   UNL     1      -2.382   9.862  17.366  0.00  0.00    +0.000 A 
ATOM     24  C   UNL     1      -3.117  10.709  18.190  0.00  0.00    +0.000 A 
ATOM     25  C   UNL     1      -2.461  11.596  19.050  0.00  0.00    +0.000 A 
ATOM     26 CL   UNL     1      -3.454  12.610  20.039  0.00  0.00    +0.000 Cl
ATOM     27  C   UNL     1      -1.058  11.630  19.098  0.00  0.00    +0.000 A 
ATOM     28 CL   UNL     1      -0.261  12.788  20.115  0.00  0.00    +0.000 Cl
ENDBRANCH  20  21
ENDBRANCH   8  20
TORSDOF 7
ENDMDL
MODEL 8
REMARK VINA RESULT:      -7.9      0.623      1.288
REMARK  Name = 
REMARK  8 active torsions:
REMARK  status: ('A' for Active; 'I' for Inactive)
REMARK    1  A    between atoms: C_1  and  C_2
REMARK    2  A    between atoms: C_2  and  C_3
REMARK    3  A    between atoms: C_3  and  C_4
REMARK    4  A    between atoms: C_4  and  N_5
REMARK    5  A    between atoms: C_7  and  C_8
REMARK    6  A    between atoms: C_8  and  O_10
REMARK    7  A    between atoms: C_15  and  C_16
REMARK    8  A    between atoms: C_16  and  C_17
REMARK                            x       y       z     vdW  Elec       q    Type
REMARK                         _______ _______ _______ _____ _____    ______ ____
ROOT
ATOM      1  N   UNL     1       4.228   5.736  17.535  0.00  0.00    +0.000 N 
ATOM      2  C   UNL     1       4.343   4.440  18.028  0.00  0.00    +0.000 A 
ATOM      3  C   UNL     1       3.801   3.969  19.159  0.00  0.00    +0.000 A 
ATOM      4  C   UNL     1       3.021   4.922  19.973  0.00  0.00    +0.000 A 
ATOM      5  O   UNL     1       2.577   4.574  21.066  0.00  0.00    +0.000 OA
ATOM      6  C   UNL     1       2.771   6.274  19.420  0.00  0.00    +0.000 A 
ATOM      7  C   UNL     1       1.921   7.141  20.125  0.00  0.00    +0.000 A 
ATOM      8  C   UNL     1       1.613   8.404  19.609  0.00  0.00    +0.000 A 
ATOM      9  C   UNL     1       2.186   8.774  18.389  0.00  0.00    +0.000 A 
ATOM     10  C   UNL     1       3.041   7.908  17.697  0.00  0.00    +0.000 A 
ATOM     11  C   UNL     1       3.368   6.641  18.197  0.00  0.00    +0.000 A 
ENDROOT
BRANCH   3  12
ATOM     12  C   UNL     1       4.000   2.553  19.526  0.00  0.00    +0.000 C 
ATOM     13  O   UNL     1       4.854   2.175  20.316  0.00  0.00    +0.000 OA
BRANCH  12  14
ATOM     14  O   UNL     1       3.164   1.688  18.909  0.00  0.00    +0.000 OA
ATOM     15  H   UNL     1       2.487   2.128  18.337  0.00  0.00    +0.000 HD
ENDBRANCH  12  14
ENDBRANCH   3  12
BRANCH   1  16
ATOM     16  C   UNL     1       4.967   6.159  16.326  0.00  0.00    +0.000 C 
BRANCH  16  17
ATOM     17  C   UNL     1       6.461   5.808  16.373  0.00  0.00    +0.000 C 
BRANCH  17  19
ATOM     18  C   UNL     1       5.717   4.361  14.460  0.00  0.00    +0.000 C 
ATOM     19  C   UNL     1       6.879   4.735  15.367  0.00  0.00    +0.000 C 
ENDBRANCH  17  19
ENDBRANCH  16  17
ENDBRANCH   1  16
BRANCH   8  20
ATOM     20  C   UNL     1       0.703   9.353  20.358  0.00  0.00    +0.000 C 
BRANCH  20  21
ATOM     21  C   UNL     1      -0.015  10.329  19.449  0.00  0.00    +0.000 A 
ATOM     22  C   UNL     1      -1.064   9.838  18.646  0.00  0.00    +0.000 A 
ATOM     23  C   UNL     1      -1.833  10.695  17.862  0.00  0.00    +0.000 A 
ATOM     24  C   UNL     1      -1.573  12.062  17.872  0.00  0.00    +0.000 A 
ATOM     25  C   UNL     1      -0.521  12.572  18.641  0.00  0.00    +0.000 A 
ATOM     26 CL   UNL     1      -0.273  14.284  18.596  0.00  0.00    +0.000 Cl
ATOM     27  C   UNL     1       0.272  11.710  19.417  0.00  0.00    +0.000 A 
ATOM     28 CL   UNL     1       1.618  12.351  20.305  0.00  0.00    +0.000 Cl
ENDBRANCH  20  21
ENDBRANCH   8  20
TORSDOF 7
ENDMDL
MODEL 9
REMARK VINA RESULT:      -7.8      2.542      4.122
REMARK  Name = 
REMARK  8 active torsions:
REMARK  status: ('A' for Active; 'I' for Inactive)
REMARK    1  A    between atoms: C_1  and  C_2
REMARK    2  A    between atoms: C_2  and  C_3
REMARK    3  A    between atoms: C_3  and  C_4
REMARK    4  A    between atoms: C_4  and  N_5
REMARK    5  A    between atoms: C_7  and  C_8
REMARK    6  A    between atoms: C_8  and  O_10
REMARK    7  A    between atoms: C_15  and  C_16
REMARK    8  A    between atoms: C_16  and  C_17
REMARK                            x       y       z     vdW  Elec       q    Type
REMARK                         _______ _______ _______ _____ _____    ______ ____
ROOT
ATOM      1  N   UNL     1       4.502   4.865  19.149  0.00  0.00    +0.000 N 
ATOM      2  C   UNL     1       5.629   4.636  18.366  0.00  0.00    +0.000 A 
ATOM      3  C   UNL     1       5.964   5.287  17.244  0.00  0.00    +0.000 A 
ATOM      4  C   UNL     1       5.035   6.337  16.779  0.00  0.00    +0.000 A 
ATOM      5  O   UNL     1       5.240   6.906  15.708  0.00  0.00    +0.000 OA
ATOM      6  C   UNL     1       3.892   6.696  17.651  0.00  0.00    +0.000 A 
ATOM      7  C   UNL     1       3.082   7.782  17.283  0.00  0.00    +0.000 A 
ATOM      8  C   UNL     1       2.028   8.189  18.107  0.00  0.00    +0.000 A 
ATOM      9  C   UNL     1       1.803   7.477  19.288  0.00  0.00    +0.000 A 
ATOM     10  C   UNL     1       2.608   6.388  19.644  0.00  0.00    +0.000 A 
ATOM     11  C   UNL     1       3.666   5.959  18.832  0.00  0.00    +0.000 A 
ENDROOT
BRANCH   3  12
ATOM     12  C   UNL     1       7.215   4.934  16.544  0.00  0.00    +0.000 C 
ATOM     13  O   UNL     1       8.095   4.246  17.042  0.00  0.00    +0.000 OA
BRANCH  12  14
ATOM     14  O   UNL     1       7.324   5.441  15.296  0.00  0.00    +0.000 OA
ATOM     15  H   UNL     1       6.455   5.564  14.838  0.00  0.00    +0.000 HD
ENDBRANCH  12  14
ENDBRANCH   3  12
BRANCH   1  16
ATOM     16  C   UNL     1       4.193   4.002  20.308  0.00  0.00    +0.000 C 
BRANCH  16  17
ATOM     17  C   UNL     1       3.279   2.818  19.958  0.00  0.00    +0.000 C 
BRANCH  17  19
ATOM     18  C   UNL     1       0.787   3.125  19.943  0.00  0.00    +0.000 C 
ATOM     19  C   UNL     1       1.997   2.756  20.788  0.00  0.00    +0.000 C 
ENDBRANCH  17  19
ENDBRANCH  16  17
ENDBRANCH   1  16
BRANCH   8  20
ATOM     20  C   UNL     1       1.143   9.355  17.724  0.00  0.00    +0.000 C 
BRANCH  20  21
ATOM     21  C   UNL     1       1.424  10.606  18.530  0.00  0.00    +0.000 A 
ATOM     22  C   UNL     1       2.389  11.507  18.038  0.00  0.00    +0.000 A 
ATOM     23  C   UNL     1       2.628  12.724  18.673  0.00  0.00    +0.000 A 
ATOM     24  C   UNL     1       1.898  13.067  19.808  0.00  0.00    +0.000 A 
ATOM     25  C   UNL     1       0.951  12.179  20.331  0.00  0.00    +0.000 A 
ATOM     26 CL   UNL     1       0.090  12.690  21.741  0.00  0.00    +0.000 Cl
ATOM     27  C   UNL     1       0.723  10.941  19.708  0.00  0.00    +0.000 A 
ATOM     28 CL   UNL     1      -0.400   9.821  20.413  0.00  0.00    +0.000 Cl
ENDBRANCH  20  21
ENDBRANCH   8  20
TORSDOF 7
ENDMDL
