MODEL 1
REMARK VINA RESULT:      -7.2      0.000      0.000
REMARK  Name = 
REMARK  6 active torsions:
REMARK  status: ('A' for Active; 'I' for Inactive)
REMARK    1  A    between atoms: C_1  and  C_2
REMARK    2  A    between atoms: C_2  and  N_3
REMARK    3  A    between atoms: N_3  and  C_21
REMARK    4  A    between atoms: C_4  and  C_6
REMARK    5  A    between atoms: C_6  and  N_7
REMARK    6  A    between atoms: C_16  and  C_17
REMARK                            x       y       z     vdW  Elec       q    Type
REMARK                         _______ _______ _______ _____ _____    ______ ____
ROOT
ATOM      1  N   UNL     1       2.590   5.849  19.424  0.00  0.00    +0.000 N 
ATOM      2  C   UNL     1       3.561   5.065  18.785  0.00  0.00    +0.000 A 
ATOM      3  N   UNL     1       4.705   5.669  18.281  0.00  0.00    +0.000 N 
ATOM      4  C   UNL     1       4.664   6.661  17.209  0.00  0.00    +0.000 C 
ATOM      5  C   UNL     1       5.390   6.181  15.964  0.00  0.00    +0.000 C 
ATOM      6  C   UNL     1       6.811   5.743  16.287  0.00  0.00    +0.000 C 
ATOM      7  C   UNL     1       6.800   4.686  17.387  0.00  0.00    +0.000 C 
ATOM      8  C   UNL     1       6.038   5.162  18.623  0.00  0.00    +0.000 C 
ATOM      9  N   UNL     1       3.431   3.771  18.674  0.00  0.00    +0.000 NA
ATOM     10  C   UNL     1       2.299   3.173  19.161  0.00  0.00    +0.000 A 
ATOM     11  C   UNL     1       2.090   1.719  18.863  0.00  0.00    +0.000 C 
ATOM     12  C   UNL     1       1.358   3.819  19.848  0.00  0.00    +0.000 A 
ATOM     13  C   UNL     1       1.513   5.257  20.056  0.00  0.00    +0.000 A 
ATOM     14  O   UNL     1       0.646   5.811  20.726  0.00  0.00    +0.000 OA
ENDROOT
BRANCH   1  15
ATOM     15  C   UNL     1       2.818   7.277  19.612  0.00  0.00    +0.000 C 
BRANCH  15  17
ATOM     16  N   UNL     1       1.168   9.180  19.818  0.00  0.00    +0.000 N 
ATOM     17  C   UNL     1       1.870   8.286  18.976  0.00  0.00    +0.000 C 
ATOM     18  O   UNL     1       1.818   8.266  17.740  0.00  0.00    +0.000 OA
BRANCH  16  19
ATOM     19  C   UNL     1       0.303  10.185  19.231  0.00  0.00    +0.000 A 
ATOM     20  C   UNL     1      -0.931   9.846  18.651  0.00  0.00    +0.000 A 
ATOM     21  C   UNL     1      -1.767  10.806  18.075  0.00  0.00    +0.000 A 
ATOM     22  C   UNL     1      -1.393  12.141  18.076  0.00  0.00    +0.000 A 
ATOM     23  C   UNL     1      -0.187  12.511  18.658  0.00  0.00    +0.000 A 
ATOM     24  C   UNL     1       0.649  11.545  19.232  0.00  0.00    +0.000 A 
ENDBRANCH  16  19
BRANCH  16  26
ATOM     25  C   UNL     1      -0.160   8.988  22.004  0.00  0.00    +0.000 C 
ATOM     26  C   UNL     1       1.187   9.102  21.298  0.00  0.00    +0.000 C 
ENDBRANCH  16  26
ENDBRANCH  15  17
ENDBRANCH   1  15
TORSDOF 4
ENDMDL
MODEL 2
REMARK VINA RESULT:      -6.9      1.384      3.735
REMARK  Name = 
REMARK  6 active torsions:
REMARK  status: ('A' for Active; 'I' for Inactive)
REMARK    1  A    between atoms: C_1  and  C_2
REMARK    2  A    between atoms: C_2  and  N_3
REMARK    3  A    between atoms: N_3  and  C_21
REMARK    4  A    between atoms: C_4  and  C_6
REMARK    5  A    between atoms: C_6  and  N_7
REMARK    6  A    between atoms: C_16  and  C_17
REMARK                            x       y       z     vdW  Elec       q    Type
REMARK                         _______ _______ _______ _____ _____    ______ ____
ROOT
ATOM      1  N   UNL     1       3.868   6.336  18.128  0.00  0.00    +0.000 N 
ATOM      2  C   UNL     1       3.418   5.015  17.987  0.00  0.00    +0.000 A 
ATOM      3  N   UNL     1       2.362   4.565  18.769  0.00  0.00    +0.000 N 
ATOM      4  C   UNL     1       2.441   4.483  20.226  0.00  0.00    +0.000 C 
ATOM      5  C   UNL     1       2.312   3.053  20.721  0.00  0.00    +0.000 C 
ATOM      6  C   UNL     1       1.055   2.390  20.175  0.00  0.00    +0.000 C 
ATOM      7  C   UNL     1       1.035   2.473  18.652  0.00  0.00    +0.000 C 
ATOM      8  C   UNL     1       1.200   3.910  18.160  0.00  0.00    +0.000 C 
ATOM      9  N   UNL     1       3.950   4.201  17.117  0.00  0.00    +0.000 NA
ATOM     10  C   UNL     1       4.998   4.639  16.352  0.00  0.00    +0.000 A 
ATOM     11  C   UNL     1       5.707   3.636  15.492  0.00  0.00    +0.000 C 
ATOM     12  C   UNL     1       5.447   5.894  16.359  0.00  0.00    +0.000 A 
ATOM     13  C   UNL     1       4.820   6.851  17.268  0.00  0.00    +0.000 A 
ATOM     14  O   UNL     1       5.233   8.005  17.219  0.00  0.00    +0.000 OA
ENDROOT
BRANCH   1  15
ATOM     15  C   UNL     1       3.184   7.242  19.044  0.00  0.00    +0.000 C 
BRANCH  15  17
ATOM     16  N   UNL     1       1.380   8.972  19.416  0.00  0.00    +0.000 N 
ATOM     17  C   UNL     1       2.195   8.265  18.500  0.00  0.00    +0.000 C 
ATOM     18  O   UNL     1       2.210   8.425  17.274  0.00  0.00    +0.000 OA
BRANCH  16  19
ATOM     19  C   UNL     1       0.469   9.988  18.926  0.00  0.00    +0.000 A 
ATOM     20  C   UNL     1       0.706  11.356  19.142  0.00  0.00    +0.000 A 
ATOM     21  C   UNL     1      -0.171  12.341  18.682  0.00  0.00    +0.000 A 
ATOM     22  C   UNL     1      -1.309  11.982  17.978  0.00  0.00    +0.000 A 
ATOM     23  C   UNL     1      -1.563  10.639  17.732  0.00  0.00    +0.000 A 
ATOM     24  C   UNL     1      -0.682   9.654  18.198  0.00  0.00    +0.000 A 
ENDBRANCH  16  19
BRANCH  16  26
ATOM     25  C   UNL     1      -0.056   8.567  21.503  0.00  0.00    +0.000 C 
ATOM     26  C   UNL     1       1.326   8.676  20.868  0.00  0.00    +0.000 C 
ENDBRANCH  16  26
ENDBRANCH  15  17
ENDBRANCH   1  15
TORSDOF 4
ENDMDL
MODEL 3
REMARK VINA RESULT:      -6.6      1.796      2.745
REMARK  Name = 
REMARK  6 active torsions:
REMARK  status: ('A' for Active; 'I' for Inactive)
REMARK    1  A    between atoms: C_1  and  C_2
REMARK    2  A    between atoms: C_2  and  N_3
REMARK    3  A    between atoms: N_3  and  C_21
REMARK    4  A    between atoms: C_4  and  C_6
REMARK    5  A    between atoms: C_6  and  N_7
REMARK    6  A    between atoms: C_16  and  C_17
REMARK                            x       y       z     vdW  Elec       q    Type
REMARK                         _______ _______ _______ _____ _____    ______ ____
ROOT
ATOM      1  N   UNL     1       2.969   5.172  17.819  0.00  0.00    +0.000 N 
ATOM      2  C   UNL     1       4.280   4.778  18.122  0.00  0.00    +0.000 A 
ATOM      3  N   UNL     1       5.241   5.744  18.390  0.00  0.00    +0.000 N 
ATOM      4  C   UNL     1       5.665   6.728  17.397  0.00  0.00    +0.000 C 
ATOM      5  C   UNL     1       7.134   6.576  17.040  0.00  0.00    +0.000 C 
ATOM      6  C   UNL     1       8.011   6.599  18.283  0.00  0.00    +0.000 C 
ATOM      7  C   UNL     1       7.549   5.535  19.274  0.00  0.00    +0.000 C 
ATOM      8  C   UNL     1       6.063   5.672  19.602  0.00  0.00    +0.000 C 
ATOM      9  N   UNL     1       4.618   3.518  18.186  0.00  0.00    +0.000 NA
ATOM     10  C   UNL     1       3.675   2.564  17.911  0.00  0.00    +0.000 A 
ATOM     11  C   UNL     1       4.128   1.138  17.814  0.00  0.00    +0.000 C 
ATOM     12  C   UNL     1       2.389   2.835  17.688  0.00  0.00    +0.000 A 
ATOM     13  C   UNL     1       1.964   4.233  17.686  0.00  0.00    +0.000 A 
ATOM     14  O   UNL     1       0.767   4.441  17.515  0.00  0.00    +0.000 OA
ENDROOT
BRANCH   1  15
ATOM     15  C   UNL     1       2.610   6.586  17.852  0.00  0.00    +0.000 C 
BRANCH  15  17
ATOM     16  N   UNL     1       1.497   8.496  19.076  0.00  0.00    +0.000 N 
ATOM     17  C   UNL     1       2.062   7.199  19.133  0.00  0.00    +0.000 C 
ATOM     18  O   UNL     1       2.123   6.482  20.139  0.00  0.00    +0.000 OA
BRANCH  16  19
ATOM     19  C   UNL     1       0.920   9.078  20.272  0.00  0.00    +0.000 A 
ATOM     20  C   UNL     1      -0.150   9.985  20.208  0.00  0.00    +0.000 A 
ATOM     21  C   UNL     1      -0.705  10.558  21.355  0.00  0.00    +0.000 A 
ATOM     22  C   UNL     1      -0.209  10.225  22.606  0.00  0.00    +0.000 A 
ATOM     23  C   UNL     1       0.838   9.317  22.705  0.00  0.00    +0.000 A 
ATOM     24  C   UNL     1       1.393   8.748  21.552  0.00  0.00    +0.000 A 
ENDBRANCH  16  19
BRANCH  16  26
ATOM     25  C   UNL     1       2.334  10.652  17.968  0.00  0.00    +0.000 C 
ATOM     26  C   UNL     1       1.535   9.357  17.870  0.00  0.00    +0.000 C 
ENDBRANCH  16  26
ENDBRANCH  15  17
ENDBRANCH   1  15
TORSDOF 4
ENDMDL
MODEL 4
REMARK VINA RESULT:      -6.6      3.544      8.831
REMARK  Name = 
REMARK  6 active torsions:
REMARK  status: ('A' for Active; 'I' for Inactive)
REMARK    1  A    between atoms: C_1  and  C_2
REMARK    2  A    between atoms: C_2  and  N_3
REMARK    3  A    between atoms: N_3  and  C_21
REMARK    4  A    between atoms: C_4  and  C_6
REMARK    5  A    between atoms: C_6  and  N_7
REMARK    6  A    between atoms: C_16  and  C_17
REMARK                            x       y       z     vdW  Elec       q    Type
REMARK                         _______ _______ _______ _____ _____    ______ ____
ROOT
ATOM      1  N   UNL     1      -2.918  11.909  18.438  0.00  0.00    +0.000 N 
ATOM      2  C   UNL     1      -3.440  12.407  19.640  0.00  0.00    +0.000 A 
ATOM      3  N   UNL     1      -2.574  12.854  20.630  0.00  0.00    +0.000 N 
ATOM      4  C   UNL     1      -1.621  11.971  21.299  0.00  0.00    +0.000 C 
ATOM      5  C   UNL     1      -1.909  11.851  22.786  0.00  0.00    +0.000 C 
ATOM      6  C   UNL     1      -1.987  13.219  23.447  0.00  0.00    +0.000 C 
ATOM      7  C   UNL     1      -3.016  14.091  22.734  0.00  0.00    +0.000 C 
ATOM      8  C   UNL     1      -2.741  14.180  21.234  0.00  0.00    +0.000 C 
ATOM      9  N   UNL     1      -4.727  12.487  19.845  0.00  0.00    +0.000 NA
ATOM     10  C   UNL     1      -5.583  12.037  18.875  0.00  0.00    +0.000 A 
ATOM     11  C   UNL     1      -7.044  11.972  19.205  0.00  0.00    +0.000 C 
ATOM     12  C   UNL     1      -5.187  11.618  17.674  0.00  0.00    +0.000 A 
ATOM     13  C   UNL     1      -3.754  11.589  17.386  0.00  0.00    +0.000 A 
ATOM     14  O   UNL     1      -3.429  11.235  16.257  0.00  0.00    +0.000 OA
ENDROOT
BRANCH   1  15
ATOM     15  C   UNL     1      -1.477  11.925  18.211  0.00  0.00    +0.000 C 
BRANCH  15  17
ATOM     16  N   UNL     1       0.600  10.615  18.809  0.00  0.00    +0.000 N 
ATOM     17  C   UNL     1      -0.691  10.620  18.230  0.00  0.00    +0.000 C 
ATOM     18  O   UNL     1      -1.275   9.637  17.759  0.00  0.00    +0.000 OA
BRANCH  16  19
ATOM     19  C   UNL     1       1.344   9.373  18.887  0.00  0.00    +0.000 A 
ATOM     20  C   UNL     1       1.314   8.568  20.038  0.00  0.00    +0.000 A 
ATOM     21  C   UNL     1       2.035   7.374  20.125  0.00  0.00    +0.000 A 
ATOM     22  C   UNL     1       2.800   6.946  19.051  0.00  0.00    +0.000 A 
ATOM     23  C   UNL     1       2.837   7.712  17.892  0.00  0.00    +0.000 A 
ATOM     24  C   UNL     1       2.114   8.909  17.810  0.00  0.00    +0.000 A 
ENDBRANCH  16  19
BRANCH  16  26
ATOM     25  C   UNL     1       2.194  12.550  18.263  0.00  0.00    +0.000 C 
ATOM     26  C   UNL     1       1.298  11.838  19.272  0.00  0.00    +0.000 C 
ENDBRANCH  16  26
ENDBRANCH  15  17
ENDBRANCH   1  15
TORSDOF 4
ENDMDL
MODEL 5
REMARK VINA RESULT:      -6.6      3.828      9.036
REMARK  Name = 
REMARK  6 active torsions:
REMARK  status: ('A' for Active; 'I' for Inactive)
REMARK    1  A    between atoms: C_1  and  C_2
REMARK    2  A    between atoms: C_2  and  N_3
REMARK    3  A    between atoms: N_3  and  C_21
REMARK    4  A    between atoms: C_4  and  C_6
REMARK    5  A    between atoms: C_6  and  N_7
REMARK    6  A    between atoms: C_16  and  C_17
REMARK                            x       y       z     vdW  Elec       q    Type
REMARK                         _______ _______ _______ _____ _____    ______ ____
ROOT
ATOM      1  N   UNL     1      -3.363  11.988  18.716  0.00  0.00    +0.000 N 
ATOM      2  C   UNL     1      -3.835  12.509  19.929  0.00  0.00    +0.000 A 
ATOM      3  N   UNL     1      -2.929  12.979  20.871  0.00  0.00    +0.000 N 
ATOM      4  C   UNL     1      -1.945  12.113  21.517  0.00  0.00    +0.000 C 
ATOM      5  C   UNL     1      -2.168  12.022  23.017  0.00  0.00    +0.000 C 
ATOM      6  C   UNL     1      -2.223  13.403  23.652  0.00  0.00    +0.000 C 
ATOM      7  C   UNL     1      -3.284  14.258  22.967  0.00  0.00    +0.000 C 
ATOM      8  C   UNL     1      -3.075  14.317  21.455  0.00  0.00    +0.000 C 
ATOM      9  N   UNL     1      -5.112  12.590  20.188  0.00  0.00    +0.000 NA
ATOM     10  C   UNL     1      -6.008  12.118  19.265  0.00  0.00    +0.000 A 
ATOM     11  C   UNL     1      -7.453  12.056  19.659  0.00  0.00    +0.000 C 
ATOM     12  C   UNL     1      -5.662  11.676  18.057  0.00  0.00    +0.000 A 
ATOM     13  C   UNL     1      -4.243  11.645  17.708  0.00  0.00    +0.000 A 
ATOM     14  O   UNL     1      -3.966  11.268  16.573  0.00  0.00    +0.000 OA
ENDROOT
BRANCH   1  15
ATOM     15  C   UNL     1      -1.934  12.004  18.427  0.00  0.00    +0.000 C 
BRANCH  15  17
ATOM     16  N   UNL     1       0.259  10.799  18.784  0.00  0.00    +0.000 N 
ATOM     17  C   UNL     1      -1.128  10.714  18.516  0.00  0.00    +0.000 C 
ATOM     18  O   UNL     1      -1.775   9.669  18.380  0.00  0.00    +0.000 OA
BRANCH  16  19
ATOM     19  C   UNL     1       1.035   9.583  18.927  0.00  0.00    +0.000 A 
ATOM     20  C   UNL     1       1.753   9.036  17.850  0.00  0.00    +0.000 A 
ATOM     21  C   UNL     1       2.496   7.860  17.977  0.00  0.00    +0.000 A 
ATOM     22  C   UNL     1       2.551   7.202  19.196  0.00  0.00    +0.000 A 
ATOM     23  C   UNL     1       1.866   7.727  20.285  0.00  0.00    +0.000 A 
ATOM     24  C   UNL     1       1.120   8.905  20.153  0.00  0.00    +0.000 A 
ENDBRANCH  16  19
BRANCH  16  26
ATOM     25  C   UNL     1       1.454  12.558  20.218  0.00  0.00    +0.000 C 
ATOM     26  C   UNL     1       1.009  12.076  18.841  0.00  0.00    +0.000 C 
ENDBRANCH  16  26
ENDBRANCH  15  17
ENDBRANCH   1  15
TORSDOF 4
ENDMDL
MODEL 6
REMARK VINA RESULT:      -6.5      1.359      3.573
REMARK  Name = 
REMARK  6 active torsions:
REMARK  status: ('A' for Active; 'I' for Inactive)
REMARK    1  A    between atoms: C_1  and  C_2
REMARK    2  A    between atoms: C_2  and  N_3
REMARK    3  A    between atoms: N_3  and  C_21
REMARK    4  A    between atoms: C_4  and  C_6
REMARK    5  A    between atoms: C_6  and  N_7
REMARK    6  A    between atoms: C_16  and  C_17
REMARK                            x       y       z     vdW  Elec       q    Type
REMARK                         _______ _______ _______ _____ _____    ______ ____
ROOT
ATOM      1  N   UNL     1       3.278   6.451  18.586  0.00  0.00    +0.000 N 
ATOM      2  C   UNL     1       3.018   5.073  18.627  0.00  0.00    +0.000 A 
ATOM      3  N   UNL     1       2.104   4.576  19.547  0.00  0.00    +0.000 N 
ATOM      4  C   UNL     1       2.307   4.677  20.991  0.00  0.00    +0.000 C 
ATOM      5  C   UNL     1       2.429   3.311  21.643  0.00  0.00    +0.000 C 
ATOM      6  C   UNL     1       1.245   2.422  21.290  0.00  0.00    +0.000 C 
ATOM      7  C   UNL     1       1.095   2.322  19.775  0.00  0.00    +0.000 C 
ATOM      8  C   UNL     1       1.008   3.700  19.122  0.00  0.00    +0.000 C 
ATOM      9  N   UNL     1       3.596   4.244  17.801  0.00  0.00    +0.000 NA
ATOM     10  C   UNL     1       4.505   4.730  16.900  0.00  0.00    +0.000 A 
ATOM     11  C   UNL     1       5.285   3.740  16.088  0.00  0.00    +0.000 C 
ATOM     12  C   UNL     1       4.762   6.027  16.733  0.00  0.00    +0.000 A 
ATOM     13  C   UNL     1       4.074   6.988  17.593  0.00  0.00    +0.000 A 
ATOM     14  O   UNL     1       4.307   8.174  17.384  0.00  0.00    +0.000 OA
ENDROOT
BRANCH   1  15
ATOM     15  C   UNL     1       2.541   7.355  19.462  0.00  0.00    +0.000 C 
BRANCH  15  17
ATOM     16  N   UNL     1       1.038   9.368  19.735  0.00  0.00    +0.000 N 
ATOM     17  C   UNL     1       1.680   8.458  18.861  0.00  0.00    +0.000 C 
ATOM     18  O   UNL     1       1.639   8.493  17.626  0.00  0.00    +0.000 OA
BRANCH  16  19
ATOM     19  C   UNL     1       0.257  10.458  19.184  0.00  0.00    +0.000 A 
ATOM     20  C   UNL     1      -1.037  10.255  18.676  0.00  0.00    +0.000 A 
ATOM     21  C   UNL     1      -1.792  11.298  18.134  0.00  0.00    +0.000 A 
ATOM     22  C   UNL     1      -1.274  12.583  18.098  0.00  0.00    +0.000 A 
ATOM     23  C   UNL     1      -0.004  12.821  18.609  0.00  0.00    +0.000 A 
ATOM     24  C   UNL     1       0.751  11.771  19.148  0.00  0.00    +0.000 A 
ENDBRANCH  16  19
BRANCH  16  26
ATOM     25  C   UNL     1      -0.193   8.581  21.844  0.00  0.00    +0.000 C 
ATOM     26  C   UNL     1       1.035   9.228  21.210  0.00  0.00    +0.000 C 
ENDBRANCH  16  26
ENDBRANCH  15  17
ENDBRANCH   1  15
TORSDOF 4
ENDMDL
MODEL 7
REMARK VINA RESULT:      -6.2      1.588      4.120
REMARK  Name = 
REMARK  6 active torsions:
REMARK  status: ('A' for Active; 'I' for Inactive)
REMARK    1  A    between atoms: C_1  and  C_2
REMARK    2  A    between atoms: C_2  and  N_3
REMARK    3  A    between atoms: N_3  and  C_21
REMARK    4  A    between atoms: C_4  and  C_6
REMARK    5  A    between atoms: C_6  and  N_7
REMARK    6  A    between atoms: C_16  and  C_17
REMARK                            x       y       z     vdW  Elec       q    Type
REMARK                         _______ _______ _______ _____ _____    ______ ____
ROOT
ATOM      1  N   UNL     1       2.661   6.808  18.423  0.00  0.00    +0.000 N 
ATOM      2  C   UNL     1       2.971   5.460  18.654  0.00  0.00    +0.000 A 
ATOM      3  N   UNL     1       2.070   4.658  19.341  0.00  0.00    +0.000 N 
ATOM      4  C   UNL     1       1.694   4.908  20.731  0.00  0.00    +0.000 C 
ATOM      5  C   UNL     1       2.110   3.767  21.644  0.00  0.00    +0.000 C 
ATOM      6  C   UNL     1       1.582   2.433  21.138  0.00  0.00    +0.000 C 
ATOM      7  C   UNL     1       2.026   2.203  19.696  0.00  0.00    +0.000 C 
ATOM      8  C   UNL     1       1.636   3.370  18.790  0.00  0.00    +0.000 C 
ATOM      9  N   UNL     1       4.080   4.929  18.215  0.00  0.00    +0.000 NA
ATOM     10  C   UNL     1       4.976   5.721  17.547  0.00  0.00    +0.000 A 
ATOM     11  C   UNL     1       6.315   5.136  17.212  0.00  0.00    +0.000 C 
ATOM     12  C   UNL     1       4.739   6.989  17.213  0.00  0.00    +0.000 A 
ATOM     13  C   UNL     1       3.472   7.590  17.624  0.00  0.00    +0.000 A 
ATOM     14  O   UNL     1       3.273   8.747  17.266  0.00  0.00    +0.000 OA
ENDROOT
BRANCH   1  15
ATOM     15  C   UNL     1       1.370   7.338  18.847  0.00  0.00    +0.000 C 
BRANCH  15  17
ATOM     16  N   UNL     1       0.591   9.703  19.277  0.00  0.00    +0.000 N 
ATOM     17  C   UNL     1       1.312   8.575  19.734  0.00  0.00    +0.000 C 
ATOM     18  O   UNL     1       1.884   8.477  20.826  0.00  0.00    +0.000 OA
BRANCH  16  19
ATOM     19  C   UNL     1       0.477  10.872  20.129  0.00  0.00    +0.000 A 
ATOM     20  C   UNL     1       1.255  12.021  19.910  0.00  0.00    +0.000 A 
ATOM     21  C   UNL     1       1.159  13.147  20.731  0.00  0.00    +0.000 A 
ATOM     22  C   UNL     1       0.266  13.158  21.792  0.00  0.00    +0.000 A 
ATOM     23  C   UNL     1      -0.530  12.044  22.024  0.00  0.00    +0.000 A 
ATOM     24  C   UNL     1      -0.428  10.915  21.200  0.00  0.00    +0.000 A 
ENDBRANCH  16  19
BRANCH  16  26
ATOM     25  C   UNL     1      -1.459  10.230  17.828  0.00  0.00    +0.000 C 
ATOM     26  C   UNL     1       0.004   9.810  17.921  0.00  0.00    +0.000 C 
ENDBRANCH  16  26
ENDBRANCH  15  17
ENDBRANCH   1  15
TORSDOF 4
ENDMDL
MODEL 8
REMARK VINA RESULT:      -6.2      1.694      4.090
REMARK  Name = 
REMARK  6 active torsions:
REMARK  status: ('A' for Active; 'I' for Inactive)
REMARK    1  A    between atoms: C_1  and  C_2
REMARK    2  A    between atoms: C_2  and  N_3
REMARK    3  A    between atoms: N_3  and  C_21
REMARK    4  A    between atoms: C_4  and  C_6
REMARK    5  A    between atoms: C_6  and  N_7
REMARK    6  A    between atoms: C_16  and  C_17
REMARK                            x       y       z     vdW  Elec       q    Type
REMARK                         _______ _______ _______ _____ _____    ______ ____
ROOT
ATOM      1  N   UNL     1       2.418   7.030  18.549  0.00  0.00    +0.000 N 
ATOM      2  C   UNL     1       2.745   5.672  18.676  0.00  0.00    +0.000 A 
ATOM      3  N   UNL     1       1.909   4.831  19.399  0.00  0.00    +0.000 N 
ATOM      4  C   UNL     1       1.665   5.004  20.829  0.00  0.00    +0.000 C 
ATOM      5  C   UNL     1       2.161   3.815  21.635  0.00  0.00    +0.000 C 
ATOM      6  C   UNL     1       1.584   2.510  21.108  0.00  0.00    +0.000 C 
ATOM      7  C   UNL     1       1.891   2.361  19.621  0.00  0.00    +0.000 C 
ATOM      8  C   UNL     1       1.422   3.575  18.820  0.00  0.00    +0.000 C 
ATOM      9  N   UNL     1       3.807   5.168  18.107  0.00  0.00    +0.000 NA
ATOM     10  C   UNL     1       4.638   5.997  17.402  0.00  0.00    +0.000 A 
ATOM     11  C   UNL     1       5.939   5.434  16.912  0.00  0.00    +0.000 C 
ATOM     12  C   UNL     1       4.376   7.281  17.162  0.00  0.00    +0.000 A 
ATOM     13  C   UNL     1       3.154   7.857  17.722  0.00  0.00    +0.000 A 
ATOM     14  O   UNL     1       2.926   9.031  17.448  0.00  0.00    +0.000 OA
ENDROOT
BRANCH   1  15
ATOM     15  C   UNL     1       1.174   7.533  19.120  0.00  0.00    +0.000 C 
BRANCH  15  17
ATOM     16  N   UNL     1       0.453   9.927  19.489  0.00  0.00    +0.000 N 
ATOM     17  C   UNL     1       1.183   8.808  19.954  0.00  0.00    +0.000 C 
ATOM     18  O   UNL     1       1.815   8.747  21.015  0.00  0.00    +0.000 OA
BRANCH  16  19
ATOM     19  C   UNL     1       0.403  11.132  20.293  0.00  0.00    +0.000 A 
ATOM     20  C   UNL     1      -0.492  11.265  21.368  0.00  0.00    +0.000 A 
ATOM     21  C   UNL     1      -0.553  12.427  22.141  0.00  0.00    +0.000 A 
ATOM     22  C   UNL     1       0.295  13.488  21.866  0.00  0.00    +0.000 A 
ATOM     23  C   UNL     1       1.204  13.382  20.822  0.00  0.00    +0.000 A 
ATOM     24  C   UNL     1       1.260  12.216  20.047  0.00  0.00    +0.000 A 
ENDBRANCH  16  19
BRANCH  16  26
ATOM     25  C   UNL     1      -1.700  10.301  18.145  0.00  0.00    +0.000 C 
ATOM     26  C   UNL     1      -0.208   9.985  18.164  0.00  0.00    +0.000 C 
ENDBRANCH  16  26
ENDBRANCH  15  17
ENDBRANCH   1  15
TORSDOF 4
ENDMDL
MODEL 9
REMARK VINA RESULT:      -6.0      1.486      4.115
REMARK  Name = 
REMARK  6 active torsions:
REMARK  status: ('A' for Active; 'I' for Inactive)
REMARK    1  A    between atoms: C_1  and  C_2
REMARK    2  A    between atoms: C_2  and  N_3
REMARK    3  A    between atoms: N_3  and  C_21
REMARK    4  A    between atoms: C_4  and  C_6
REMARK    5  A    between atoms: C_6  and  N_7
REMARK    6  A    between atoms: C_16  and  C_17
REMARK                            x       y       z     vdW  Elec       q    Type
REMARK                         _______ _______ _______ _____ _____    ______ ____
ROOT
ATOM      1  N   UNL     1       3.783   6.506  17.907  0.00  0.00    +0.000 N 
ATOM      2  C   UNL     1       3.894   5.109  17.957  0.00  0.00    +0.000 A 
ATOM      3  N   UNL     1       2.753   4.337  18.126  0.00  0.00    +0.000 N 
ATOM      4  C   UNL     1       1.925   4.409  19.328  0.00  0.00    +0.000 C 
ATOM      5  C   UNL     1       1.906   3.090  20.082  0.00  0.00    +0.000 C 
ATOM      6  C   UNL     1       1.500   1.939  19.174  0.00  0.00    +0.000 C 
ATOM      7  C   UNL     1       2.412   1.886  17.951  0.00  0.00    +0.000 C 
ATOM      8  C   UNL     1       2.454   3.225  17.217  0.00  0.00    +0.000 C 
ATOM      9  N   UNL     1       5.046   4.510  17.821  0.00  0.00    +0.000 NA
ATOM     10  C   UNL     1       6.175   5.270  17.665  0.00  0.00    +0.000 A 
ATOM     11  C   UNL     1       7.500   4.570  17.692  0.00  0.00    +0.000 C 
ATOM     12  C   UNL     1       6.163   6.595  17.529  0.00  0.00    +0.000 A 
ATOM     13  C   UNL     1       4.879   7.289  17.600  0.00  0.00    +0.000 A 
ATOM     14  O   UNL     1       4.903   8.505  17.433  0.00  0.00    +0.000 OA
ENDROOT
BRANCH   1  15
ATOM     15  C   UNL     1       2.466   7.132  17.967  0.00  0.00    +0.000 C 
BRANCH  15  17
ATOM     16  N   UNL     1       1.102   8.873  19.189  0.00  0.00    +0.000 N 
ATOM     17  C   UNL     1       1.990   7.774  19.263  0.00  0.00    +0.000 C 
ATOM     18  O   UNL     1       2.400   7.245  20.304  0.00  0.00    +0.000 OA
BRANCH  16  19
ATOM     19  C   UNL     1       0.594   9.465  20.411  0.00  0.00    +0.000 A 
ATOM     20  C   UNL     1      -0.006   8.686  21.413  0.00  0.00    +0.000 A 
ATOM     21  C   UNL     1      -0.507   9.249  22.589  0.00  0.00    +0.000 A 
ATOM     22  C   UNL     1      -0.409  10.616  22.800  0.00  0.00    +0.000 A 
ATOM     23  C   UNL     1       0.194  11.413  21.835  0.00  0.00    +0.000 A 
ATOM     24  C   UNL     1       0.693  10.843  20.656  0.00  0.00    +0.000 A 
ENDBRANCH  16  19
BRANCH  16  26
ATOM     25  C   UNL     1      -0.770   9.791  17.695  0.00  0.00    +0.000 C 
ATOM     26  C   UNL     1       0.717   9.534  17.920  0.00  0.00    +0.000 C 
ENDBRANCH  16  26
ENDBRANCH  15  17
ENDBRANCH   1  15
TORSDOF 4
ENDMDL
