MODEL 1
REMARK VINA RESULT:      -8.6      0.000      0.000
REMARK  Name = 
REMARK  5 active torsions:
REMARK  status: ('A' for Active; 'I' for Inactive)
REMARK    1  A    between atoms: C_1  and  S_2
REMARK    2  A    between atoms: S_2  and  C_5
REMARK    3  A    between atoms: C_8  and  C_9
REMARK    4  A    between atoms: C_9  and  C_16
REMARK    5  A    between atoms: C_10  and  C_11
REMARK                            x       y       z     vdW  Elec       q    Type
REMARK                         _______ _______ _______ _____ _____    ______ ____
ROOT
ATOM      1  C   UNL     1       2.390   6.458  19.656  0.00  0.00    +0.000 C 
ATOM      2  C   UNL     1       1.805   5.461  20.356  0.00  0.00    +0.000 C 
ENDROOT
BRANCH   1   3
ATOM      3  C   UNL     1       1.946   7.797  19.912  0.00  0.00    +0.000 A 
ATOM      4  C   UNL     1       1.551   8.853  19.103  0.00  0.00    +0.000 A 
ATOM      5  C   UNL     1       0.882   9.805  19.921  0.00  0.00    +0.000 A 
ATOM      6  C   UNL     1       0.124  10.965  19.692  0.00  0.00    +0.000 A 
ATOM      7  C   UNL     1      -0.474  11.559  20.803  0.00  0.00    +0.000 A 
ATOM      8 BR   UNL     1      -1.611  13.050  20.578  0.00  0.00    +0.000 Br
ATOM      9  C   UNL     1      -0.257  11.022  22.067  0.00  0.00    +0.000 A 
ATOM     10  N   UNL     1       0.496   9.928  22.340  0.00  0.00    +0.000 NA
ATOM     11  C   UNL     1       1.009   9.364  21.231  0.00  0.00    +0.000 A 
ATOM     12  N   UNL     1       1.720   8.196  21.214  0.00  0.00    +0.000 N 
ATOM     13  H   UNL     1       1.920   7.663  22.048  0.00  0.00    +0.000 HD
ENDBRANCH   1   3
BRANCH   1  17
ATOM     14  C   UNL     1       5.798   5.467  17.235  0.00  0.00    +0.000 A 
ATOM     15  C   UNL     1       4.516   5.538  16.668  0.00  0.00    +0.000 A 
ATOM     16  C   UNL     1       3.415   5.890  17.453  0.00  0.00    +0.000 A 
ATOM     17  C   UNL     1       3.581   6.185  18.811  0.00  0.00    +0.000 A 
ATOM     18  C   UNL     1       4.864   6.122  19.371  0.00  0.00    +0.000 A 
ATOM     19  C   UNL     1       5.971   5.752  18.589  0.00  0.00    +0.000 A 
ATOM     20 CL   UNL     1       7.486   5.661  19.411  0.00  0.00    +0.000 Cl
BRANCH  14  22
ATOM     21  C   UNL     1       6.397   3.909  14.942  0.00  0.00    +0.000 C 
ATOM     22  S   UNL     1       7.133   4.933  16.187  0.00  0.00    +0.000 S 
ATOM     23  O   UNL     1       7.981   4.062  16.983  0.00  0.00    +0.000 OA
ATOM     24  O   UNL     1       7.693   6.113  15.564  0.00  0.00    +0.000 OA
ENDBRANCH  14  22
ENDBRANCH   1  17
BRANCH   2  25
ATOM     25  C   UNL     1       2.252   4.027  20.470  0.00  0.00    +0.000 C 
ATOM     26  C   UNL     1       1.731   3.370  21.752  0.00  0.00    +0.000 C 
ATOM     27  C   UNL     1       2.023   1.891  21.524  0.00  0.00    +0.000 C 
ATOM     28  C   UNL     1       1.927   1.688  20.009  0.00  0.00    +0.000 C 
ATOM     29  C   UNL     1       1.693   3.079  19.409  0.00  0.00    +0.000 C 
ENDBRANCH   2  25
TORSDOF 4
ENDMDL
MODEL 2
REMARK VINA RESULT:      -8.4      0.803      1.084
REMARK  Name = 
REMARK  5 active torsions:
REMARK  status: ('A' for Active; 'I' for Inactive)
REMARK    1  A    between atoms: C_1  and  S_2
REMARK    2  A    between atoms: S_2  and  C_5
REMARK    3  A    between atoms: C_8  and  C_9
REMARK    4  A    between atoms: C_9  and  C_16
REMARK    5  A    between atoms: C_10  and  C_11
REMARK                            x       y       z     vdW  Elec       q    Type
REMARK                         _______ _______ _______ _____ _____    ______ ____
ROOT
ATOM      1  C   UNL     1       2.260   6.153  19.638  0.00  0.00    +0.000 C 
ATOM      2  C   UNL     1       1.587   5.080  20.109  0.00  0.00    +0.000 C 
ENDROOT
BRANCH   1   3
ATOM      3  C   UNL     1       1.861   7.447  20.111  0.00  0.00    +0.000 A 
ATOM      4  C   UNL     1       1.546   8.647  19.488  0.00  0.00    +0.000 A 
ATOM      5  C   UNL     1       0.882   9.471  20.437  0.00  0.00    +0.000 A 
ATOM      6  C   UNL     1       0.184  10.689  20.391  0.00  0.00    +0.000 A 
ATOM      7  C   UNL     1      -0.436  11.108  21.567  0.00  0.00    +0.000 A 
ATOM      8 BR   UNL     1      -1.499  12.669  21.570  0.00  0.00    +0.000 Br
ATOM      9  C   UNL     1      -0.296  10.348  22.723  0.00  0.00    +0.000 A 
ATOM     10  N   UNL     1       0.398   9.187  22.825  0.00  0.00    +0.000 NA
ATOM     11  C   UNL     1       0.934   8.802  21.652  0.00  0.00    +0.000 A 
ATOM     12  N   UNL     1       1.596   7.622  21.454  0.00  0.00    +0.000 N 
ATOM     13  H   UNL     1       1.737   6.942  22.187  0.00  0.00    +0.000 HD
ENDBRANCH   1   3
BRANCH   1  17
ATOM     14  C   UNL     1       5.791   5.423  17.300  0.00  0.00    +0.000 A 
ATOM     15  C   UNL     1       4.524   5.437  16.696  0.00  0.00    +0.000 A 
ATOM     16  C   UNL     1       3.381   5.705  17.454  0.00  0.00    +0.000 A 
ATOM     17  C   UNL     1       3.489   5.971  18.824  0.00  0.00    +0.000 A 
ATOM     18  C   UNL     1       4.757   5.965  19.421  0.00  0.00    +0.000 A 
ATOM     19  C   UNL     1       5.906   5.680  18.666  0.00  0.00    +0.000 A 
ATOM     20 CL   UNL     1       7.399   5.653  19.532  0.00  0.00    +0.000 Cl
BRANCH  14  22
ATOM     21  C   UNL     1       6.534   4.031  14.944  0.00  0.00    +0.000 C 
ATOM     22  S   UNL     1       7.184   4.993  16.282  0.00  0.00    +0.000 S 
ATOM     23  O   UNL     1       8.024   4.098  17.059  0.00  0.00    +0.000 OA
ATOM     24  O   UNL     1       7.735   6.226  15.758  0.00  0.00    +0.000 OA
ENDBRANCH  14  22
ENDBRANCH   1  17
BRANCH   2  25
ATOM     25  C   UNL     1       1.960   3.627  19.982  0.00  0.00    +0.000 C 
ATOM     26  C   UNL     1       1.730   3.104  18.560  0.00  0.00    +0.000 C 
ATOM     27  C   UNL     1       2.440   1.755  18.570  0.00  0.00    +0.000 C 
ATOM     28  C   UNL     1       3.596   1.913  19.563  0.00  0.00    +0.000 C 
ATOM     29  C   UNL     1       3.444   3.311  20.171  0.00  0.00    +0.000 C 
ENDBRANCH   2  25
TORSDOF 4
ENDMDL
MODEL 3
REMARK VINA RESULT:      -8.3      0.987      1.003
REMARK  Name = 
REMARK  5 active torsions:
REMARK  status: ('A' for Active; 'I' for Inactive)
REMARK    1  A    between atoms: C_1  and  S_2
REMARK    2  A    between atoms: S_2  and  C_5
REMARK    3  A    between atoms: C_8  and  C_9
REMARK    4  A    between atoms: C_9  and  C_16
REMARK    5  A    between atoms: C_10  and  C_11
REMARK                            x       y       z     vdW  Elec       q    Type
REMARK                         _______ _______ _______ _____ _____    ______ ____
ROOT
ATOM      1  C   UNL     1       2.345   6.744  19.088  0.00  0.00    +0.000 C 
ATOM      2  C   UNL     1       1.747   5.836  19.891  0.00  0.00    +0.000 C 
ENDROOT
BRANCH   1   3
ATOM      3  C   UNL     1       1.997   8.123  19.274  0.00  0.00    +0.000 A 
ATOM      4  C   UNL     1       1.668   9.160  18.411  0.00  0.00    +0.000 A 
ATOM      5  C   UNL     1       1.075  10.198  19.180  0.00  0.00    +0.000 A 
ATOM      6  C   UNL     1       0.398  11.395  18.894  0.00  0.00    +0.000 A 
ATOM      7  C   UNL     1      -0.146  12.088  19.974  0.00  0.00    +0.000 A 
ATOM      8 BR   UNL     1      -1.178  13.641  19.675  0.00  0.00    +0.000 Br
ATOM      9  C   UNL     1       0.046  11.606  21.264  0.00  0.00    +0.000 A 
ATOM     10  N   UNL     1       0.723  10.477  21.592  0.00  0.00    +0.000 NA
ATOM     11  C   UNL     1       1.184   9.821  20.511  0.00  0.00    +0.000 A 
ATOM     12  N   UNL     1       1.812   8.606  20.553  0.00  0.00    +0.000 N 
ATOM     13  H   UNL     1       1.983   8.106  21.414  0.00  0.00    +0.000 HD
ENDBRANCH   1   3
BRANCH   1  17
ATOM     14  C   UNL     1       5.645   5.455  16.658  0.00  0.00    +0.000 A 
ATOM     15  C   UNL     1       4.467   4.693  16.726  0.00  0.00    +0.000 A 
ATOM     16  C   UNL     1       3.385   5.132  17.494  0.00  0.00    +0.000 A 
ATOM     17  C   UNL     1       3.461   6.340  18.196  0.00  0.00    +0.000 A 
ATOM     18  C   UNL     1       4.635   7.102  18.117  0.00  0.00    +0.000 A 
ATOM     19  C   UNL     1       5.731   6.656  17.360  0.00  0.00    +0.000 A 
ATOM     20 CL   UNL     1       7.135   7.661  17.389  0.00  0.00    +0.000 Cl
BRANCH  14  22
ATOM     21  C   UNL     1       6.319   3.507  14.710  0.00  0.00    +0.000 C 
ATOM     22  S   UNL     1       7.004   4.787  15.725  0.00  0.00    +0.000 S 
ATOM     23  O   UNL     1       7.890   4.128  16.670  0.00  0.00    +0.000 OA
ATOM     24  O   UNL     1       7.511   5.846  14.879  0.00  0.00    +0.000 OA
ENDBRANCH  14  22
ENDBRANCH   1  17
BRANCH   2  25
ATOM     25  C   UNL     1       2.115   4.388  20.080  0.00  0.00    +0.000 C 
ATOM     26  C   UNL     1       2.237   4.022  21.563  0.00  0.00    +0.000 C 
ATOM     27  C   UNL     1       2.303   2.499  21.537  0.00  0.00    +0.000 C 
ATOM     28  C   UNL     1       1.483   2.078  20.314  0.00  0.00    +0.000 C 
ATOM     29  C   UNL     1       1.066   3.377  19.616  0.00  0.00    +0.000 C 
ENDBRANCH   2  25
TORSDOF 4
ENDMDL
MODEL 4
REMARK VINA RESULT:      -8.1      0.998      1.070
REMARK  Name = 
REMARK  5 active torsions:
REMARK  status: ('A' for Active; 'I' for Inactive)
REMARK    1  A    between atoms: C_1  and  S_2
REMARK    2  A    between atoms: S_2  and  C_5
REMARK    3  A    between atoms: C_8  and  C_9
REMARK    4  A    between atoms: C_9  and  C_16
REMARK    5  A    between atoms: C_10  and  C_11
REMARK                            x       y       z     vdW  Elec       q    Type
REMARK                         _______ _______ _______ _____ _____    ______ ____
ROOT
ATOM      1  C   UNL     1       2.015   6.789  19.947  0.00  0.00    +0.000 C 
ATOM      2  C   UNL     1       1.466   5.690  20.511  0.00  0.00    +0.000 C 
ENDROOT
BRANCH   1   3
ATOM      3  C   UNL     1       1.547   8.067  20.396  0.00  0.00    +0.000 A 
ATOM      4  C   UNL     1       1.080   9.205  19.751  0.00  0.00    +0.000 A 
ATOM      5  C   UNL     1       0.429  10.019  20.717  0.00  0.00    +0.000 A 
ATOM      6  C   UNL     1      -0.373  11.173  20.678  0.00  0.00    +0.000 A 
ATOM      7  C   UNL     1      -0.928  11.598  21.884  0.00  0.00    +0.000 A 
ATOM      8 BR   UNL     1      -2.116  13.065  21.910  0.00  0.00    +0.000 Br
ATOM      9  C   UNL     1      -0.630  10.911  23.056  0.00  0.00    +0.000 A 
ATOM     10  N   UNL     1       0.167   9.817  23.148  0.00  0.00    +0.000 NA
ATOM     11  C   UNL     1       0.636   9.419  21.951  0.00  0.00    +0.000 A 
ATOM     12  N   UNL     1       1.378   8.288  21.748  0.00  0.00    +0.000 N 
ATOM     13  H   UNL     1       1.636   7.660  22.495  0.00  0.00    +0.000 HD
ENDBRANCH   1   3
BRANCH   1  17
ATOM     14  C   UNL     1       5.349   6.252  17.291  0.00  0.00    +0.000 A 
ATOM     15  C   UNL     1       4.144   6.801  16.824  0.00  0.00    +0.000 A 
ATOM     16  C   UNL     1       3.073   7.002  17.698  0.00  0.00    +0.000 A 
ATOM     17  C   UNL     1       3.193   6.666  19.051  0.00  0.00    +0.000 A 
ATOM     18  C   UNL     1       4.400   6.127  19.515  0.00  0.00    +0.000 A 
ATOM     19  C   UNL     1       5.474   5.908  18.637  0.00  0.00    +0.000 A 
ATOM     20 CL   UNL     1       6.885   5.190  19.324  0.00  0.00    +0.000 Cl
BRANCH  14  22
ATOM     21  C   UNL     1       7.153   4.277  16.348  0.00  0.00    +0.000 C 
ATOM     22  S   UNL     1       6.634   5.953  16.099  0.00  0.00    +0.000 S 
ATOM     23  O   UNL     1       7.764   6.789  16.468  0.00  0.00    +0.000 OA
ATOM     24  O   UNL     1       6.043   6.078  14.783  0.00  0.00    +0.000 OA
ENDBRANCH  14  22
ENDBRANCH   1  17
BRANCH   2  25
ATOM     25  C   UNL     1       1.947   4.266  20.415  0.00  0.00    +0.000 C 
ATOM     26  C   UNL     1       2.013   3.594  21.790  0.00  0.00    +0.000 C 
ATOM     27  C   UNL     1       2.212   2.122  21.446  0.00  0.00    +0.000 C 
ATOM     28  C   UNL     1       1.504   1.921  20.104  0.00  0.00    +0.000 C 
ATOM     29  C   UNL     1       1.017   3.308  19.669  0.00  0.00    +0.000 C 
ENDBRANCH   2  25
TORSDOF 4
ENDMDL
MODEL 5
REMARK VINA RESULT:      -8.1      1.118      1.387
REMARK  Name = 
REMARK  5 active torsions:
REMARK  status: ('A' for Active; 'I' for Inactive)
REMARK    1  A    between atoms: C_1  and  S_2
REMARK    2  A    between atoms: S_2  and  C_5
REMARK    3  A    between atoms: C_8  and  C_9
REMARK    4  A    between atoms: C_9  and  C_16
REMARK    5  A    between atoms: C_10  and  C_11
REMARK                            x       y       z     vdW  Elec       q    Type
REMARK                         _______ _______ _______ _____ _____    ______ ____
ROOT
ATOM      1  C   UNL     1       2.228   6.553  19.606  0.00  0.00    +0.000 C 
ATOM      2  C   UNL     1       1.550   5.588  20.266  0.00  0.00    +0.000 C 
ENDROOT
BRANCH   1   3
ATOM      3  C   UNL     1       1.868   7.916  19.872  0.00  0.00    +0.000 A 
ATOM      4  C   UNL     1       1.547   9.002  19.069  0.00  0.00    +0.000 A 
ATOM      5  C   UNL     1       0.934   9.987  19.892  0.00  0.00    +0.000 A 
ATOM      6  C   UNL     1       0.253  11.195  19.669  0.00  0.00    +0.000 A 
ATOM      7  C   UNL     1      -0.313  11.817  20.782  0.00  0.00    +0.000 A 
ATOM      8 BR   UNL     1      -1.351  13.379  20.563  0.00  0.00    +0.000 Br
ATOM      9  C   UNL     1      -0.138  11.256  22.042  0.00  0.00    +0.000 A 
ATOM     10  N   UNL     1       0.542  10.114  22.310  0.00  0.00    +0.000 NA
ATOM     11  C   UNL     1       1.024   9.528  21.198  0.00  0.00    +0.000 A 
ATOM     12  N   UNL     1       1.660   8.317  21.175  0.00  0.00    +0.000 N 
ATOM     13  H   UNL     1       1.820   7.766  22.006  0.00  0.00    +0.000 HD
ENDBRANCH   1   3
BRANCH   1  17
ATOM     14  C   UNL     1       5.793   5.727  17.355  0.00  0.00    +0.000 A 
ATOM     15  C   UNL     1       5.655   5.260  18.671  0.00  0.00    +0.000 A 
ATOM     16  C   UNL     1       4.482   5.505  19.389  0.00  0.00    +0.000 A 
ATOM     17  C   UNL     1       3.427   6.212  18.799  0.00  0.00    +0.000 A 
ATOM     18  C   UNL     1       3.566   6.668  17.482  0.00  0.00    +0.000 A 
ATOM     19  C   UNL     1       4.750   6.439  16.762  0.00  0.00    +0.000 A 
ATOM     20 CL   UNL     1       4.813   7.099  15.169  0.00  0.00    +0.000 Cl
BRANCH  14  22
ATOM     21  C   UNL     1       6.956   4.690  14.985  0.00  0.00    +0.000 C 
ATOM     22  S   UNL     1       7.348   5.444  16.540  0.00  0.00    +0.000 S 
ATOM     23  O   UNL     1       8.061   4.441  17.312  0.00  0.00    +0.000 OA
ATOM     24  O   UNL     1       7.955   6.737  16.302  0.00  0.00    +0.000 OA
ENDBRANCH  14  22
ENDBRANCH   1  17
BRANCH   2  25
ATOM     25  C   UNL     1       1.892   4.125  20.368  0.00  0.00    +0.000 C 
ATOM     26  C   UNL     1       1.968   3.660  21.826  0.00  0.00    +0.000 C 
ATOM     27  C   UNL     1       2.013   2.142  21.701  0.00  0.00    +0.000 C 
ATOM     28  C   UNL     1       1.221   1.815  20.432  0.00  0.00    +0.000 C 
ATOM     29  C   UNL     1       0.841   3.164  19.811  0.00  0.00    +0.000 C 
ENDBRANCH   2  25
TORSDOF 4
ENDMDL
MODEL 6
REMARK VINA RESULT:      -8.0      1.322      1.759
REMARK  Name = 
REMARK  5 active torsions:
REMARK  status: ('A' for Active; 'I' for Inactive)
REMARK    1  A    between atoms: C_1  and  S_2
REMARK    2  A    between atoms: S_2  and  C_5
REMARK    3  A    between atoms: C_8  and  C_9
REMARK    4  A    between atoms: C_9  and  C_16
REMARK    5  A    between atoms: C_10  and  C_11
REMARK                            x       y       z     vdW  Elec       q    Type
REMARK                         _______ _______ _______ _____ _____    ______ ____
ROOT
ATOM      1  C   UNL     1       1.920   6.263  19.758  0.00  0.00    +0.000 C 
ATOM      2  C   UNL     1       1.083   5.254  20.088  0.00  0.00    +0.000 C 
ENDROOT
BRANCH   1   3
ATOM      3  C   UNL     1       1.636   7.562  20.295  0.00  0.00    +0.000 A 
ATOM      4  C   UNL     1       1.508   8.828  19.739  0.00  0.00    +0.000 A 
ATOM      5  C   UNL     1       0.872   9.664  20.696  0.00  0.00    +0.000 A 
ATOM      6  C   UNL     1       0.322  10.957  20.689  0.00  0.00    +0.000 A 
ATOM      7  C   UNL     1      -0.335  11.371  21.847  0.00  0.00    +0.000 A 
ATOM      8 BR   UNL     1      -1.210  13.044  21.887  0.00  0.00    +0.000 Br
ATOM      9  C   UNL     1      -0.373  10.528  22.952  0.00  0.00    +0.000 A 
ATOM     10  N   UNL     1       0.175   9.289  23.018  0.00  0.00    +0.000 NA
ATOM     11  C   UNL     1       0.752   8.918  21.861  0.00  0.00    +0.000 A 
ATOM     12  N   UNL     1       1.289   7.682  21.625  0.00  0.00    +0.000 N 
ATOM     13  H   UNL     1       1.295   6.946  22.315  0.00  0.00    +0.000 HD
ENDBRANCH   1   3
BRANCH   1  17
ATOM     14  C   UNL     1       5.669   5.620  17.761  0.00  0.00    +0.000 A 
ATOM     15  C   UNL     1       5.475   5.174  19.078  0.00  0.00    +0.000 A 
ATOM     16  C   UNL     1       4.245   5.358  19.713  0.00  0.00    +0.000 A 
ATOM     17  C   UNL     1       3.189   5.982  19.039  0.00  0.00    +0.000 A 
ATOM     18  C   UNL     1       3.383   6.417  17.721  0.00  0.00    +0.000 A 
ATOM     19  C   UNL     1       4.624   6.249  17.085  0.00  0.00    +0.000 A 
ATOM     20 CL   UNL     1       4.749   6.877  15.482  0.00  0.00    +0.000 Cl
BRANCH  14  22
ATOM     21  C   UNL     1       7.063   4.484  15.568  0.00  0.00    +0.000 C 
ATOM     22  S   UNL     1       7.289   5.421  17.054  0.00  0.00    +0.000 S 
ATOM     23  O   UNL     1       8.051   4.576  17.958  0.00  0.00    +0.000 OA
ATOM     24  O   UNL     1       7.780   6.740  16.715  0.00  0.00    +0.000 OA
ENDBRANCH  14  22
ENDBRANCH   1  17
BRANCH   2  25
ATOM     25  C   UNL     1       1.291   3.777  19.882  0.00  0.00    +0.000 C 
ATOM     26  C   UNL     1       1.533   3.438  18.407  0.00  0.00    +0.000 C 
ATOM     27  C   UNL     1       2.014   1.993  18.460  0.00  0.00    +0.000 C 
ATOM     28  C   UNL     1       2.737   1.855  19.803  0.00  0.00    +0.000 C 
ATOM     29  C   UNL     1       2.551   3.195  20.524  0.00  0.00    +0.000 C 
ENDBRANCH   2  25
TORSDOF 4
ENDMDL
MODEL 7
REMARK VINA RESULT:      -7.8      1.778      2.064
REMARK  Name = 
REMARK  5 active torsions:
REMARK  status: ('A' for Active; 'I' for Inactive)
REMARK    1  A    between atoms: C_1  and  S_2
REMARK    2  A    between atoms: S_2  and  C_5
REMARK    3  A    between atoms: C_8  and  C_9
REMARK    4  A    between atoms: C_9  and  C_16
REMARK    5  A    between atoms: C_10  and  C_11
REMARK                            x       y       z     vdW  Elec       q    Type
REMARK                         _______ _______ _______ _____ _____    ______ ____
ROOT
ATOM      1  C   UNL     1       2.302   6.856  18.822  0.00  0.00    +0.000 C 
ATOM      2  C   UNL     1       1.740   5.994  19.698  0.00  0.00    +0.000 C 
ENDROOT
BRANCH   1   3
ATOM      3  C   UNL     1       1.876   8.225  18.875  0.00  0.00    +0.000 A 
ATOM      4  C   UNL     1       1.194   8.987  19.814  0.00  0.00    +0.000 A 
ATOM      5  C   UNL     1       1.374  10.357  19.480  0.00  0.00    +0.000 A 
ATOM      6  C   UNL     1       1.095  11.585  20.102  0.00  0.00    +0.000 A 
ATOM      7  C   UNL     1       1.555  12.736  19.465  0.00  0.00    +0.000 A 
ATOM      8 BR   UNL     1       1.336  14.422  20.287  0.00  0.00    +0.000 Br
ATOM      9  C   UNL     1       2.209  12.628  18.242  0.00  0.00    +0.000 A 
ATOM     10  N   UNL     1       2.467  11.469  17.586  0.00  0.00    +0.000 NA
ATOM     11  C   UNL     1       2.047  10.387  18.266  0.00  0.00    +0.000 A 
ATOM     12  N   UNL     1       2.271   9.094  17.879  0.00  0.00    +0.000 N 
ATOM     13  H   UNL     1       2.773   8.853  17.037  0.00  0.00    +0.000 HD
ENDBRANCH   1   3
BRANCH   1  17
ATOM     14  C   UNL     1       5.691   5.508  16.553  0.00  0.00    +0.000 A 
ATOM     15  C   UNL     1       4.480   4.799  16.518  0.00  0.00    +0.000 A 
ATOM     16  C   UNL     1       3.372   5.258  17.234  0.00  0.00    +0.000 A 
ATOM     17  C   UNL     1       3.454   6.435  17.986  0.00  0.00    +0.000 A 
ATOM     18  C   UNL     1       4.662   7.145  18.010  0.00  0.00    +0.000 A 
ATOM     19  C   UNL     1       5.784   6.678  17.305  0.00  0.00    +0.000 A 
ATOM     20 CL   UNL     1       7.225   7.617  17.461  0.00  0.00    +0.000 Cl
BRANCH  14  22
ATOM     21  C   UNL     1       6.408   3.574  14.607  0.00  0.00    +0.000 C 
ATOM     22  S   UNL     1       7.078   4.814  15.681  0.00  0.00    +0.000 S 
ATOM     23  O   UNL     1       7.891   4.111  16.659  0.00  0.00    +0.000 OA
ATOM     24  O   UNL     1       7.661   5.871  14.883  0.00  0.00    +0.000 OA
ENDBRANCH  14  22
ENDBRANCH   1  17
BRANCH   2  25
ATOM     25  C   UNL     1       2.182   4.592  20.025  0.00  0.00    +0.000 C 
ATOM     26  C   UNL     1       2.208   4.342  21.536  0.00  0.00    +0.000 C 
ATOM     27  C   UNL     1       2.372   2.830  21.633  0.00  0.00    +0.000 C 
ATOM     28  C   UNL     1       1.680   2.267  20.388  0.00  0.00    +0.000 C 
ATOM     29  C   UNL     1       1.239   3.481  19.562  0.00  0.00    +0.000 C 
ENDBRANCH   2  25
TORSDOF 4
ENDMDL
MODEL 8
REMARK VINA RESULT:      -7.6      1.221      1.474
REMARK  Name = 
REMARK  5 active torsions:
REMARK  status: ('A' for Active; 'I' for Inactive)
REMARK    1  A    between atoms: C_1  and  S_2
REMARK    2  A    between atoms: S_2  and  C_5
REMARK    3  A    between atoms: C_8  and  C_9
REMARK    4  A    between atoms: C_9  and  C_16
REMARK    5  A    between atoms: C_10  and  C_11
REMARK                            x       y       z     vdW  Elec       q    Type
REMARK                         _______ _______ _______ _____ _____    ______ ____
ROOT
ATOM      1  C   UNL     1       2.284   6.386  19.548  0.00  0.00    +0.000 C 
ATOM      2  C   UNL     1       1.757   5.408  20.318  0.00  0.00    +0.000 C 
ENDROOT
BRANCH   1   3
ATOM      3  C   UNL     1       1.742   7.706  19.690  0.00  0.00    +0.000 A 
ATOM      4  C   UNL     1       1.185   8.411  20.749  0.00  0.00    +0.000 A 
ATOM      5  C   UNL     1       1.156   9.786  20.391  0.00  0.00    +0.000 A 
ATOM      6  C   UNL     1       0.883  10.990  21.061  0.00  0.00    +0.000 A 
ATOM      7  C   UNL     1       1.090  12.171  20.351  0.00  0.00    +0.000 A 
ATOM      8 BR   UNL     1       0.868  13.839  21.207  0.00  0.00    +0.000 Br
ATOM      9  C   UNL     1       1.497  12.109  19.022  0.00  0.00    +0.000 A 
ATOM     10  N   UNL     1       1.736  10.972  18.323  0.00  0.00    +0.000 NA
ATOM     11  C   UNL     1       1.570   9.864  19.068  0.00  0.00    +0.000 A 
ATOM     12  N   UNL     1       1.842   8.594  18.639  0.00  0.00    +0.000 N 
ATOM     13  H   UNL     1       2.190   8.391  17.713  0.00  0.00    +0.000 HD
ENDBRANCH   1   3
BRANCH   1  17
ATOM     14  C   UNL     1       5.787   5.451  17.243  0.00  0.00    +0.000 A 
ATOM     15  C   UNL     1       4.521   5.487  16.636  0.00  0.00    +0.000 A 
ATOM     16  C   UNL     1       3.389   5.821  17.383  0.00  0.00    +0.000 A 
ATOM     17  C   UNL     1       3.506   6.132  18.743  0.00  0.00    +0.000 A 
ATOM     18  C   UNL     1       4.772   6.104  19.342  0.00  0.00    +0.000 A 
ATOM     19  C   UNL     1       5.911   5.753  18.599  0.00  0.00    +0.000 A 
ATOM     20 CL   UNL     1       7.402   5.705  19.467  0.00  0.00    +0.000 Cl
BRANCH  14  22
ATOM     21  C   UNL     1       6.487   3.917  14.962  0.00  0.00    +0.000 C 
ATOM     22  S   UNL     1       7.165   4.938  16.242  0.00  0.00    +0.000 S 
ATOM     23  O   UNL     1       7.991   4.069  17.063  0.00  0.00    +0.000 OA
ATOM     24  O   UNL     1       7.737   6.128  15.649  0.00  0.00    +0.000 OA
ENDBRANCH  14  22
ENDBRANCH   1  17
BRANCH   2  25
ATOM     25  C   UNL     1       2.301   4.024  20.553  0.00  0.00    +0.000 C 
ATOM     26  C   UNL     1       1.627   3.343  21.748  0.00  0.00    +0.000 C 
ATOM     27  C   UNL     1       2.082   1.894  21.621  0.00  0.00    +0.000 C 
ATOM     28  C   UNL     1       2.266   1.657  20.120  0.00  0.00    +0.000 C 
ATOM     29  C   UNL     1       2.018   3.010  19.443  0.00  0.00    +0.000 C 
ENDBRANCH   2  25
TORSDOF 4
ENDMDL
MODEL 9
REMARK VINA RESULT:      -7.5      5.600      8.506
REMARK  Name = 
REMARK  5 active torsions:
REMARK  status: ('A' for Active; 'I' for Inactive)
REMARK    1  A    between atoms: C_1  and  S_2
REMARK    2  A    between atoms: S_2  and  C_5
REMARK    3  A    between atoms: C_8  and  C_9
REMARK    4  A    between atoms: C_9  and  C_16
REMARK    5  A    between atoms: C_10  and  C_11
REMARK                            x       y       z     vdW  Elec       q    Type
REMARK                         _______ _______ _______ _____ _____    ______ ____
ROOT
ATOM      1  C   UNL     1       0.830   9.845  18.753  0.00  0.00    +0.000 C 
ATOM      2  C   UNL     1      -0.378   9.586  18.203  0.00  0.00    +0.000 C 
ENDROOT
BRANCH   1   3
ATOM      3  C   UNL     1       1.713   8.735  18.963  0.00  0.00    +0.000 A 
ATOM      4  C   UNL     1       1.869   7.807  19.984  0.00  0.00    +0.000 A 
ATOM      5  C   UNL     1       2.658   6.735  19.483  0.00  0.00    +0.000 A 
ATOM      6  C   UNL     1       3.016   5.456  19.941  0.00  0.00    +0.000 A 
ATOM      7  C   UNL     1       3.733   4.647  19.061  0.00  0.00    +0.000 A 
ATOM      8 BR   UNL     1       4.152   2.870  19.542  0.00  0.00    +0.000 Br
ATOM      9  C   UNL     1       4.099   5.145  17.816  0.00  0.00    +0.000 A 
ATOM     10  N   UNL     1       3.809   6.384  17.345  0.00  0.00    +0.000 NA
ATOM     11  C   UNL     1       3.075   7.106  18.212  0.00  0.00    +0.000 A 
ATOM     12  N   UNL     1       2.562   8.346  17.947  0.00  0.00    +0.000 N 
ATOM     13  H   UNL     1       2.703   8.821  17.068  0.00  0.00    +0.000 HD
ENDBRANCH   1   3
BRANCH   1  17
ATOM     14  C   UNL     1       2.326  13.825  19.369  0.00  0.00    +0.000 A 
ATOM     15  C   UNL     1       2.701  13.088  18.235  0.00  0.00    +0.000 A 
ATOM     16  C   UNL     1       2.188  11.806  18.023  0.00  0.00    +0.000 A 
ATOM     17  C   UNL     1       1.288  11.246  18.936  0.00  0.00    +0.000 A 
ATOM     18  C   UNL     1       0.909  11.988  20.062  0.00  0.00    +0.000 A 
ATOM     19  C   UNL     1       1.435  13.271  20.288  0.00  0.00    +0.000 A 
ATOM     20 CL   UNL     1       0.929  14.057  21.739  0.00  0.00    +0.000 Cl
BRANCH  14  22
ATOM     21  C   UNL     1       4.150  15.662  18.211  0.00  0.00    +0.000 C 
ATOM     22  S   UNL     1       3.087  15.415  19.607  0.00  0.00    +0.000 S 
ATOM     23  O   UNL     1       3.955  15.307  20.767  0.00  0.00    +0.000 OA
ATOM     24  O   UNL     1       2.033  16.407  19.584  0.00  0.00    +0.000 OA
ENDBRANCH  14  22
ENDBRANCH   1  17
BRANCH   2  25
ATOM     25  C   UNL     1      -1.369  10.574  17.648  0.00  0.00    +0.000 C 
ATOM     26  C   UNL     1      -2.225   9.956  16.537  0.00  0.00    +0.000 C 
ATOM     27  C   UNL     1      -3.330  10.987  16.339  0.00  0.00    +0.000 C 
ATOM     28  C   UNL     1      -3.526  11.640  17.711  0.00  0.00    +0.000 C 
ATOM     29  C   UNL     1      -2.451  11.038  18.623  0.00  0.00    +0.000 C 
ENDBRANCH   2  25
TORSDOF 4
ENDMDL
