MODEL 1
REMARK VINA RESULT:      -7.9      0.000      0.000
REMARK  Name = 
REMARK  7 active torsions:
REMARK  status: ('A' for Active; 'I' for Inactive)
REMARK    1  A    between atoms: C_1  and  C_2
REMARK    2  A    between atoms: C_4  and  N_5
REMARK    3  A    between atoms: N_8  and  C_9
REMARK    4  A    between atoms: C_9  and  C_10
REMARK    5  A    between atoms: C_10  and  C_11
REMARK    6  A    between atoms: C_18  and  C_19
REMARK    7  A    between atoms: C_20  and  C_21
REMARK                            x       y       z     vdW  Elec       q    Type
REMARK                         _______ _______ _______ _____ _____    ______ ____
ROOT
ATOM      1  N   UNL     1       6.037   6.072  18.377  0.00  0.00    +0.000 NA
ATOM      2  C   UNL     1       6.675   6.204  17.264  0.00  0.00    +0.000 C 
ATOM      3  N   UNL     1       6.552   5.467  16.124  0.00  0.00    +0.000 N 
ATOM      4  N   UNL     1       7.659   7.130  17.050  0.00  0.00    +0.000 N 
ATOM      5  H   UNL     1       6.064   4.593  16.330  0.00  0.00    +0.000 HD
ATOM      6  H   UNL     1       7.461   5.253  15.733  0.00  0.00    +0.000 HD
ATOM      7  H   UNL     1       7.572   7.592  16.152  0.00  0.00    +0.000 HD
ENDROOT
BRANCH   1  11
ATOM      8  C   UNL     1       4.858   1.919  20.360  0.00  0.00    +0.000 C 
ATOM      9  C   UNL     1       4.454   3.079  19.498  0.00  0.00    +0.000 A 
ATOM     10  N   UNL     1       5.417   3.998  19.284  0.00  0.00    +0.000 NA
ATOM     11  C   UNL     1       5.087   5.064  18.536  0.00  0.00    +0.000 A 
ATOM     12  N   UNL     1       3.883   5.274  17.990  0.00  0.00    +0.000 NA
ATOM     13  C   UNL     1       2.938   4.329  18.207  0.00  0.00    +0.000 A 
ATOM     14  C   UNL     1       1.603   4.595  17.564  0.00  0.00    +0.000 C 
ATOM     15  C   UNL     1       3.170   3.190  18.970  0.00  0.00    +0.000 A 
ATOM     16  C   UNL     1       2.131   2.144  19.238  0.00  0.00    +0.000 C 
ENDBRANCH   1  11
BRANCH   4  17
ATOM     17  C   UNL     1       8.177   7.954  18.134  0.00  0.00    +0.000 C 
BRANCH  17  18
ATOM     18  C   UNL     1       8.052   9.446  17.803  0.00  0.00    +0.000 C 
BRANCH  18  19
ATOM     19  C   UNL     1       9.112  10.267  18.500  0.00  0.00    +0.000 A 
ATOM     20  C   UNL     1       9.113  10.378  19.898  0.00  0.00    +0.000 A 
ATOM     21  C   UNL     1      10.070  11.161  20.545  0.00  0.00    +0.000 A 
ATOM     22  C   UNL     1      11.031  11.844  19.803  0.00  0.00    +0.000 A 
ATOM     23  C   UNL     1      11.037  11.745  18.413  0.00  0.00    +0.000 A 
ATOM     24  C   UNL     1      10.081  10.960  17.763  0.00  0.00    +0.000 A 
ENDBRANCH  18  19
ENDBRANCH  17  18
ENDBRANCH   4  17
TORSDOF 4
ENDMDL
MODEL 2
REMARK VINA RESULT:      -7.8      0.067      1.056
REMARK  Name = 
REMARK  7 active torsions:
REMARK  status: ('A' for Active; 'I' for Inactive)
REMARK    1  A    between atoms: C_1  and  C_2
REMARK    2  A    between atoms: C_4  and  N_5
REMARK    3  A    between atoms: N_8  and  C_9
REMARK    4  A    between atoms: C_9  and  C_10
REMARK    5  A    between atoms: C_10  and  C_11
REMARK    6  A    between atoms: C_18  and  C_19
REMARK    7  A    between atoms: C_20  and  C_21
REMARK                            x       y       z     vdW  Elec       q    Type
REMARK                         _______ _______ _______ _____ _____    ______ ____
ROOT
ATOM      1  N   UNL     1       6.013   6.075  18.394  0.00  0.00    +0.000 NA
ATOM      2  C   UNL     1       6.725   6.149  17.321  0.00  0.00    +0.000 C 
ATOM      3  N   UNL     1       6.687   5.343  16.222  0.00  0.00    +0.000 N 
ATOM      4  N   UNL     1       7.710   7.075  17.118  0.00  0.00    +0.000 N 
ATOM      5  H   UNL     1       6.196   4.476  16.448  0.00  0.00    +0.000 HD
ATOM      6  H   UNL     1       7.623   5.120  15.908  0.00  0.00    +0.000 HD
ATOM      7  H   UNL     1       7.679   7.481  16.190  0.00  0.00    +0.000 HD
ENDROOT
BRANCH   1  11
ATOM      8  C   UNL     1       4.861   1.891  20.330  0.00  0.00    +0.000 C 
ATOM      9  C   UNL     1       4.446   3.064  19.490  0.00  0.00    +0.000 A 
ATOM     10  N   UNL     1       5.406   3.986  19.278  0.00  0.00    +0.000 NA
ATOM     11  C   UNL     1       5.066   5.064  18.550  0.00  0.00    +0.000 A 
ATOM     12  N   UNL     1       3.855   5.281  18.023  0.00  0.00    +0.000 NA
ATOM     13  C   UNL     1       2.913   4.332  18.237  0.00  0.00    +0.000 A 
ATOM     14  C   UNL     1       1.570   4.607  17.615  0.00  0.00    +0.000 C 
ATOM     15  C   UNL     1       3.155   3.182  18.980  0.00  0.00    +0.000 A 
ATOM     16  C   UNL     1       2.120   2.131  19.244  0.00  0.00    +0.000 C 
ENDBRANCH   1  11
BRANCH   4  17
ATOM     17  C   UNL     1       8.144   7.971  18.183  0.00  0.00    +0.000 C 
BRANCH  17  18
ATOM     18  C   UNL     1       8.084   9.435  17.732  0.00  0.00    +0.000 C 
BRANCH  18  19
ATOM     19  C   UNL     1       9.096  10.289  18.461  0.00  0.00    +0.000 A 
ATOM     20  C   UNL     1      10.072  10.995  17.741  0.00  0.00    +0.000 A 
ATOM     21  C   UNL     1      11.029  11.760  18.410  0.00  0.00    +0.000 A 
ATOM     22  C   UNL     1      11.024  11.823  19.802  0.00  0.00    +0.000 A 
ATOM     23  C   UNL     1      10.062  11.122  20.527  0.00  0.00    +0.000 A 
ATOM     24  C   UNL     1       9.102  10.357  19.859  0.00  0.00    +0.000 A 
ENDBRANCH  18  19
ENDBRANCH  17  18
ENDBRANCH   4  17
TORSDOF 4
ENDMDL
MODEL 3
REMARK VINA RESULT:      -7.8      0.136      1.876
REMARK  Name = 
REMARK  7 active torsions:
REMARK  status: ('A' for Active; 'I' for Inactive)
REMARK    1  A    between atoms: C_1  and  C_2
REMARK    2  A    between atoms: C_4  and  N_5
REMARK    3  A    between atoms: N_8  and  C_9
REMARK    4  A    between atoms: C_9  and  C_10
REMARK    5  A    between atoms: C_10  and  C_11
REMARK    6  A    between atoms: C_18  and  C_19
REMARK    7  A    between atoms: C_20  and  C_21
REMARK                            x       y       z     vdW  Elec       q    Type
REMARK                         _______ _______ _______ _____ _____    ______ ____
ROOT
ATOM      1  N   UNL     1       5.966   6.139  18.488  0.00  0.00    +0.000 NA
ATOM      2  C   UNL     1       6.661   6.162  17.402  0.00  0.00    +0.000 C 
ATOM      3  N   UNL     1       6.578   5.331  16.325  0.00  0.00    +0.000 N 
ATOM      4  N   UNL     1       7.673   7.049  17.159  0.00  0.00    +0.000 N 
ATOM      5  H   UNL     1       6.063   4.486  16.580  0.00  0.00    +0.000 HD
ATOM      6  H   UNL     1       7.501   5.068  16.001  0.00  0.00    +0.000 HD
ATOM      7  H   UNL     1       7.640   7.433  16.222  0.00  0.00    +0.000 HD
ENDROOT
BRANCH   1  11
ATOM      8  C   UNL     1       1.553   4.615  17.601  0.00  0.00    +0.000 C 
ATOM      9  C   UNL     1       2.880   4.365  18.258  0.00  0.00    +0.000 A 
ATOM     10  N   UNL     1       3.780   5.360  18.130  0.00  0.00    +0.000 NA
ATOM     11  C   UNL     1       4.988   5.164  18.685  0.00  0.00    +0.000 A 
ATOM     12  N   UNL     1       5.355   4.064  19.353  0.00  0.00    +0.000 NA
ATOM     13  C   UNL     1       4.428   3.086  19.482  0.00  0.00    +0.000 A 
ATOM     14  C   UNL     1       4.875   1.872  20.252  0.00  0.00    +0.000 C 
ATOM     15  C   UNL     1       3.149   3.181  18.942  0.00  0.00    +0.000 A 
ATOM     16  C   UNL     1       2.117   2.102  19.056  0.00  0.00    +0.000 C 
ENDBRANCH   1  11
BRANCH   4  17
ATOM     17  C   UNL     1       8.155   7.956  18.194  0.00  0.00    +0.000 C 
BRANCH  17  18
ATOM     18  C   UNL     1       8.106   9.412  17.718  0.00  0.00    +0.000 C 
BRANCH  18  19
ATOM     19  C   UNL     1       9.109  10.276  18.448  0.00  0.00    +0.000 A 
ATOM     20  C   UNL     1       9.123  10.309  19.850  0.00  0.00    +0.000 A 
ATOM     21  C   UNL     1      10.025  11.129  20.529  0.00  0.00    +0.000 A 
ATOM     22  C   UNL     1      10.918  11.927  19.816  0.00  0.00    +0.000 A 
ATOM     23  C   UNL     1      10.909  11.905  18.423  0.00  0.00    +0.000 A 
ATOM     24  C   UNL     1      10.008  11.084  17.741  0.00  0.00    +0.000 A 
ENDBRANCH  18  19
ENDBRANCH  17  18
ENDBRANCH   4  17
TORSDOF 4
ENDMDL
MODEL 4
REMARK VINA RESULT:      -7.6      0.236      2.154
REMARK  Name = 
REMARK  7 active torsions:
REMARK  status: ('A' for Active; 'I' for Inactive)
REMARK    1  A    between atoms: C_1  and  C_2
REMARK    2  A    between atoms: C_4  and  N_5
REMARK    3  A    between atoms: N_8  and  C_9
REMARK    4  A    between atoms: C_9  and  C_10
REMARK    5  A    between atoms: C_10  and  C_11
REMARK    6  A    between atoms: C_18  and  C_19
REMARK    7  A    between atoms: C_20  and  C_21
REMARK                            x       y       z     vdW  Elec       q    Type
REMARK                         _______ _______ _______ _____ _____    ______ ____
ROOT
ATOM      1  N   UNL     1       5.917   6.054  18.406  0.00  0.00    +0.000 NA
ATOM      2  C   UNL     1       6.616   6.051  17.322  0.00  0.00    +0.000 C 
ATOM      3  N   UNL     1       6.538   5.192  16.267  0.00  0.00    +0.000 N 
ATOM      4  N   UNL     1       7.627   6.933  17.059  0.00  0.00    +0.000 N 
ATOM      5  H   UNL     1       6.023   4.353  16.542  0.00  0.00    +0.000 HD
ATOM      6  H   UNL     1       7.462   4.923  15.953  0.00  0.00    +0.000 HD
ATOM      7  H   UNL     1       7.596   7.293  16.112  0.00  0.00    +0.000 HD
ENDROOT
BRANCH   1  11
ATOM      8  C   UNL     1       1.512   4.497  17.544  0.00  0.00    +0.000 C 
ATOM      9  C   UNL     1       2.836   4.268  18.213  0.00  0.00    +0.000 A 
ATOM     10  N   UNL     1       3.735   5.261  18.061  0.00  0.00    +0.000 NA
ATOM     11  C   UNL     1       4.941   5.084  18.626  0.00  0.00    +0.000 A 
ATOM     12  N   UNL     1       5.307   4.002  19.325  0.00  0.00    +0.000 NA
ATOM     13  C   UNL     1       4.382   3.026  19.476  0.00  0.00    +0.000 A 
ATOM     14  C   UNL     1       4.829   1.834  20.280  0.00  0.00    +0.000 C 
ATOM     15  C   UNL     1       3.106   3.104  18.929  0.00  0.00    +0.000 A 
ATOM     16  C   UNL     1       2.076   2.025  19.068  0.00  0.00    +0.000 C 
ENDBRANCH   1  11
BRANCH   4  17
ATOM     17  C   UNL     1       8.103   7.868  18.071  0.00  0.00    +0.000 C 
BRANCH  17  18
ATOM     18  C   UNL     1       8.108   9.305  17.538  0.00  0.00    +0.000 C 
BRANCH  18  19
ATOM     19  C   UNL     1       8.991  10.210  18.366  0.00  0.00    +0.000 A 
ATOM     20  C   UNL     1       9.811  11.160  17.741  0.00  0.00    +0.000 A 
ATOM     21  C   UNL     1      10.653  11.976  18.499  0.00  0.00    +0.000 A 
ATOM     22  C   UNL     1      10.687  11.848  19.886  0.00  0.00    +0.000 A 
ATOM     23  C   UNL     1       9.879  10.904  20.517  0.00  0.00    +0.000 A 
ATOM     24  C   UNL     1       9.035  10.087  19.761  0.00  0.00    +0.000 A 
ENDBRANCH  18  19
ENDBRANCH  17  18
ENDBRANCH   4  17
TORSDOF 4
ENDMDL
MODEL 5
REMARK VINA RESULT:      -7.4      4.814      6.937
REMARK  Name = 
REMARK  7 active torsions:
REMARK  status: ('A' for Active; 'I' for Inactive)
REMARK    1  A    between atoms: C_1  and  C_2
REMARK    2  A    between atoms: C_4  and  N_5
REMARK    3  A    between atoms: N_8  and  C_9
REMARK    4  A    between atoms: C_9  and  C_10
REMARK    5  A    between atoms: C_10  and  C_11
REMARK    6  A    between atoms: C_18  and  C_19
REMARK    7  A    between atoms: C_20  and  C_21
REMARK                            x       y       z     vdW  Elec       q    Type
REMARK                         _______ _______ _______ _____ _____    ______ ____
ROOT
ATOM      1  N   UNL     1       4.827   4.778  16.378  0.00  0.00    +0.000 NA
ATOM      2  C   UNL     1       6.062   4.507  16.631  0.00  0.00    +0.000 C 
ATOM      3  N   UNL     1       6.612   4.073  17.800  0.00  0.00    +0.000 N 
ATOM      4  N   UNL     1       7.079   4.657  15.729  0.00  0.00    +0.000 N 
ATOM      5  H   UNL     1       5.960   4.236  18.570  0.00  0.00    +0.000 HD
ATOM      6  H   UNL     1       7.478   4.560  17.993  0.00  0.00    +0.000 HD
ATOM      7  H   UNL     1       7.720   3.871  15.730  0.00  0.00    +0.000 HD
ENDROOT
BRANCH   1  11
ATOM      8  C   UNL     1       2.002   1.932  18.927  0.00  0.00    +0.000 C 
ATOM      9  C   UNL     1       2.498   3.322  18.654  0.00  0.00    +0.000 A 
ATOM     10  N   UNL     1       3.370   3.429  17.632  0.00  0.00    +0.000 NA
ATOM     11  C   UNL     1       3.855   4.655  17.370  0.00  0.00    +0.000 A 
ATOM     12  N   UNL     1       3.532   5.766  18.044  0.00  0.00    +0.000 NA
ATOM     13  C   UNL     1       2.643   5.634  19.056  0.00  0.00    +0.000 A 
ATOM     14  C   UNL     1       2.296   6.908  19.779  0.00  0.00    +0.000 C 
ATOM     15  C   UNL     1       2.083   4.412  19.415  0.00  0.00    +0.000 A 
ATOM     16  C   UNL     1       1.114   4.243  20.545  0.00  0.00    +0.000 C 
ENDBRANCH   1  11
BRANCH   4  17
ATOM     17  C   UNL     1       6.862   5.291  14.435  0.00  0.00    +0.000 C 
BRANCH  17  18
ATOM     18  C   UNL     1       7.583   4.529  13.318  0.00  0.00    +0.000 C 
BRANCH  18  19
ATOM     19  C   UNL     1       6.628   3.686  12.505  0.00  0.00    +0.000 A 
ATOM     20  C   UNL     1       5.258   3.988  12.490  0.00  0.00    +0.000 A 
ATOM     21  C   UNL     1       4.367   3.194  11.766  0.00  0.00    +0.000 A 
ATOM     22  C   UNL     1       4.833   2.090  11.056  0.00  0.00    +0.000 A 
ATOM     23  C   UNL     1       6.191   1.777  11.068  0.00  0.00    +0.000 A 
ATOM     24  C   UNL     1       7.085   2.572  11.790  0.00  0.00    +0.000 A 
ENDBRANCH  18  19
ENDBRANCH  17  18
ENDBRANCH   4  17
TORSDOF 4
ENDMDL
MODEL 6
REMARK VINA RESULT:      -7.3      1.594      2.788
REMARK  Name = 
REMARK  7 active torsions:
REMARK  status: ('A' for Active; 'I' for Inactive)
REMARK    1  A    between atoms: C_1  and  C_2
REMARK    2  A    between atoms: C_4  and  N_5
REMARK    3  A    between atoms: N_8  and  C_9
REMARK    4  A    between atoms: C_9  and  C_10
REMARK    5  A    between atoms: C_10  and  C_11
REMARK    6  A    between atoms: C_18  and  C_19
REMARK    7  A    between atoms: C_20  and  C_21
REMARK                            x       y       z     vdW  Elec       q    Type
REMARK                         _______ _______ _______ _____ _____    ______ ____
ROOT
ATOM      1  N   UNL     1       6.982   7.247  17.724  0.00  0.00    +0.000 NA
ATOM      2  C   UNL     1       7.925   7.067  18.586  0.00  0.00    +0.000 C 
ATOM      3  N   UNL     1       8.184   5.961  19.339  0.00  0.00    +0.000 N 
ATOM      4  N   UNL     1       8.842   8.021  18.929  0.00  0.00    +0.000 N 
ATOM      5  H   UNL     1       7.366   5.348  19.345  0.00  0.00    +0.000 HD
ATOM      6  H   UNL     1       8.410   6.219  20.291  0.00  0.00    +0.000 HD
ATOM      7  H   UNL     1       9.785   7.654  18.986  0.00  0.00    +0.000 HD
ENDROOT
BRANCH   1  11
ATOM      8  C   UNL     1       5.405   3.849  14.802  0.00  0.00    +0.000 C 
ATOM      9  C   UNL     1       5.268   4.565  16.114  0.00  0.00    +0.000 A 
ATOM     10  N   UNL     1       6.124   5.591  16.299  0.00  0.00    +0.000 NA
ATOM     11  C   UNL     1       6.049   6.243  17.471  0.00  0.00    +0.000 A 
ATOM     12  N   UNL     1       5.190   5.952  18.456  0.00  0.00    +0.000 NA
ATOM     13  C   UNL     1       4.331   4.929  18.239  0.00  0.00    +0.000 A 
ATOM     14  C   UNL     1       3.372   4.643  19.364  0.00  0.00    +0.000 C 
ATOM     15  C   UNL     1       4.326   4.183  17.065  0.00  0.00    +0.000 A 
ATOM     16  C   UNL     1       3.397   3.034  16.816  0.00  0.00    +0.000 C 
ENDBRANCH   1  11
BRANCH   4  17
ATOM     17  C   UNL     1       8.729   9.393  18.449  0.00  0.00    +0.000 C 
BRANCH  17  18
ATOM     18  C   UNL     1       9.106  10.395  19.546  0.00  0.00    +0.000 C 
BRANCH  18  19
ATOM     19  C   UNL     1      10.224  11.313  19.108  0.00  0.00    +0.000 A 
ATOM     20  C   UNL     1      10.335  11.699  17.764  0.00  0.00    +0.000 A 
ATOM     21  C   UNL     1      11.383  12.521  17.347  0.00  0.00    +0.000 A 
ATOM     22  C   UNL     1      12.333  12.961  18.267  0.00  0.00    +0.000 A 
ATOM     23  C   UNL     1      12.236  12.580  19.604  0.00  0.00    +0.000 A 
ATOM     24  C   UNL     1      11.186  11.759  20.023  0.00  0.00    +0.000 A 
ENDBRANCH  18  19
ENDBRANCH  17  18
ENDBRANCH   4  17
TORSDOF 4
ENDMDL
MODEL 7
REMARK VINA RESULT:      -7.3      4.818      7.036
REMARK  Name = 
REMARK  7 active torsions:
REMARK  status: ('A' for Active; 'I' for Inactive)
REMARK    1  A    between atoms: C_1  and  C_2
REMARK    2  A    between atoms: C_4  and  N_5
REMARK    3  A    between atoms: N_8  and  C_9
REMARK    4  A    between atoms: C_9  and  C_10
REMARK    5  A    between atoms: C_10  and  C_11
REMARK    6  A    between atoms: C_18  and  C_19
REMARK    7  A    between atoms: C_20  and  C_21
REMARK                            x       y       z     vdW  Elec       q    Type
REMARK                         _______ _______ _______ _____ _____    ______ ____
ROOT
ATOM      1  N   UNL     1       5.109   4.865  15.981  0.00  0.00    +0.000 NA
ATOM      2  C   UNL     1       6.354   4.591  16.175  0.00  0.00    +0.000 C 
ATOM      3  N   UNL     1       6.954   4.134  17.310  0.00  0.00    +0.000 N 
ATOM      4  N   UNL     1       7.331   4.761  15.234  0.00  0.00    +0.000 N 
ATOM      5  H   UNL     1       6.335   4.281  18.110  0.00  0.00    +0.000 HD
ATOM      6  H   UNL     1       7.827   4.619  17.476  0.00  0.00    +0.000 HD
ATOM      7  H   UNL     1       7.972   3.976  15.190  0.00  0.00    +0.000 HD
ENDROOT
BRANCH   1  11
ATOM      8  C   UNL     1       2.660   1.950  18.824  0.00  0.00    +0.000 C 
ATOM      9  C   UNL     1       3.002   3.358  18.433  0.00  0.00    +0.000 A 
ATOM     10  N   UNL     1       3.832   3.475  17.378  0.00  0.00    +0.000 NA
ATOM     11  C   UNL     1       4.181   4.720  17.011  0.00  0.00    +0.000 A 
ATOM     12  N   UNL     1       3.762   5.841  17.612  0.00  0.00    +0.000 NA
ATOM     13  C   UNL     1       2.917   5.697  18.659  0.00  0.00    +0.000 A 
ATOM     14  C   UNL     1       2.459   6.981  19.298  0.00  0.00    +0.000 C 
ATOM     15  C   UNL     1       2.496   4.456  19.126  0.00  0.00    +0.000 A 
ATOM     16  C   UNL     1       1.579   4.276  20.296  0.00  0.00    +0.000 C 
ENDBRANCH   1  11
BRANCH   4  17
ATOM     17  C   UNL     1       7.058   5.421  13.963  0.00  0.00    +0.000 C 
BRANCH  17  18
ATOM     18  C   UNL     1       7.773   4.713  12.807  0.00  0.00    +0.000 C 
BRANCH  18  19
ATOM     19  C   UNL     1       6.924   3.614  12.210  0.00  0.00    +0.000 A 
ATOM     20  C   UNL     1       7.531   2.513  11.589  0.00  0.00    +0.000 A 
ATOM     21  C   UNL     1       6.752   1.511  11.007  0.00  0.00    +0.000 A 
ATOM     22  C   UNL     1       5.362   1.602  11.035  0.00  0.00    +0.000 A 
ATOM     23  C   UNL     1       4.748   2.695  11.645  0.00  0.00    +0.000 A 
ATOM     24  C   UNL     1       5.526   3.698  12.230  0.00  0.00    +0.000 A 
ENDBRANCH  18  19
ENDBRANCH  17  18
ENDBRANCH   4  17
TORSDOF 4
ENDMDL
MODEL 8
REMARK VINA RESULT:      -7.3      1.814      2.824
REMARK  Name = 
REMARK  7 active torsions:
REMARK  status: ('A' for Active; 'I' for Inactive)
REMARK    1  A    between atoms: C_1  and  C_2
REMARK    2  A    between atoms: C_4  and  N_5
REMARK    3  A    between atoms: N_8  and  C_9
REMARK    4  A    between atoms: C_9  and  C_10
REMARK    5  A    between atoms: C_10  and  C_11
REMARK    6  A    between atoms: C_18  and  C_19
REMARK    7  A    between atoms: C_20  and  C_21
REMARK                            x       y       z     vdW  Elec       q    Type
REMARK                         _______ _______ _______ _____ _____    ______ ____
ROOT
ATOM      1  N   UNL     1       6.890   7.457  17.577  0.00  0.00    +0.000 NA
ATOM      2  C   UNL     1       7.842   7.271  18.427  0.00  0.00    +0.000 C 
ATOM      3  N   UNL     1       8.110   6.160  19.170  0.00  0.00    +0.000 N 
ATOM      4  N   UNL     1       8.762   8.225  18.767  0.00  0.00    +0.000 N 
ATOM      5  H   UNL     1       7.292   5.547  19.180  0.00  0.00    +0.000 HD
ATOM      6  H   UNL     1       8.345   6.412  20.122  0.00  0.00    +0.000 HD
ATOM      7  H   UNL     1       9.706   7.858  18.812  0.00  0.00    +0.000 HD
ENDROOT
BRANCH   1  11
ATOM      8  C   UNL     1       5.770   3.480  15.230  0.00  0.00    +0.000 C 
ATOM      9  C   UNL     1       5.379   4.512  16.247  0.00  0.00    +0.000 A 
ATOM     10  N   UNL     1       6.258   5.521  16.408  0.00  0.00    +0.000 NA
ATOM     11  C   UNL     1       5.955   6.454  17.327  0.00  0.00    +0.000 A 
ATOM     12  N   UNL     1       4.850   6.454  18.082  0.00  0.00    +0.000 NA
ATOM     13  C   UNL     1       3.975   5.438  17.891  0.00  0.00    +0.000 A 
ATOM     14  C   UNL     1       2.739   5.482  18.749  0.00  0.00    +0.000 C 
ATOM     15  C   UNL     1       4.192   4.418  16.971  0.00  0.00    +0.000 A 
ATOM     16  C   UNL     1       3.247   3.275  16.760  0.00  0.00    +0.000 C 
ENDBRANCH   1  11
BRANCH   4  17
ATOM     17  C   UNL     1       8.643   9.600  18.298  0.00  0.00    +0.000 C 
BRANCH  17  18
ATOM     18  C   UNL     1       9.348  10.571  19.251  0.00  0.00    +0.000 C 
BRANCH  18  19
ATOM     19  C   UNL     1       9.927  11.758  18.515  0.00  0.00    +0.000 A 
ATOM     20  C   UNL     1      11.192  11.667  17.916  0.00  0.00    +0.000 A 
ATOM     21  C   UNL     1      11.746  12.770  17.263  0.00  0.00    +0.000 A 
ATOM     22  C   UNL     1      11.045  13.973  17.207  0.00  0.00    +0.000 A 
ATOM     23  C   UNL     1       9.790  14.076  17.803  0.00  0.00    +0.000 A 
ATOM     24  C   UNL     1       9.233  12.973  18.455  0.00  0.00    +0.000 A 
ENDBRANCH  18  19
ENDBRANCH  17  18
ENDBRANCH   4  17
TORSDOF 4
ENDMDL
MODEL 9
REMARK VINA RESULT:      -7.3      5.137      8.400
REMARK  Name = 
REMARK  7 active torsions:
REMARK  status: ('A' for Active; 'I' for Inactive)
REMARK    1  A    between atoms: C_1  and  C_2
REMARK    2  A    between atoms: C_4  and  N_5
REMARK    3  A    between atoms: N_8  and  C_9
REMARK    4  A    between atoms: C_9  and  C_10
REMARK    5  A    between atoms: C_10  and  C_11
REMARK    6  A    between atoms: C_18  and  C_19
REMARK    7  A    between atoms: C_20  and  C_21
REMARK                            x       y       z     vdW  Elec       q    Type
REMARK                         _______ _______ _______ _____ _____    ______ ____
ROOT
ATOM      1  N   UNL     1       2.045   8.266  18.494  0.00  0.00    +0.000 NA
ATOM      2  C   UNL     1       1.664   8.439  19.714  0.00  0.00    +0.000 C 
ATOM      3  N   UNL     1       1.865   7.623  20.788  0.00  0.00    +0.000 N 
ATOM      4  N   UNL     1       0.926   9.507  20.142  0.00  0.00    +0.000 N 
ATOM      5  H   UNL     1       2.136   6.692  20.467  0.00  0.00    +0.000 HD
ATOM      6  H   UNL     1       1.023   7.548  21.345  0.00  0.00    +0.000 HD
ATOM      7  H   UNL     1       1.265   9.892  21.017  0.00  0.00    +0.000 HD
ENDROOT
BRANCH   1  11
ATOM      8  C   UNL     1       2.044   3.551  17.907  0.00  0.00    +0.000 C 
ATOM      9  C   UNL     1       2.788   4.849  17.788  0.00  0.00    +0.000 A 
ATOM     10  N   UNL     1       2.123   5.934  18.235  0.00  0.00    +0.000 NA
ATOM     11  C   UNL     1       2.746   7.119  18.124  0.00  0.00    +0.000 A 
ATOM     12  N   UNL     1       3.970   7.296  17.611  0.00  0.00    +0.000 NA
ATOM     13  C   UNL     1       4.622   6.190  17.184  0.00  0.00    +0.000 A 
ATOM     14  C   UNL     1       6.000   6.429  16.627  0.00  0.00    +0.000 C 
ATOM     15  C   UNL     1       4.069   4.915  17.246  0.00  0.00    +0.000 A 
ATOM     16  C   UNL     1       4.767   3.682  16.760  0.00  0.00    +0.000 C 
ENDBRANCH   1  11
BRANCH   4  17
ATOM     17  C   UNL     1       0.371  10.474  19.203  0.00  0.00    +0.000 C 
BRANCH  17  18
ATOM     18  C   UNL     1      -1.081  10.818  19.556  0.00  0.00    +0.000 C 
BRANCH  18  19
ATOM     19  C   UNL     1      -1.979  10.775  18.342  0.00  0.00    +0.000 A 
ATOM     20  C   UNL     1      -3.168  11.519  18.318  0.00  0.00    +0.000 A 
ATOM     21  C   UNL     1      -4.018  11.459  17.212  0.00  0.00    +0.000 A 
ATOM     22  C   UNL     1      -3.692  10.651  16.124  0.00  0.00    +0.000 A 
ATOM     23  C   UNL     1      -2.516   9.904  16.139  0.00  0.00    +0.000 A 
ATOM     24  C   UNL     1      -1.663   9.965  17.244  0.00  0.00    +0.000 A 
ENDBRANCH  18  19
ENDBRANCH  17  18
ENDBRANCH   4  17
TORSDOF 4
ENDMDL
