MODEL 1
REMARK VINA RESULT:      -6.6      0.000      0.000
REMARK  Name = 
REMARK  6 active torsions:
REMARK  status: ('A' for Active; 'I' for Inactive)
REMARK    1  A    between atoms: C_1  and  N_2
REMARK    2  A    between atoms: N_5  and  C_6
REMARK    3  A    between atoms: C_6  and  N_7
REMARK    4  A    between atoms: C_9  and  C_10
REMARK    5  A    between atoms: N_16  and  N_17
REMARK    6  A    between atoms: C_18  and  C_19
REMARK                            x       y       z     vdW  Elec       q    Type
REMARK                         _______ _______ _______ _____ _____    ______ ____
ROOT
ATOM      1  N   UNL     1      -2.064  13.036  21.345  0.00  0.00    +0.000 N 
ATOM      2  N   UNL     1      -2.650  13.091  20.079  0.00  0.00    +0.000 NA
ATOM      3  C   UNL     1      -2.371  11.934  19.532  0.00  0.00    +0.000 A 
ATOM      4  N   UNL     1      -1.576  11.137  20.317  0.00  0.00    +0.000 N 
ATOM      5  C   UNL     1      -1.507  11.760  21.560  0.00  0.00    +0.000 A 
ATOM      6  S   UNL     1      -0.990  11.116  23.016  0.00  0.00    +0.000 S 
ENDROOT
BRANCH   3   7
ATOM      7  C   UNL     1      -2.896  11.488  18.214  0.00  0.00    +0.000 A 
ATOM      8  C   UNL     1      -2.016  11.163  17.181  0.00  0.00    +0.000 A 
ATOM      9  C   UNL     1      -2.551  10.826  15.948  0.00  0.00    +0.000 A 
ATOM     10  N   UNL     1      -3.872  10.802  15.680  0.00  0.00    +0.000 NA
ATOM     11  C   UNL     1      -4.703  11.144  16.684  0.00  0.00    +0.000 A 
ATOM     12  C   UNL     1      -4.268  11.502  17.949  0.00  0.00    +0.000 A 
ENDBRANCH   3   7
BRANCH   4  13
ATOM     13  N   UNL     1      -0.885  10.047  19.851  0.00  0.00    +0.000 NA
ATOM     14  C   UNL     1       0.401  10.172  19.765  0.00  0.00    +0.000 C 
BRANCH  14  15
ATOM     15  C   UNL     1       1.274   9.093  19.269  0.00  0.00    +0.000 A 
ATOM     16  C   UNL     1       1.831   9.140  17.987  0.00  0.00    +0.000 A 
ATOM     17  C   UNL     1       2.683   8.116  17.570  0.00  0.00    +0.000 A 
ATOM     18  C   UNL     1       2.963   7.059  18.432  0.00  0.00    +0.000 A 
ATOM     19  F   UNL     1       3.783   6.081  18.028  0.00  0.00    +0.000 F 
ATOM     20  C   UNL     1       2.409   7.005  19.707  0.00  0.00    +0.000 A 
ATOM     21  C   UNL     1       1.562   8.027  20.131  0.00  0.00    +0.000 A 
ENDBRANCH  14  15
ENDBRANCH   4  13
BRANCH   1  22
ATOM     22  C   UNL     1      -2.198  14.123  22.304  0.00  0.00    +0.000 C 
BRANCH  22  27
ATOM     23  C   UNL     1      -3.648  17.716  25.252  0.00  0.00    +0.000 C 
ATOM     24  N   UNL     1      -3.952  16.376  24.760  0.00  0.00    +0.000 NA
ATOM     25  C   UNL     1      -2.897  15.418  25.136  0.00  0.00    +0.000 C 
ATOM     26  C   UNL     1      -3.157  14.002  24.568  0.00  0.00    +0.000 C 
ATOM     27  N   UNL     1      -3.409  13.942  23.115  0.00  0.00    +0.000 NA
ATOM     28  C   UNL     1      -4.437  14.948  22.772  0.00  0.00    +0.000 C 
ATOM     29  C   UNL     1      -4.150  16.372  23.301  0.00  0.00    +0.000 C 
ENDBRANCH  22  27
ENDBRANCH   1  22
TORSDOF 5
ENDMDL
MODEL 2
REMARK VINA RESULT:      -6.6      4.176      7.571
REMARK  Name = 
REMARK  6 active torsions:
REMARK  status: ('A' for Active; 'I' for Inactive)
REMARK    1  A    between atoms: C_1  and  N_2
REMARK    2  A    between atoms: N_5  and  C_6
REMARK    3  A    between atoms: C_6  and  N_7
REMARK    4  A    between atoms: C_9  and  C_10
REMARK    5  A    between atoms: N_16  and  N_17
REMARK    6  A    between atoms: C_18  and  C_19
REMARK                            x       y       z     vdW  Elec       q    Type
REMARK                         _______ _______ _______ _____ _____    ______ ____
ROOT
ATOM      1  N   UNL     1       1.083   7.868  20.051  0.00  0.00    +0.000 N 
ATOM      2  N   UNL     1       1.206   6.663  20.746  0.00  0.00    +0.000 NA
ATOM      3  C   UNL     1       2.012   5.936  20.012  0.00  0.00    +0.000 A 
ATOM      4  N   UNL     1       2.378   6.545  18.838  0.00  0.00    +0.000 N 
ATOM      5  C   UNL     1       1.926   7.859  18.923  0.00  0.00    +0.000 A 
ATOM      6  S   UNL     1       2.363   9.170  17.979  0.00  0.00    +0.000 S 
ENDROOT
BRANCH   3   7
ATOM      7  C   UNL     1       2.531   4.603  20.418  0.00  0.00    +0.000 A 
ATOM      8  C   UNL     1       1.827   3.827  21.339  0.00  0.00    +0.000 A 
ATOM      9  C   UNL     1       2.388   2.625  21.744  0.00  0.00    +0.000 A 
ATOM     10  N   UNL     1       3.578   2.163  21.310  0.00  0.00    +0.000 NA
ATOM     11  C   UNL     1       4.252   2.941  20.440  0.00  0.00    +0.000 A 
ATOM     12  C   UNL     1       3.782   4.159  19.980  0.00  0.00    +0.000 A 
ENDBRANCH   3   7
BRANCH   4  13
ATOM     13  N   UNL     1       2.931   5.882  17.771  0.00  0.00    +0.000 NA
ATOM     14  C   UNL     1       4.212   6.002  17.617  0.00  0.00    +0.000 C 
BRANCH  14  15
ATOM     15  C   UNL     1       4.943   5.362  16.509  0.00  0.00    +0.000 A 
ATOM     16  C   UNL     1       5.273   4.005  16.545  0.00  0.00    +0.000 A 
ATOM     17  C   UNL     1       5.934   3.429  15.458  0.00  0.00    +0.000 A 
ATOM     18  C   UNL     1       6.260   4.214  14.356  0.00  0.00    +0.000 A 
ATOM     19  F   UNL     1       6.891   3.657  13.315  0.00  0.00    +0.000 F 
ATOM     20  C   UNL     1       5.938   5.567  14.316  0.00  0.00    +0.000 A 
ATOM     21  C   UNL     1       5.273   6.147  15.396  0.00  0.00    +0.000 A 
ENDBRANCH  14  15
ENDBRANCH   4  13
BRANCH   1  22
ATOM     22  C   UNL     1       0.304   8.982  20.573  0.00  0.00    +0.000 C 
BRANCH  22  27
ATOM     23  C   UNL     1      -1.885  12.484  23.151  0.00  0.00    +0.000 C 
ATOM     24  N   UNL     1      -0.642  11.746  22.950  0.00  0.00    +0.000 NA
ATOM     25  C   UNL     1      -0.097  11.977  21.599  0.00  0.00    +0.000 C 
ATOM     26  C   UNL     1       1.184  11.152  21.331  0.00  0.00    +0.000 C 
ATOM     27  N   UNL     1       1.069   9.704  21.597  0.00  0.00    +0.000 NA
ATOM     28  C   UNL     1       0.478   9.516  22.939  0.00  0.00    +0.000 C 
ATOM     29  C   UNL     1      -0.829  10.306  23.185  0.00  0.00    +0.000 C 
ENDBRANCH  22  27
ENDBRANCH   1  22
TORSDOF 5
ENDMDL
MODEL 3
REMARK VINA RESULT:      -6.6      0.601      1.147
REMARK  Name = 
REMARK  6 active torsions:
REMARK  status: ('A' for Active; 'I' for Inactive)
REMARK    1  A    between atoms: C_1  and  N_2
REMARK    2  A    between atoms: N_5  and  C_6
REMARK    3  A    between atoms: C_6  and  N_7
REMARK    4  A    between atoms: C_9  and  C_10
REMARK    5  A    between atoms: N_16  and  N_17
REMARK    6  A    between atoms: C_18  and  C_19
REMARK                            x       y       z     vdW  Elec       q    Type
REMARK                         _______ _______ _______ _____ _____    ______ ____
ROOT
ATOM      1  N   UNL     1      -2.011  13.090  21.499  0.00  0.00    +0.000 N 
ATOM      2  N   UNL     1      -2.603  13.216  20.242  0.00  0.00    +0.000 NA
ATOM      3  C   UNL     1      -2.346  12.082  19.637  0.00  0.00    +0.000 A 
ATOM      4  N   UNL     1      -1.560  11.236  20.377  0.00  0.00    +0.000 N 
ATOM      5  C   UNL     1      -1.473  11.796  21.649  0.00  0.00    +0.000 A 
ATOM      6  S   UNL     1      -0.959  11.075  23.069  0.00  0.00    +0.000 S 
ENDROOT
BRANCH   3   7
ATOM      7  C   UNL     1      -2.886  11.709  18.303  0.00  0.00    +0.000 A 
ATOM      8  C   UNL     1      -4.265  11.636  18.100  0.00  0.00    +0.000 A 
ATOM      9  C   UNL     1      -4.722  11.211  16.862  0.00  0.00    +0.000 A 
ATOM     10  N   UNL     1      -3.915  10.854  15.842  0.00  0.00    +0.000 NA
ATOM     11  C   UNL     1      -2.588  10.908  16.069  0.00  0.00    +0.000 A 
ATOM     12  C   UNL     1      -2.032  11.312  17.271  0.00  0.00    +0.000 A 
ENDBRANCH   3   7
BRANCH   4  13
ATOM     13  N   UNL     1      -0.890  10.158  19.855  0.00  0.00    +0.000 NA
ATOM     14  C   UNL     1       0.403  10.236  19.835  0.00  0.00    +0.000 C 
BRANCH  14  15
ATOM     15  C   UNL     1       1.256   9.165  19.291  0.00  0.00    +0.000 A 
ATOM     16  C   UNL     1       1.809   9.256  18.010  0.00  0.00    +0.000 A 
ATOM     17  C   UNL     1       2.642   8.236  17.547  0.00  0.00    +0.000 A 
ATOM     18  C   UNL     1       2.910   7.141  18.364  0.00  0.00    +0.000 A 
ATOM     19  F   UNL     1       3.712   6.168  17.917  0.00  0.00    +0.000 F 
ATOM     20  C   UNL     1       2.360   7.043  19.638  0.00  0.00    +0.000 A 
ATOM     21  C   UNL     1       1.531   8.060  20.108  0.00  0.00    +0.000 A 
ENDBRANCH  14  15
ENDBRANCH   4  13
BRANCH   1  22
ATOM     22  C   UNL     1      -2.122  14.132  22.511  0.00  0.00    +0.000 C 
BRANCH  22  27
ATOM     23  C   UNL     1      -5.732  17.054  23.969  0.00  0.00    +0.000 C 
ATOM     24  N   UNL     1      -5.084  15.762  24.169  0.00  0.00    +0.000 NA
ATOM     25  C   UNL     1      -3.693  15.928  24.629  0.00  0.00    +0.000 C 
ATOM     26  C   UNL     1      -2.958  14.576  24.783  0.00  0.00    +0.000 C 
ATOM     27  N   UNL     1      -3.004  13.694  23.600  0.00  0.00    +0.000 NA
ATOM     28  C   UNL     1      -4.406  13.590  23.143  0.00  0.00    +0.000 C 
ATOM     29  C   UNL     1      -5.123  14.946  22.944  0.00  0.00    +0.000 C 
ENDBRANCH  22  27
ENDBRANCH   1  22
TORSDOF 5
ENDMDL
MODEL 4
REMARK VINA RESULT:      -6.4      4.235      7.579
REMARK  Name = 
REMARK  6 active torsions:
REMARK  status: ('A' for Active; 'I' for Inactive)
REMARK    1  A    between atoms: C_1  and  N_2
REMARK    2  A    between atoms: N_5  and  C_6
REMARK    3  A    between atoms: C_6  and  N_7
REMARK    4  A    between atoms: C_9  and  C_10
REMARK    5  A    between atoms: N_16  and  N_17
REMARK    6  A    between atoms: C_18  and  C_19
REMARK                            x       y       z     vdW  Elec       q    Type
REMARK                         _______ _______ _______ _____ _____    ______ ____
ROOT
ATOM      1  N   UNL     1       1.248   7.903  19.945  0.00  0.00    +0.000 N 
ATOM      2  N   UNL     1       1.369   6.712  20.662  0.00  0.00    +0.000 NA
ATOM      3  C   UNL     1       2.213   5.989  19.968  0.00  0.00    +0.000 A 
ATOM      4  N   UNL     1       2.608   6.587  18.798  0.00  0.00    +0.000 N 
ATOM      5  C   UNL     1       2.130   7.894  18.846  0.00  0.00    +0.000 A 
ATOM      6  S   UNL     1       2.575   9.198  17.898  0.00  0.00    +0.000 S 
ENDROOT
BRANCH   3   7
ATOM      7  C   UNL     1       2.742   4.672  20.411  0.00  0.00    +0.000 A 
ATOM      8  C   UNL     1       3.870   4.127  19.796  0.00  0.00    +0.000 A 
ATOM      9  C   UNL     1       4.282   2.863  20.191  0.00  0.00    +0.000 A 
ATOM     10  N   UNL     1       3.654   2.123  21.127  0.00  0.00    +0.000 NA
ATOM     11  C   UNL     1       2.553   2.659  21.690  0.00  0.00    +0.000 A 
ATOM     12  C   UNL     1       2.057   3.909  21.360  0.00  0.00    +0.000 A 
ENDBRANCH   3   7
BRANCH   4  13
ATOM     13  N   UNL     1       3.209   5.919  17.760  0.00  0.00    +0.000 NA
ATOM     14  C   UNL     1       4.448   6.216  17.523  0.00  0.00    +0.000 C 
BRANCH  14  15
ATOM     15  C   UNL     1       5.221   5.594  16.433  0.00  0.00    +0.000 A 
ATOM     16  C   UNL     1       6.591   5.830  16.288  0.00  0.00    +0.000 A 
ATOM     17  C   UNL     1       7.293   5.191  15.264  0.00  0.00    +0.000 A 
ATOM     18  C   UNL     1       6.620   4.331  14.400  0.00  0.00    +0.000 A 
ATOM     19  F   UNL     1       7.298   3.718  13.422  0.00  0.00    +0.000 F 
ATOM     20  C   UNL     1       5.256   4.095  14.538  0.00  0.00    +0.000 A 
ATOM     21  C   UNL     1       4.550   4.727  15.560  0.00  0.00    +0.000 A 
ENDBRANCH  14  15
ENDBRANCH   4  13
BRANCH   1  22
ATOM     22  C   UNL     1       0.431   9.010  20.423  0.00  0.00    +0.000 C 
BRANCH  22  27
ATOM     23  C   UNL     1      -2.015  12.133  23.245  0.00  0.00    +0.000 C 
ATOM     24  N   UNL     1      -0.707  11.554  22.956  0.00  0.00    +0.000 NA
ATOM     25  C   UNL     1      -0.261  11.897  21.593  0.00  0.00    +0.000 C 
ATOM     26  C   UNL     1       1.092  11.239  21.233  0.00  0.00    +0.000 C 
ATOM     27  N   UNL     1       1.158   9.779  21.441  0.00  0.00    +0.000 NA
ATOM     28  C   UNL     1       0.661   9.472  22.798  0.00  0.00    +0.000 C 
ATOM     29  C   UNL     1      -0.715  10.094  23.138  0.00  0.00    +0.000 C 
ENDBRANCH  22  27
ENDBRANCH   1  22
TORSDOF 5
ENDMDL
MODEL 5
REMARK VINA RESULT:      -6.4      2.753      3.908
REMARK  Name = 
REMARK  6 active torsions:
REMARK  status: ('A' for Active; 'I' for Inactive)
REMARK    1  A    between atoms: C_1  and  N_2
REMARK    2  A    between atoms: N_5  and  C_6
REMARK    3  A    between atoms: C_6  and  N_7
REMARK    4  A    between atoms: C_9  and  C_10
REMARK    5  A    between atoms: N_16  and  N_17
REMARK    6  A    between atoms: C_18  and  C_19
REMARK                            x       y       z     vdW  Elec       q    Type
REMARK                         _______ _______ _______ _____ _____    ______ ____
ROOT
ATOM      1  N   UNL     1      -3.002  12.969  20.017  0.00  0.00    +0.000 N 
ATOM      2  N   UNL     1      -1.853  13.662  20.403  0.00  0.00    +0.000 NA
ATOM      3  C   UNL     1      -0.874  13.057  19.777  0.00  0.00    +0.000 A 
ATOM      4  N   UNL     1      -1.280  11.962  19.057  0.00  0.00    +0.000 N 
ATOM      5  C   UNL     1      -2.672  11.988  19.061  0.00  0.00    +0.000 A 
ATOM      6  S   UNL     1      -3.728  11.138  18.080  0.00  0.00    +0.000 S 
ENDROOT
BRANCH   3   7
ATOM      7  C   UNL     1       0.538  13.527  19.791  0.00  0.00    +0.000 A 
ATOM      8  C   UNL     1       1.118  14.037  18.629  0.00  0.00    +0.000 A 
ATOM      9  C   UNL     1       2.458  14.392  18.670  0.00  0.00    +0.000 A 
ATOM     10  N   UNL     1       3.239  14.264  19.761  0.00  0.00    +0.000 NA
ATOM     11  C   UNL     1       2.664  13.745  20.864  0.00  0.00    +0.000 A 
ATOM     12  C   UNL     1       1.338  13.355  20.924  0.00  0.00    +0.000 A 
ENDBRANCH   3   7
BRANCH   4  13
ATOM     13  N   UNL     1      -0.429  10.989  18.596  0.00  0.00    +0.000 NA
ATOM     14  C   UNL     1       0.151  10.257  19.493  0.00  0.00    +0.000 C 
BRANCH  14  15
ATOM     15  C   UNL     1       1.101   9.183  19.152  0.00  0.00    +0.000 A 
ATOM     16  C   UNL     1       1.744   9.149  17.911  0.00  0.00    +0.000 A 
ATOM     17  C   UNL     1       2.665   8.135  17.642  0.00  0.00    +0.000 A 
ATOM     18  C   UNL     1       2.928   7.170  18.610  0.00  0.00    +0.000 A 
ATOM     19  F   UNL     1       3.815   6.202  18.348  0.00  0.00    +0.000 F 
ATOM     20  C   UNL     1       2.289   7.196  19.845  0.00  0.00    +0.000 A 
ATOM     21  C   UNL     1       1.371   8.208  20.121  0.00  0.00    +0.000 A 
ENDBRANCH  14  15
ENDBRANCH   4  13
BRANCH   1  22
ATOM     22  C   UNL     1      -4.329  13.372  20.459  0.00  0.00    +0.000 C 
BRANCH  22  27
ATOM     23  C   UNL     1      -7.531  14.978  23.756  0.00  0.00    +0.000 C 
ATOM     24  N   UNL     1      -6.775  13.821  23.287  0.00  0.00    +0.000 NA
ATOM     25  C   UNL     1      -5.324  14.043  23.416  0.00  0.00    +0.000 C 
ATOM     26  C   UNL     1      -4.495  12.861  22.861  0.00  0.00    +0.000 C 
ATOM     27  N   UNL     1      -4.829  12.447  21.484  0.00  0.00    +0.000 NA
ATOM     28  C   UNL     1      -6.294  12.280  21.384  0.00  0.00    +0.000 C 
ATOM     29  C   UNL     1      -7.119  13.484  21.896  0.00  0.00    +0.000 C 
ENDBRANCH  22  27
ENDBRANCH   1  22
TORSDOF 5
ENDMDL
MODEL 6
REMARK VINA RESULT:      -6.4      0.562      1.372
REMARK  Name = 
REMARK  6 active torsions:
REMARK  status: ('A' for Active; 'I' for Inactive)
REMARK    1  A    between atoms: C_1  and  N_2
REMARK    2  A    between atoms: N_5  and  C_6
REMARK    3  A    between atoms: C_6  and  N_7
REMARK    4  A    between atoms: C_9  and  C_10
REMARK    5  A    between atoms: N_16  and  N_17
REMARK    6  A    between atoms: C_18  and  C_19
REMARK                            x       y       z     vdW  Elec       q    Type
REMARK                         _______ _______ _______ _____ _____    ______ ____
ROOT
ATOM      1  N   UNL     1      -1.856  12.998  21.286  0.00  0.00    +0.000 N 
ATOM      2  N   UNL     1      -2.431  13.082  20.017  0.00  0.00    +0.000 NA
ATOM      3  C   UNL     1      -2.175  11.926  19.458  0.00  0.00    +0.000 A 
ATOM      4  N   UNL     1      -1.404  11.101  20.238  0.00  0.00    +0.000 N 
ATOM      5  C   UNL     1      -1.330  11.706  21.490  0.00  0.00    +0.000 A 
ATOM      6  S   UNL     1      -0.839  11.033  22.940  0.00  0.00    +0.000 S 
ENDROOT
BRANCH   3   7
ATOM      7  C   UNL     1      -2.701  11.508  18.130  0.00  0.00    +0.000 A 
ATOM      8  C   UNL     1      -4.052  11.677  17.827  0.00  0.00    +0.000 A 
ATOM      9  C   UNL     1      -4.512  11.204  16.608  0.00  0.00    +0.000 A 
ATOM     10  N   UNL     1      -3.735  10.582  15.698  0.00  0.00    +0.000 NA
ATOM     11  C   UNL     1      -2.439  10.408  16.023  0.00  0.00    +0.000 A 
ATOM     12  C   UNL     1      -1.885  10.836  17.216  0.00  0.00    +0.000 A 
ENDBRANCH   3   7
BRANCH   4  13
ATOM     13  N   UNL     1      -0.735  10.000  19.763  0.00  0.00    +0.000 NA
ATOM     14  C   UNL     1       0.558  10.043  19.818  0.00  0.00    +0.000 C 
BRANCH  14  15
ATOM     15  C   UNL     1       1.412   8.944  19.333  0.00  0.00    +0.000 A 
ATOM     16  C   UNL     1       1.691   7.833  20.134  0.00  0.00    +0.000 A 
ATOM     17  C   UNL     1       2.474   6.796  19.622  0.00  0.00    +0.000 A 
ATOM     18  C   UNL     1       2.969   6.883  18.323  0.00  0.00    +0.000 A 
ATOM     19  F   UNL     1       3.716   5.885  17.836  0.00  0.00    +0.000 F 
ATOM     20  C   UNL     1       2.697   7.988  17.523  0.00  0.00    +0.000 A 
ATOM     21  C   UNL     1       1.912   9.024  18.026  0.00  0.00    +0.000 A 
ENDBRANCH  14  15
ENDBRANCH   4  13
BRANCH   1  22
ATOM     22  C   UNL     1      -1.972  14.076  22.258  0.00  0.00    +0.000 C 
BRANCH  22  27
ATOM     23  C   UNL     1      -3.095  17.690  25.320  0.00  0.00    +0.000 C 
ATOM     24  N   UNL     1      -3.616  16.766  24.318  0.00  0.00    +0.000 NA
ATOM     25  C   UNL     1      -3.477  15.366  24.759  0.00  0.00    +0.000 C 
ATOM     26  C   UNL     1      -3.956  14.360  23.686  0.00  0.00    +0.000 C 
ATOM     27  N   UNL     1      -3.364  14.536  22.346  0.00  0.00    +0.000 NA
ATOM     28  C   UNL     1      -3.482  15.958  21.960  0.00  0.00    +0.000 C 
ATOM     29  C   UNL     1      -2.957  16.959  23.016  0.00  0.00    +0.000 C 
ENDBRANCH  22  27
ENDBRANCH   1  22
TORSDOF 5
ENDMDL
MODEL 7
REMARK VINA RESULT:      -6.4      2.790      4.152
REMARK  Name = 
REMARK  6 active torsions:
REMARK  status: ('A' for Active; 'I' for Inactive)
REMARK    1  A    between atoms: C_1  and  N_2
REMARK    2  A    between atoms: N_5  and  C_6
REMARK    3  A    between atoms: C_6  and  N_7
REMARK    4  A    between atoms: C_9  and  C_10
REMARK    5  A    between atoms: N_16  and  N_17
REMARK    6  A    between atoms: C_18  and  C_19
REMARK                            x       y       z     vdW  Elec       q    Type
REMARK                         _______ _______ _______ _____ _____    ______ ____
ROOT
ATOM      1  N   UNL     1      -2.061  13.008  19.962  0.00  0.00    +0.000 N 
ATOM      2  N   UNL     1      -0.904  13.701  20.325  0.00  0.00    +0.000 NA
ATOM      3  C   UNL     1       0.070  13.050  19.739  0.00  0.00    +0.000 A 
ATOM      4  N   UNL     1      -0.348  11.927  19.070  0.00  0.00    +0.000 N 
ATOM      5  C   UNL     1      -1.739  11.976  19.059  0.00  0.00    +0.000 A 
ATOM      6  S   UNL     1      -2.801  11.096  18.111  0.00  0.00    +0.000 S 
ENDROOT
BRANCH   3   7
ATOM      7  C   UNL     1       1.489  13.495  19.744  0.00  0.00    +0.000 A 
ATOM      8  C   UNL     1       2.184  13.611  20.949  0.00  0.00    +0.000 A 
ATOM      9  C   UNL     1       3.480  14.103  20.912  0.00  0.00    +0.000 A 
ATOM     10  N   UNL     1       4.109  14.486  19.782  0.00  0.00    +0.000 NA
ATOM     11  C   UNL     1       3.410  14.389  18.634  0.00  0.00    +0.000 A 
ATOM     12  C   UNL     1       2.110  13.918  18.566  0.00  0.00    +0.000 A 
ENDBRANCH   3   7
BRANCH   4  13
ATOM     13  N   UNL     1       0.490  10.918  18.666  0.00  0.00    +0.000 NA
ATOM     14  C   UNL     1       0.659   9.940  19.499  0.00  0.00    +0.000 C 
BRANCH  14  15
ATOM     15  C   UNL     1       1.540   8.794  19.212  0.00  0.00    +0.000 A 
ATOM     16  C   UNL     1       1.727   7.770  20.145  0.00  0.00    +0.000 A 
ATOM     17  C   UNL     1       2.540   6.683  19.819  0.00  0.00    +0.000 A 
ATOM     18  C   UNL     1       3.158   6.635  18.572  0.00  0.00    +0.000 A 
ATOM     19  F   UNL     1       3.934   5.590  18.263  0.00  0.00    +0.000 F 
ATOM     20  C   UNL     1       2.978   7.653  17.641  0.00  0.00    +0.000 A 
ATOM     21  C   UNL     1       2.163   8.738  17.958  0.00  0.00    +0.000 A 
ENDBRANCH  14  15
ENDBRANCH   4  13
BRANCH   1  22
ATOM     22  C   UNL     1      -3.386  13.455  20.370  0.00  0.00    +0.000 C 
BRANCH  22  27
ATOM     23  C   UNL     1      -6.184  15.381  23.857  0.00  0.00    +0.000 C 
ATOM     24  N   UNL     1      -5.586  14.151  23.346  0.00  0.00    +0.000 NA
ATOM     25  C   UNL     1      -4.114  14.219  23.381  0.00  0.00    +0.000 C 
ATOM     26  C   UNL     1      -3.452  12.957  22.779  0.00  0.00    +0.000 C 
ATOM     27  N   UNL     1      -3.915  12.585  21.428  0.00  0.00    +0.000 NA
ATOM     28  C   UNL     1      -5.393  12.574  21.421  0.00  0.00    +0.000 C 
ATOM     29  C   UNL     1      -6.051  13.857  21.980  0.00  0.00    +0.000 C 
ENDBRANCH  22  27
ENDBRANCH   1  22
TORSDOF 5
ENDMDL
MODEL 8
REMARK VINA RESULT:      -6.3      3.881      5.463
REMARK  Name = 
REMARK  6 active torsions:
REMARK  status: ('A' for Active; 'I' for Inactive)
REMARK    1  A    between atoms: C_1  and  N_2
REMARK    2  A    between atoms: N_5  and  C_6
REMARK    3  A    between atoms: C_6  and  N_7
REMARK    4  A    between atoms: C_9  and  C_10
REMARK    5  A    between atoms: N_16  and  N_17
REMARK    6  A    between atoms: C_18  and  C_19
REMARK                            x       y       z     vdW  Elec       q    Type
REMARK                         _______ _______ _______ _____ _____    ______ ____
ROOT
ATOM      1  N   UNL     1      -2.792  12.807  23.567  0.00  0.00    +0.000 N 
ATOM      2  N   UNL     1      -2.454  11.571  23.015  0.00  0.00    +0.000 NA
ATOM      3  C   UNL     1      -1.244  11.736  22.543  0.00  0.00    +0.000 A 
ATOM      4  N   UNL     1      -0.777  13.020  22.676  0.00  0.00    +0.000 N 
ATOM      5  C   UNL     1      -1.693  13.685  23.487  0.00  0.00    +0.000 A 
ATOM      6  S   UNL     1      -1.505  15.143  24.285  0.00  0.00    +0.000 S 
ENDROOT
BRANCH   3   7
ATOM      7  C   UNL     1      -0.420  10.642  21.963  0.00  0.00    +0.000 A 
ATOM      8  C   UNL     1       0.308   9.794  22.799  0.00  0.00    +0.000 A 
ATOM      9  C   UNL     1       1.121   8.837  22.211  0.00  0.00    +0.000 A 
ATOM     10  N   UNL     1       1.260   8.681  20.878  0.00  0.00    +0.000 NA
ATOM     11  C   UNL     1       0.568   9.527  20.091  0.00  0.00    +0.000 A 
ATOM     12  C   UNL     1      -0.265  10.520  20.580  0.00  0.00    +0.000 A 
ENDBRANCH   3   7
BRANCH   4  13
ATOM     13  N   UNL     1       0.296  13.521  21.984  0.00  0.00    +0.000 NA
ATOM     14  C   UNL     1       0.029  14.168  20.894  0.00  0.00    +0.000 C 
BRANCH  14  15
ATOM     15  C   UNL     1       1.077  14.751  20.037  0.00  0.00    +0.000 A 
ATOM     16  C   UNL     1       0.845  15.912  19.293  0.00  0.00    +0.000 A 
ATOM     17  C   UNL     1       1.877  16.452  18.523  0.00  0.00    +0.000 A 
ATOM     18  C   UNL     1       3.121  15.826  18.502  0.00  0.00    +0.000 A 
ATOM     19  F   UNL     1       4.108  16.349  17.765  0.00  0.00    +0.000 F 
ATOM     20  C   UNL     1       3.356  14.668  19.237  0.00  0.00    +0.000 A 
ATOM     21  C   UNL     1       2.332  14.127  20.012  0.00  0.00    +0.000 A 
ENDBRANCH  14  15
ENDBRANCH   4  13
BRANCH   1  22
ATOM     22  C   UNL     1      -4.057  13.024  24.255  0.00  0.00    +0.000 C 
BRANCH  22  27
ATOM     23  C   UNL     1      -7.465  16.193  22.825  0.00  0.00    +0.000 C 
ATOM     24  N   UNL     1      -7.020  14.805  22.760  0.00  0.00    +0.000 NA
ATOM     25  C   UNL     1      -7.028  14.179  24.094  0.00  0.00    +0.000 C 
ATOM     26  C   UNL     1      -6.494  12.727  24.068  0.00  0.00    +0.000 C 
ATOM     27  N   UNL     1      -5.175  12.552  23.428  0.00  0.00    +0.000 NA
ATOM     28  C   UNL     1      -5.193  13.231  22.115  0.00  0.00    +0.000 C 
ATOM     29  C   UNL     1      -5.683  14.697  22.154  0.00  0.00    +0.000 C 
ENDBRANCH  22  27
ENDBRANCH   1  22
TORSDOF 5
ENDMDL
MODEL 9
REMARK VINA RESULT:      -6.2      2.718      4.914
REMARK  Name = 
REMARK  6 active torsions:
REMARK  status: ('A' for Active; 'I' for Inactive)
REMARK    1  A    between atoms: C_1  and  N_2
REMARK    2  A    between atoms: N_5  and  C_6
REMARK    3  A    between atoms: C_6  and  N_7
REMARK    4  A    between atoms: C_9  and  C_10
REMARK    5  A    between atoms: N_16  and  N_17
REMARK    6  A    between atoms: C_18  and  C_19
REMARK                            x       y       z     vdW  Elec       q    Type
REMARK                         _______ _______ _______ _____ _____    ______ ____
ROOT
ATOM      1  N   UNL     1      -0.878  14.126  22.588  0.00  0.00    +0.000 N 
ATOM      2  N   UNL     1      -0.541  12.818  22.943  0.00  0.00    +0.000 NA
ATOM      3  C   UNL     1      -0.451  12.177  21.804  0.00  0.00    +0.000 A 
ATOM      4  N   UNL     1      -0.777  12.948  20.716  0.00  0.00    +0.000 N 
ATOM      5  C   UNL     1      -0.891  14.254  21.185  0.00  0.00    +0.000 A 
ATOM      6  S   UNL     1      -0.921  15.675  20.301  0.00  0.00    +0.000 S 
ENDROOT
BRANCH   3   7
ATOM      7  C   UNL     1       0.006  10.768  21.676  0.00  0.00    +0.000 A 
ATOM      8  C   UNL     1       0.856  10.398  20.632  0.00  0.00    +0.000 A 
ATOM      9  C   UNL     1       1.195   9.059  20.509  0.00  0.00    +0.000 A 
ATOM     10  N   UNL     1       0.747   8.089  21.331  0.00  0.00    +0.000 NA
ATOM     11  C   UNL     1      -0.092   8.465  22.316  0.00  0.00    +0.000 A 
ATOM     12  C   UNL     1      -0.496   9.773  22.519  0.00  0.00    +0.000 A 
ENDBRANCH   3   7
BRANCH   4  13
ATOM     13  N   UNL     1      -1.078  12.439  19.478  0.00  0.00    +0.000 NA
ATOM     14  C   UNL     1      -2.299  12.045  19.297  0.00  0.00    +0.000 C 
BRANCH  14  15
ATOM     15  C   UNL     1      -2.767  11.463  18.026  0.00  0.00    +0.000 A 
ATOM     16  C   UNL     1      -1.974  10.568  17.302  0.00  0.00    +0.000 A 
ATOM     17  C   UNL     1      -2.471  10.011  16.121  0.00  0.00    +0.000 A 
ATOM     18  C   UNL     1      -3.745  10.356  15.680  0.00  0.00    +0.000 A 
ATOM     19  F   UNL     1      -4.218   9.817  14.550  0.00  0.00    +0.000 F 
ATOM     20  C   UNL     1      -4.537  11.249  16.395  0.00  0.00    +0.000 A 
ATOM     21  C   UNL     1      -4.049  11.805  17.576  0.00  0.00    +0.000 A 
ENDBRANCH  14  15
ENDBRANCH   4  13
BRANCH   1  22
ATOM     22  C   UNL     1      -1.016  15.182  23.581  0.00  0.00    +0.000 C 
BRANCH  22  27
ATOM     23  C   UNL     1      -4.951  17.827  24.684  0.00  0.00    +0.000 C 
ATOM     24  N   UNL     1      -4.187  16.627  25.009  0.00  0.00    +0.000 NA
ATOM     25  C   UNL     1      -2.839  16.968  25.497  0.00  0.00    +0.000 C 
ATOM     26  C   UNL     1      -1.980  15.714  25.783  0.00  0.00    +0.000 C 
ATOM     27  N   UNL     1      -1.893  14.743  24.674  0.00  0.00    +0.000 NA
ATOM     28  C   UNL     1      -3.259  14.462  24.184  0.00  0.00    +0.000 C 
ATOM     29  C   UNL     1      -4.098  15.719  23.854  0.00  0.00    +0.000 C 
ENDBRANCH  22  27
ENDBRANCH   1  22
TORSDOF 5
ENDMDL
