MODEL 1
REMARK VINA RESULT:      -6.4      0.000      0.000
REMARK  Name = 
REMARK  6 active torsions:
REMARK  status: ('A' for Active; 'I' for Inactive)
REMARK    1  A    between atoms: C_1  and  C_2
REMARK    2  A    between atoms: C_2  and  C_3
REMARK    3  A    between atoms: C_5  and  C_6
REMARK    4  A    between atoms: N_8  and  C_9
REMARK    5  A    between atoms: C_9  and  C_10
REMARK    6  A    between atoms: C_16  and  C_17
REMARK                            x       y       z     vdW  Elec       q    Type
REMARK                         _______ _______ _______ _____ _____    ______ ____
ROOT
ATOM      1  C   UNL     1       5.260   4.582  17.337  0.00  0.00    +0.000 C 
ATOM      2  O   UNL     1       5.114   5.631  17.963  0.00  0.00    +0.000 OA
ATOM      3  N   UNL     1       4.923   3.364  17.885  0.00  0.00    +0.000 N 
ATOM      4  H   UNL     1       5.083   2.527  17.337  0.00  0.00    +0.000 HD
ENDROOT
BRANCH   1   7
ATOM      5  C   UNL     1       6.115   3.915  13.733  0.00  0.00    +0.000 A 
ATOM      6  C   UNL     1       5.366   3.737  14.944  0.00  0.00    +0.000 A 
ATOM      7  C   UNL     1       5.795   4.544  15.981  0.00  0.00    +0.000 A 
ATOM      8  S   UNL     1       7.083   5.547  15.475  0.00  0.00    +0.000 S 
ATOM      9  C   UNL     1       7.086   4.891  13.895  0.00  0.00    +0.000 A 
ATOM     10  C   UNL     1       8.074   5.389  12.891  0.00  0.00    +0.000 C 
BRANCH   5  12
ATOM     11  C   UNL     1       4.542   3.496  11.824  0.00  0.00    +0.000 C 
ATOM     12  C   UNL     1       5.869   3.133  12.473  0.00  0.00    +0.000 C 
ENDBRANCH   5  12
ENDBRANCH   1   7
BRANCH   3  13
ATOM     13  C   UNL     1       4.381   3.199  19.222  0.00  0.00    +0.000 C 
BRANCH  13  14
ATOM     14  C   UNL     1       2.857   3.341  19.251  0.00  0.00    +0.000 C 
ATOM     15  C   UNL     1       2.345   4.617  19.903  0.00  0.00    +0.000 C 
ATOM     16  C   UNL     1       1.000   4.187  20.432  0.00  0.00    +0.000 C 
ATOM     17  C   UNL     1       1.265   2.759  20.858  0.00  0.00    +0.000 C 
ATOM     18  O   UNL     1       2.271   2.238  19.978  0.00  0.00    +0.000 OA
ENDBRANCH  13  14
ENDBRANCH   3  13
TORSDOF 4
ENDMDL
MODEL 2
REMARK VINA RESULT:      -6.4      2.300      7.190
REMARK  Name = 
REMARK  6 active torsions:
REMARK  status: ('A' for Active; 'I' for Inactive)
REMARK    1  A    between atoms: C_1  and  C_2
REMARK    2  A    between atoms: C_2  and  C_3
REMARK    3  A    between atoms: C_5  and  C_6
REMARK    4  A    between atoms: N_8  and  C_9
REMARK    5  A    between atoms: C_9  and  C_10
REMARK    6  A    between atoms: C_16  and  C_17
REMARK                            x       y       z     vdW  Elec       q    Type
REMARK                         _______ _______ _______ _____ _____    ______ ____
ROOT
ATOM      1  C   UNL     1       5.988   4.548  18.229  0.00  0.00    +0.000 C 
ATOM      2  O   UNL     1       7.110   4.367  18.701  0.00  0.00    +0.000 OA
ATOM      3  N   UNL     1       5.811   4.898  16.909  0.00  0.00    +0.000 N 
ATOM      4  H   UNL     1       4.868   5.057  16.574  0.00  0.00    +0.000 HD
ENDROOT
BRANCH   1   7
ATOM      5  C   UNL     1       2.803   4.962  20.190  0.00  0.00    +0.000 A 
ATOM      6  C   UNL     1       3.900   5.417  19.385  0.00  0.00    +0.000 A 
ATOM      7  C   UNL     1       4.771   4.408  19.020  0.00  0.00    +0.000 A 
ATOM      8  S   UNL     1       4.237   2.900  19.623  0.00  0.00    +0.000 S 
ATOM      9  C   UNL     1       2.872   3.592  20.386  0.00  0.00    +0.000 A 
ATOM     10  C   UNL     1       1.934   2.718  21.153  0.00  0.00    +0.000 C 
BRANCH   5  12
ATOM     11  C   UNL     1       1.874   7.293  20.229  0.00  0.00    +0.000 C 
ATOM     12  C   UNL     1       1.739   5.867  20.744  0.00  0.00    +0.000 C 
ENDBRANCH   5  12
ENDBRANCH   1   7
BRANCH   3  13
ATOM     13  C   UNL     1       6.899   5.089  15.968  0.00  0.00    +0.000 C 
BRANCH  13  14
ATOM     14  C   UNL     1       6.426   5.024  14.513  0.00  0.00    +0.000 C 
ATOM     15  C   UNL     1       5.971   3.647  14.048  0.00  0.00    +0.000 C 
ATOM     16  C   UNL     1       6.271   3.696  12.571  0.00  0.00    +0.000 C 
ATOM     17  C   UNL     1       7.545   4.511  12.528  0.00  0.00    +0.000 C 
ATOM     18  O   UNL     1       7.491   5.431  13.627  0.00  0.00    +0.000 OA
ENDBRANCH  13  14
ENDBRANCH   3  13
TORSDOF 4
ENDMDL
MODEL 3
REMARK VINA RESULT:      -6.4      2.234      7.180
REMARK  Name = 
REMARK  6 active torsions:
REMARK  status: ('A' for Active; 'I' for Inactive)
REMARK    1  A    between atoms: C_1  and  C_2
REMARK    2  A    between atoms: C_2  and  C_3
REMARK    3  A    between atoms: C_5  and  C_6
REMARK    4  A    between atoms: N_8  and  C_9
REMARK    5  A    between atoms: C_9  and  C_10
REMARK    6  A    between atoms: C_16  and  C_17
REMARK                            x       y       z     vdW  Elec       q    Type
REMARK                         _______ _______ _______ _____ _____    ______ ____
ROOT
ATOM      1  C   UNL     1       4.860   5.056  17.224  0.00  0.00    +0.000 C 
ATOM      2  O   UNL     1       4.935   6.252  16.944  0.00  0.00    +0.000 OA
ATOM      3  N   UNL     1       5.839   4.165  16.843  0.00  0.00    +0.000 N 
ATOM      4  H   UNL     1       5.720   3.187  17.078  0.00  0.00    +0.000 HD
ENDROOT
BRANCH   1   7
ATOM      5  C   UNL     1       2.268   4.023  19.748  0.00  0.00    +0.000 A 
ATOM      6  C   UNL     1       3.411   4.758  19.289  0.00  0.00    +0.000 A 
ATOM      7  C   UNL     1       3.743   4.493  17.973  0.00  0.00    +0.000 A 
ATOM      8  S   UNL     1       2.646   3.379  17.284  0.00  0.00    +0.000 S 
ATOM      9  C   UNL     1       1.751   3.233  18.734  0.00  0.00    +0.000 A 
ATOM     10  C   UNL     1       0.569   2.319  18.783  0.00  0.00    +0.000 C 
BRANCH   5  12
ATOM     11  C   UNL     1       1.987   2.834  21.940  0.00  0.00    +0.000 C 
ATOM     12  C   UNL     1       1.725   4.107  21.147  0.00  0.00    +0.000 C 
ENDBRANCH   5  12
ENDBRANCH   1   7
BRANCH   3  13
ATOM     13  C   UNL     1       7.022   4.535  16.088  0.00  0.00    +0.000 C 
BRANCH  13  14
ATOM     14  C   UNL     1       6.689   4.939  14.648  0.00  0.00    +0.000 C 
ATOM     15  C   UNL     1       6.315   3.785  13.729  0.00  0.00    +0.000 C 
ATOM     16  C   UNL     1       6.750   4.300  12.380  0.00  0.00    +0.000 C 
ATOM     17  C   UNL     1       8.001   5.079  12.722  0.00  0.00    +0.000 C 
ATOM     18  O   UNL     1       7.821   5.602  14.045  0.00  0.00    +0.000 OA
ENDBRANCH  13  14
ENDBRANCH   3  13
TORSDOF 4
ENDMDL
MODEL 4
REMARK VINA RESULT:      -6.4      1.848      2.585
REMARK  Name = 
REMARK  6 active torsions:
REMARK  status: ('A' for Active; 'I' for Inactive)
REMARK    1  A    between atoms: C_1  and  C_2
REMARK    2  A    between atoms: C_2  and  C_3
REMARK    3  A    between atoms: C_5  and  C_6
REMARK    4  A    between atoms: N_8  and  C_9
REMARK    5  A    between atoms: C_9  and  C_10
REMARK    6  A    between atoms: C_16  and  C_17
REMARK                            x       y       z     vdW  Elec       q    Type
REMARK                         _______ _______ _______ _____ _____    ______ ____
ROOT
ATOM      1  C   UNL     1       3.409   3.305  17.571  0.00  0.00    +0.000 C 
ATOM      2  O   UNL     1       3.486   2.087  17.732  0.00  0.00    +0.000 OA
ATOM      3  N   UNL     1       2.249   3.995  17.848  0.00  0.00    +0.000 N 
ATOM      4  H   UNL     1       2.229   4.994  17.677  0.00  0.00    +0.000 HD
ENDROOT
BRANCH   1   7
ATOM      5  C   UNL     1       6.226   4.918  15.669  0.00  0.00    +0.000 A 
ATOM      6  C   UNL     1       5.134   4.005  15.843  0.00  0.00    +0.000 A 
ATOM      7  C   UNL     1       4.524   4.105  17.079  0.00  0.00    +0.000 A 
ATOM      8  S   UNL     1       5.254   5.334  18.017  0.00  0.00    +0.000 S 
ATOM      9  C   UNL     1       6.389   5.711  16.794  0.00  0.00    +0.000 A 
ATOM     10  C   UNL     1       7.398   6.787  17.030  0.00  0.00    +0.000 C 
BRANCH   5  12
ATOM     11  C   UNL     1       6.562   4.057  13.336  0.00  0.00    +0.000 C 
ATOM     12  C   UNL     1       7.073   4.985  14.429  0.00  0.00    +0.000 C 
ENDBRANCH   5  12
ENDBRANCH   1   7
BRANCH   3  13
ATOM     13  C   UNL     1       1.033   3.372  18.339  0.00  0.00    +0.000 C 
BRANCH  13  14
ATOM     14  C   UNL     1       0.982   3.330  19.869  0.00  0.00    +0.000 C 
ATOM     15  C   UNL     1       1.683   4.487  20.566  0.00  0.00    +0.000 C 
ATOM     16  C   UNL     1       2.103   3.862  21.873  0.00  0.00    +0.000 C 
ATOM     17  C   UNL     1       2.451   2.450  21.457  0.00  0.00    +0.000 C 
ATOM     18  O   UNL     1       1.600   2.116  20.352  0.00  0.00    +0.000 OA
ENDBRANCH  13  14
ENDBRANCH   3  13
TORSDOF 4
ENDMDL
MODEL 5
REMARK VINA RESULT:      -6.3      2.193      7.244
REMARK  Name = 
REMARK  6 active torsions:
REMARK  status: ('A' for Active; 'I' for Inactive)
REMARK    1  A    between atoms: C_1  and  C_2
REMARK    2  A    between atoms: C_2  and  C_3
REMARK    3  A    between atoms: C_5  and  C_6
REMARK    4  A    between atoms: N_8  and  C_9
REMARK    5  A    between atoms: C_9  and  C_10
REMARK    6  A    between atoms: C_16  and  C_17
REMARK                            x       y       z     vdW  Elec       q    Type
REMARK                         _______ _______ _______ _____ _____    ______ ____
ROOT
ATOM      1  C   UNL     1       5.539   4.148  17.882  0.00  0.00    +0.000 C 
ATOM      2  O   UNL     1       6.501   4.406  18.605  0.00  0.00    +0.000 OA
ATOM      3  N   UNL     1       5.675   4.041  16.515  0.00  0.00    +0.000 N 
ATOM      4  H   UNL     1       4.849   3.850  15.961  0.00  0.00    +0.000 HD
ENDROOT
BRANCH   1   7
ATOM      5  C   UNL     1       2.231   4.234  19.672  0.00  0.00    +0.000 A 
ATOM      6  C   UNL     1       3.539   4.720  19.339  0.00  0.00    +0.000 A 
ATOM      7  C   UNL     1       4.195   3.938  18.406  0.00  0.00    +0.000 A 
ATOM      8  S   UNL     1       3.209   2.635  17.906  0.00  0.00    +0.000 S 
ATOM      9  C   UNL     1       1.929   3.094  18.943  0.00  0.00    +0.000 A 
ATOM     10  C   UNL     1       0.678   2.277  18.979  0.00  0.00    +0.000 C 
BRANCH   5  12
ATOM     11  C   UNL     1       1.535   6.390  20.751  0.00  0.00    +0.000 C 
ATOM     12  C   UNL     1       1.328   4.884  20.683  0.00  0.00    +0.000 C 
ENDBRANCH   5  12
ENDBRANCH   1   7
BRANCH   3  13
ATOM     13  C   UNL     1       6.931   4.222  15.809  0.00  0.00    +0.000 C 
BRANCH  13  14
ATOM     14  C   UNL     1       6.731   4.828  14.417  0.00  0.00    +0.000 C 
ATOM     15  C   UNL     1       6.517   3.814  13.302  0.00  0.00    +0.000 C 
ATOM     16  C   UNL     1       7.064   4.543  12.101  0.00  0.00    +0.000 C 
ATOM     17  C   UNL     1       8.231   5.304  12.691  0.00  0.00    +0.000 C 
ATOM     18  O   UNL     1       7.885   5.614  14.049  0.00  0.00    +0.000 OA
ENDBRANCH  13  14
ENDBRANCH   3  13
TORSDOF 4
ENDMDL
MODEL 6
REMARK VINA RESULT:      -6.3      1.930      2.678
REMARK  Name = 
REMARK  6 active torsions:
REMARK  status: ('A' for Active; 'I' for Inactive)
REMARK    1  A    between atoms: C_1  and  C_2
REMARK    2  A    between atoms: C_2  and  C_3
REMARK    3  A    between atoms: C_5  and  C_6
REMARK    4  A    between atoms: N_8  and  C_9
REMARK    5  A    between atoms: C_9  and  C_10
REMARK    6  A    between atoms: C_16  and  C_17
REMARK                            x       y       z     vdW  Elec       q    Type
REMARK                         _______ _______ _______ _____ _____    ______ ____
ROOT
ATOM      1  C   UNL     1       2.883   4.692  17.712  0.00  0.00    +0.000 C 
ATOM      2  O   UNL     1       2.028   5.471  18.131  0.00  0.00    +0.000 OA
ATOM      3  N   UNL     1       2.657   3.334  17.664  0.00  0.00    +0.000 N 
ATOM      4  H   UNL     1       3.400   2.731  17.332  0.00  0.00    +0.000 HD
ENDROOT
BRANCH   1   7
ATOM      5  C   UNL     1       6.157   5.279  15.953  0.00  0.00    +0.000 A 
ATOM      6  C   UNL     1       4.881   4.651  16.145  0.00  0.00    +0.000 A 
ATOM      7  C   UNL     1       4.188   5.137  17.237  0.00  0.00    +0.000 A 
ATOM      8  S   UNL     1       5.068   6.381  18.010  0.00  0.00    +0.000 S 
ATOM      9  C   UNL     1       6.374   6.256  16.912  0.00  0.00    +0.000 A 
ATOM     10  C   UNL     1       7.563   7.146  17.074  0.00  0.00    +0.000 C 
BRANCH   5  12
ATOM     11  C   UNL     1       6.448   4.090  13.763  0.00  0.00    +0.000 C 
ATOM     12  C   UNL     1       7.118   4.907  14.858  0.00  0.00    +0.000 C 
ENDBRANCH   5  12
ENDBRANCH   1   7
BRANCH   3  13
ATOM     13  C   UNL     1       1.423   2.702  18.097  0.00  0.00    +0.000 C 
BRANCH  13  14
ATOM     14  C   UNL     1       1.492   2.232  19.553  0.00  0.00    +0.000 C 
ATOM     15  C   UNL     1       0.858   3.178  20.562  0.00  0.00    +0.000 C 
ATOM     16  C   UNL     1       1.657   2.894  21.809  0.00  0.00    +0.000 C 
ATOM     17  C   UNL     1       3.041   2.638  21.253  0.00  0.00    +0.000 C 
ATOM     18  O   UNL     1       2.870   2.059  19.952  0.00  0.00    +0.000 OA
ENDBRANCH  13  14
ENDBRANCH   3  13
TORSDOF 4
ENDMDL
MODEL 7
REMARK VINA RESULT:      -6.3      1.763      2.556
REMARK  Name = 
REMARK  6 active torsions:
REMARK  status: ('A' for Active; 'I' for Inactive)
REMARK    1  A    between atoms: C_1  and  C_2
REMARK    2  A    between atoms: C_2  and  C_3
REMARK    3  A    between atoms: C_5  and  C_6
REMARK    4  A    between atoms: N_8  and  C_9
REMARK    5  A    between atoms: C_9  and  C_10
REMARK    6  A    between atoms: C_16  and  C_17
REMARK                            x       y       z     vdW  Elec       q    Type
REMARK                         _______ _______ _______ _____ _____    ______ ____
ROOT
ATOM      1  C   UNL     1       4.666   3.189  18.585  0.00  0.00    +0.000 C 
ATOM      2  O   UNL     1       4.962   2.791  19.711  0.00  0.00    +0.000 OA
ATOM      3  N   UNL     1       3.550   2.720  17.927  0.00  0.00    +0.000 N 
ATOM      4  H   UNL     1       3.361   3.061  16.992  0.00  0.00    +0.000 HD
ENDROOT
BRANCH   1   7
ATOM      5  C   UNL     1       6.651   5.233  16.128  0.00  0.00    +0.000 A 
ATOM      6  C   UNL     1       5.844   4.119  16.537  0.00  0.00    +0.000 A 
ATOM      7  C   UNL     1       5.462   4.174  17.864  0.00  0.00    +0.000 A 
ATOM      8  S   UNL     1       6.052   5.597  18.606  0.00  0.00    +0.000 S 
ATOM      9  C   UNL     1       6.831   6.122  17.177  0.00  0.00    +0.000 A 
ATOM     10  C   UNL     1       7.595   7.406  17.181  0.00  0.00    +0.000 C 
BRANCH   5  12
ATOM     11  C   UNL     1       6.648   4.376  13.770  0.00  0.00    +0.000 C 
ATOM     12  C   UNL     1       7.222   5.392  14.747  0.00  0.00    +0.000 C 
ENDBRANCH   5  12
ENDBRANCH   1   7
BRANCH   3  13
ATOM     13  C   UNL     1       2.638   1.734  18.479  0.00  0.00    +0.000 C 
BRANCH  13  14
ATOM     14  C   UNL     1       1.573   2.369  19.379  0.00  0.00    +0.000 C 
ATOM     15  C   UNL     1       1.347   3.857  19.152  0.00  0.00    +0.000 C 
ATOM     16  C   UNL     1       0.890   4.320  20.513  0.00  0.00    +0.000 C 
ATOM     17  C   UNL     1       1.718   3.458  21.440  0.00  0.00    +0.000 C 
ATOM     18  O   UNL     1       1.940   2.210  20.767  0.00  0.00    +0.000 OA
ENDBRANCH  13  14
ENDBRANCH   3  13
TORSDOF 4
ENDMDL
MODEL 8
REMARK VINA RESULT:      -6.2      1.165      1.279
REMARK  Name = 
REMARK  6 active torsions:
REMARK  status: ('A' for Active; 'I' for Inactive)
REMARK    1  A    between atoms: C_1  and  C_2
REMARK    2  A    between atoms: C_2  and  C_3
REMARK    3  A    between atoms: C_5  and  C_6
REMARK    4  A    between atoms: N_8  and  C_9
REMARK    5  A    between atoms: C_9  and  C_10
REMARK    6  A    between atoms: C_16  and  C_17
REMARK                            x       y       z     vdW  Elec       q    Type
REMARK                         _______ _______ _______ _____ _____    ______ ____
ROOT
ATOM      1  C   UNL     1       5.167   4.614  17.236  0.00  0.00    +0.000 C 
ATOM      2  O   UNL     1       5.771   4.195  18.222  0.00  0.00    +0.000 OA
ATOM      3  N   UNL     1       3.912   5.170  17.343  0.00  0.00    +0.000 N 
ATOM      4  H   UNL     1       3.446   5.479  16.498  0.00  0.00    +0.000 HD
ENDROOT
BRANCH   1   7
ATOM      5  C   UNL     1       6.074   3.902  13.654  0.00  0.00    +0.000 A 
ATOM      6  C   UNL     1       5.302   3.745  14.853  0.00  0.00    +0.000 A 
ATOM      7  C   UNL     1       5.725   4.556  15.889  0.00  0.00    +0.000 A 
ATOM      8  S   UNL     1       7.035   5.536  15.396  0.00  0.00    +0.000 S 
ATOM      9  C   UNL     1       7.055   4.866  13.823  0.00  0.00    +0.000 A 
ATOM     10  C   UNL     1       8.067   5.341  12.831  0.00  0.00    +0.000 C 
BRANCH   5  12
ATOM     11  C   UNL     1       4.535   3.498  11.713  0.00  0.00    +0.000 C 
ATOM     12  C   UNL     1       5.839   3.112  12.396  0.00  0.00    +0.000 C 
ENDBRANCH   5  12
ENDBRANCH   1   7
BRANCH   3  13
ATOM     13  C   UNL     1       3.192   5.309  18.596  0.00  0.00    +0.000 C 
BRANCH  13  14
ATOM     14  C   UNL     1       1.931   4.441  18.640  0.00  0.00    +0.000 C 
ATOM     15  C   UNL     1       1.360   4.211  20.032  0.00  0.00    +0.000 C 
ATOM     16  C   UNL     1       0.689   2.869  19.882  0.00  0.00    +0.000 C 
ATOM     17  C   UNL     1       1.625   2.145  18.940  0.00  0.00    +0.000 C 
ATOM     18  O   UNL     1       2.207   3.137  18.083  0.00  0.00    +0.000 OA
ENDBRANCH  13  14
ENDBRANCH   3  13
TORSDOF 4
ENDMDL
MODEL 9
REMARK VINA RESULT:      -6.2      1.003      1.178
REMARK  Name = 
REMARK  6 active torsions:
REMARK  status: ('A' for Active; 'I' for Inactive)
REMARK    1  A    between atoms: C_1  and  C_2
REMARK    2  A    between atoms: C_2  and  C_3
REMARK    3  A    between atoms: C_5  and  C_6
REMARK    4  A    between atoms: N_8  and  C_9
REMARK    5  A    between atoms: C_9  and  C_10
REMARK    6  A    between atoms: C_16  and  C_17
REMARK                            x       y       z     vdW  Elec       q    Type
REMARK                         _______ _______ _______ _____ _____    ______ ____
ROOT
ATOM      1  C   UNL     1       5.490   4.551  17.680  0.00  0.00    +0.000 C 
ATOM      2  O   UNL     1       6.233   4.102  18.551  0.00  0.00    +0.000 OA
ATOM      3  N   UNL     1       4.246   5.058  17.987  0.00  0.00    +0.000 N 
ATOM      4  H   UNL     1       3.662   5.396  17.231  0.00  0.00    +0.000 HD
ENDROOT
BRANCH   1   7
ATOM      5  C   UNL     1       5.772   4.250  13.940  0.00  0.00    +0.000 A 
ATOM      6  C   UNL     1       5.122   4.092  15.209  0.00  0.00    +0.000 A 
ATOM      7  C   UNL     1       5.860   4.583  16.270  0.00  0.00    +0.000 A 
ATOM      8  S   UNL     1       7.325   5.271  15.722  0.00  0.00    +0.000 S 
ATOM      9  C   UNL     1       6.991   4.893  14.088  0.00  0.00    +0.000 A 
ATOM     10  C   UNL     1       7.979   5.259  13.028  0.00  0.00    +0.000 C 
BRANCH   5  12
ATOM     11  C   UNL     1       6.005   2.628  12.040  0.00  0.00    +0.000 C 
ATOM     12  C   UNL     1       5.195   3.769  12.638  0.00  0.00    +0.000 C 
ENDBRANCH   5  12
ENDBRANCH   1   7
BRANCH   3  13
ATOM     13  C   UNL     1       3.701   5.107  19.331  0.00  0.00    +0.000 C 
BRANCH  13  14
ATOM     14  C   UNL     1       2.776   3.921  19.625  0.00  0.00    +0.000 C 
ATOM     15  C   UNL     1       1.433   4.293  20.238  0.00  0.00    +0.000 C 
ATOM     16  C   UNL     1       1.099   3.062  21.041  0.00  0.00    +0.000 C 
ATOM     17  C   UNL     1       2.458   2.626  21.542  0.00  0.00    +0.000 C 
ATOM     18  O   UNL     1       3.416   3.010  20.546  0.00  0.00    +0.000 OA
ENDBRANCH  13  14
ENDBRANCH   3  13
TORSDOF 4
ENDMDL
