MODEL 1
REMARK VINA RESULT:      -7.5      0.000      0.000
REMARK  Name = 
REMARK  8 active torsions:
REMARK  status: ('A' for Active; 'I' for Inactive)
REMARK    1  A    between atoms: C_1  and  C_2
REMARK    2  A    between atoms: C_2  and  C_3
REMARK    3  A    between atoms: C_2  and  S_4
REMARK    4  A    between atoms: S_4  and  C_5
REMARK    5  A    between atoms: C_8  and  C_9
REMARK    6  A    between atoms: C_9  and  O_10
REMARK    7  A    between atoms: O_10  and  C_11
REMARK    8  A    between atoms: N_17  and  C_18
REMARK                            x       y       z     vdW  Elec       q    Type
REMARK                         _______ _______ _______ _____ _____    ______ ____
ROOT
ATOM      1  C   UNL     1       3.757   5.810  17.676  0.00  0.00    +0.000 A 
ATOM      2  N   UNL     1       4.014   7.030  17.262  0.00  0.00    +0.000 NA
ATOM      3  N   UNL     1       3.296   7.900  18.032  0.00  0.00    +0.000 NA
ATOM      4  C   UNL     1       2.600   7.205  18.910  0.00  0.00    +0.000 A 
ATOM      5  N   UNL     1       2.851   5.837  18.730  0.00  0.00    +0.000 N 
ENDROOT
BRANCH   5   6
ATOM      6  C   UNL     1       2.330   4.750  19.519  0.00  0.00    +0.000 A 
ATOM      7  C   UNL     1       1.329   3.901  19.018  0.00  0.00    +0.000 A 
ATOM      8  C   UNL     1       0.746   2.916  19.821  0.00  0.00    +0.000 A 
ATOM      9  C   UNL     1       1.202   2.717  21.116  0.00  0.00    +0.000 A 
ATOM     10  C   UNL     1       2.229   3.509  21.611  0.00  0.00    +0.000 A 
ATOM     11  C   UNL     1       2.777   4.532  20.829  0.00  0.00    +0.000 A 
ENDBRANCH   5   6
BRANCH   1  12
ATOM     12  S   UNL     1       4.336   4.381  16.869  0.00  0.00    +0.000 S 
BRANCH  12  14
ATOM     13  C   UNL     1       7.097   4.690  16.953  0.00  0.00    +0.000 C 
ATOM     14  C   UNL     1       5.876   4.973  16.081  0.00  0.00    +0.000 C 
ATOM     15  C   UNL     1       6.031   4.255  14.736  0.00  0.00    +0.000 C 
ENDBRANCH  12  14
ENDBRANCH   1  12
BRANCH   4  16
ATOM     16  C   UNL     1       1.743   7.746  20.002  0.00  0.00    +0.000 C 
BRANCH  16  17
ATOM     17  O   UNL     1       1.301   9.067  19.727  0.00  0.00    +0.000 OA
BRANCH  17  18
ATOM     18  C   UNL     1      -0.002   9.392  20.246  0.00  0.00    +0.000 C 
ATOM     19  C   UNL     1      -0.357   8.687  21.572  0.00  0.00    +0.000 C 
ATOM     20  C   UNL     1      -0.117   9.504  22.844  0.00  0.00    +0.000 C 
ATOM     21  C   UNL     1      -0.639  10.928  22.724  0.00  0.00    +0.000 C 
ATOM     22  C   UNL     1      -0.000  11.637  21.541  0.00  0.00    +0.000 C 
ATOM     23  C   UNL     1      -0.279  10.905  20.227  0.00  0.00    +0.000 C 
ENDBRANCH  17  18
ENDBRANCH  16  17
ENDBRANCH   4  16
TORSDOF 6
ENDMDL
MODEL 2
REMARK VINA RESULT:      -7.4      2.494      5.509
REMARK  Name = 
REMARK  8 active torsions:
REMARK  status: ('A' for Active; 'I' for Inactive)
REMARK    1  A    between atoms: C_1  and  C_2
REMARK    2  A    between atoms: C_2  and  C_3
REMARK    3  A    between atoms: C_2  and  S_4
REMARK    4  A    between atoms: S_4  and  C_5
REMARK    5  A    between atoms: C_8  and  C_9
REMARK    6  A    between atoms: C_9  and  O_10
REMARK    7  A    between atoms: O_10  and  C_11
REMARK    8  A    between atoms: N_17  and  C_18
REMARK                            x       y       z     vdW  Elec       q    Type
REMARK                         _______ _______ _______ _____ _____    ______ ____
ROOT
ATOM      1  C   UNL     1       4.701   5.935  17.121  0.00  0.00    +0.000 A 
ATOM      2  N   UNL     1       4.914   4.744  16.609  0.00  0.00    +0.000 NA
ATOM      3  N   UNL     1       3.797   3.987  16.820  0.00  0.00    +0.000 NA
ATOM      4  C   UNL     1       2.910   4.718  17.464  0.00  0.00    +0.000 A 
ATOM      5  N   UNL     1       3.438   5.998  17.695  0.00  0.00    +0.000 N 
ENDROOT
BRANCH   5   6
ATOM      6  C   UNL     1       2.768   7.110  18.320  0.00  0.00    +0.000 A 
ATOM      7  C   UNL     1       2.429   7.084  19.683  0.00  0.00    +0.000 A 
ATOM      8  C   UNL     1       1.683   8.114  20.264  0.00  0.00    +0.000 A 
ATOM      9  C   UNL     1       1.325   9.222  19.510  0.00  0.00    +0.000 A 
ATOM     10  C   UNL     1       1.700   9.293  18.175  0.00  0.00    +0.000 A 
ATOM     11  C   UNL     1       2.398   8.238  17.575  0.00  0.00    +0.000 A 
ENDBRANCH   5   6
BRANCH   1  12
ATOM     12  S   UNL     1       5.924   7.170  17.218  0.00  0.00    +0.000 S 
BRANCH  12  14
ATOM     13  C   UNL     1       8.318   7.302  18.623  0.00  0.00    +0.000 C 
ATOM     14  C   UNL     1       7.277   6.314  18.101  0.00  0.00    +0.000 C 
ATOM     15  C   UNL     1       6.668   5.544  19.278  0.00  0.00    +0.000 C 
ENDBRANCH  12  14
ENDBRANCH   1  12
BRANCH   4  16
ATOM     16  C   UNL     1       1.519   4.326  17.828  0.00  0.00    +0.000 C 
BRANCH  16  17
ATOM     17  O   UNL     1       1.312   2.927  17.702  0.00  0.00    +0.000 OA
BRANCH  17  18
ATOM     18  C   UNL     1       1.314   2.199  18.944  0.00  0.00    +0.000 C 
ATOM     19  C   UNL     1       2.692   1.638  19.355  0.00  0.00    +0.000 C 
ATOM     20  C   UNL     1       3.487   2.491  20.347  0.00  0.00    +0.000 C 
ATOM     21  C   UNL     1       2.630   2.979  21.506  0.00  0.00    +0.000 C 
ATOM     22  C   UNL     1       1.440   3.777  20.996  0.00  0.00    +0.000 C 
ATOM     23  C   UNL     1       0.563   2.944  20.061  0.00  0.00    +0.000 C 
ENDBRANCH  17  18
ENDBRANCH  16  17
ENDBRANCH   4  16
TORSDOF 6
ENDMDL
MODEL 3
REMARK VINA RESULT:      -7.3      2.534      5.457
REMARK  Name = 
REMARK  8 active torsions:
REMARK  status: ('A' for Active; 'I' for Inactive)
REMARK    1  A    between atoms: C_1  and  C_2
REMARK    2  A    between atoms: C_2  and  C_3
REMARK    3  A    between atoms: C_2  and  S_4
REMARK    4  A    between atoms: S_4  and  C_5
REMARK    5  A    between atoms: C_8  and  C_9
REMARK    6  A    between atoms: C_9  and  O_10
REMARK    7  A    between atoms: O_10  and  C_11
REMARK    8  A    between atoms: N_17  and  C_18
REMARK                            x       y       z     vdW  Elec       q    Type
REMARK                         _______ _______ _______ _____ _____    ______ ____
ROOT
ATOM      1  C   UNL     1       4.679   5.901  17.109  0.00  0.00    +0.000 A 
ATOM      2  N   UNL     1       4.940   4.728  16.577  0.00  0.00    +0.000 NA
ATOM      3  N   UNL     1       3.844   3.931  16.751  0.00  0.00    +0.000 NA
ATOM      4  C   UNL     1       2.922   4.620  17.392  0.00  0.00    +0.000 A 
ATOM      5  N   UNL     1       3.403   5.911  17.659  0.00  0.00    +0.000 N 
ENDROOT
BRANCH   5   6
ATOM      6  C   UNL     1       2.685   6.988  18.292  0.00  0.00    +0.000 A 
ATOM      7  C   UNL     1       2.282   8.120  17.567  0.00  0.00    +0.000 A 
ATOM      8  C   UNL     1       1.683   9.213  18.202  0.00  0.00    +0.000 A 
ATOM      9  C   UNL     1       1.414   9.163  19.562  0.00  0.00    +0.000 A 
ATOM     10  C   UNL     1       1.754   8.029  20.287  0.00  0.00    +0.000 A 
ATOM     11  C   UNL     1       2.404   6.956  19.665  0.00  0.00    +0.000 A 
ENDBRANCH   5   6
BRANCH   1  12
ATOM     12  S   UNL     1       5.859   7.172  17.255  0.00  0.00    +0.000 S 
BRANCH  12  14
ATOM     13  C   UNL     1       8.293   7.320  18.587  0.00  0.00    +0.000 C 
ATOM     14  C   UNL     1       7.246   6.325  18.091  0.00  0.00    +0.000 C 
ATOM     15  C   UNL     1       6.682   5.541  19.281  0.00  0.00    +0.000 C 
ENDBRANCH  12  14
ENDBRANCH   1  12
BRANCH   4  16
ATOM     16  C   UNL     1       1.538   4.176  17.719  0.00  0.00    +0.000 C 
BRANCH  16  17
ATOM     17  O   UNL     1       1.405   2.764  17.660  0.00  0.00    +0.000 OA
BRANCH  17  18
ATOM     18  C   UNL     1       1.415   2.099  18.938  0.00  0.00    +0.000 C 
ATOM     19  C   UNL     1       2.812   1.656  19.419  0.00  0.00    +0.000 C 
ATOM     20  C   UNL     1       3.515   2.609  20.389  0.00  0.00    +0.000 C 
ATOM     21  C   UNL     1       2.588   3.094  21.494  0.00  0.00    +0.000 C 
ATOM     22  C   UNL     1       1.365   3.782  20.909  0.00  0.00    +0.000 C 
ATOM     23  C   UNL     1       0.578   2.845  19.991  0.00  0.00    +0.000 C 
ENDBRANCH  17  18
ENDBRANCH  16  17
ENDBRANCH   4  16
TORSDOF 6
ENDMDL
MODEL 4
REMARK VINA RESULT:      -7.3      0.708      1.452
REMARK  Name = 
REMARK  8 active torsions:
REMARK  status: ('A' for Active; 'I' for Inactive)
REMARK    1  A    between atoms: C_1  and  C_2
REMARK    2  A    between atoms: C_2  and  C_3
REMARK    3  A    between atoms: C_2  and  S_4
REMARK    4  A    between atoms: S_4  and  C_5
REMARK    5  A    between atoms: C_8  and  C_9
REMARK    6  A    between atoms: C_9  and  O_10
REMARK    7  A    between atoms: O_10  and  C_11
REMARK    8  A    between atoms: N_17  and  C_18
REMARK                            x       y       z     vdW  Elec       q    Type
REMARK                         _______ _______ _______ _____ _____    ______ ____
ROOT
ATOM      1  C   UNL     1       3.626   6.056  17.878  0.00  0.00    +0.000 A 
ATOM      2  N   UNL     1       3.842   7.293  17.494  0.00  0.00    +0.000 NA
ATOM      3  N   UNL     1       3.078   8.118  18.269  0.00  0.00    +0.000 NA
ATOM      4  C   UNL     1       2.397   7.378  19.121  0.00  0.00    +0.000 A 
ATOM      5  N   UNL     1       2.704   6.024  18.917  0.00  0.00    +0.000 N 
ENDROOT
BRANCH   5   6
ATOM      6  C   UNL     1       2.214   4.902  19.676  0.00  0.00    +0.000 A 
ATOM      7  C   UNL     1       2.662   4.654  20.983  0.00  0.00    +0.000 A 
ATOM      8  C   UNL     1       2.271   3.506  21.678  0.00  0.00    +0.000 A 
ATOM      9  C   UNL     1       1.368   2.621  21.105  0.00  0.00    +0.000 A 
ATOM     10  C   UNL     1       0.870   2.878  19.835  0.00  0.00    +0.000 A 
ATOM     11  C   UNL     1       1.302   3.997  19.114  0.00  0.00    +0.000 A 
ENDBRANCH   5   6
BRANCH   1  12
ATOM     12  S   UNL     1       4.275   4.667  17.053  0.00  0.00    +0.000 S 
BRANCH  12  14
ATOM     13  C   UNL     1       6.916   5.507  16.850  0.00  0.00    +0.000 C 
ATOM     14  C   UNL     1       5.994   4.610  17.672  0.00  0.00    +0.000 C 
ATOM     15  C   UNL     1       5.993   5.079  19.131  0.00  0.00    +0.000 C 
ENDBRANCH  12  14
ENDBRANCH   1  12
BRANCH   4  16
ATOM     16  C   UNL     1       1.502   7.861  20.210  0.00  0.00    +0.000 C 
BRANCH  16  17
ATOM     17  O   UNL     1       1.106   9.211  20.014  0.00  0.00    +0.000 OA
BRANCH  17  18
ATOM     18  C   UNL     1      -0.210   9.535  20.502  0.00  0.00    +0.000 C 
ATOM     19  C   UNL     1      -0.577   8.868  21.844  0.00  0.00    +0.000 C 
ATOM     20  C   UNL     1      -0.368   9.729  23.093  0.00  0.00    +0.000 C 
ATOM     21  C   UNL     1      -0.906  11.141  22.918  0.00  0.00    +0.000 C 
ATOM     22  C   UNL     1      -0.257  11.821  21.723  0.00  0.00    +0.000 C 
ATOM     23  C   UNL     1      -0.505  11.043  20.429  0.00  0.00    +0.000 C 
ENDBRANCH  17  18
ENDBRANCH  16  17
ENDBRANCH   4  16
TORSDOF 6
ENDMDL
MODEL 5
REMARK VINA RESULT:      -7.3      0.542      1.194
REMARK  Name = 
REMARK  8 active torsions:
REMARK  status: ('A' for Active; 'I' for Inactive)
REMARK    1  A    between atoms: C_1  and  C_2
REMARK    2  A    between atoms: C_2  and  C_3
REMARK    3  A    between atoms: C_2  and  S_4
REMARK    4  A    between atoms: S_4  and  C_5
REMARK    5  A    between atoms: C_8  and  C_9
REMARK    6  A    between atoms: C_9  and  O_10
REMARK    7  A    between atoms: O_10  and  C_11
REMARK    8  A    between atoms: N_17  and  C_18
REMARK                            x       y       z     vdW  Elec       q    Type
REMARK                         _______ _______ _______ _____ _____    ______ ____
ROOT
ATOM      1  C   UNL     1       3.718   5.879  17.714  0.00  0.00    +0.000 A 
ATOM      2  N   UNL     1       3.940   7.109  17.311  0.00  0.00    +0.000 NA
ATOM      3  N   UNL     1       3.184   7.949  18.077  0.00  0.00    +0.000 NA
ATOM      4  C   UNL     1       2.501   7.227  18.942  0.00  0.00    +0.000 A 
ATOM      5  N   UNL     1       2.799   5.868  18.757  0.00  0.00    +0.000 N 
ENDROOT
BRANCH   5   6
ATOM      6  C   UNL     1       2.304   4.760  19.533  0.00  0.00    +0.000 A 
ATOM      7  C   UNL     1       1.354   3.870  19.007  0.00  0.00    +0.000 A 
ATOM      8  C   UNL     1       0.793   2.861  19.796  0.00  0.00    +0.000 A 
ATOM      9  C   UNL     1       1.224   2.679  21.102  0.00  0.00    +0.000 A 
ATOM     10  C   UNL     1       2.204   3.514  21.622  0.00  0.00    +0.000 A 
ATOM     11  C   UNL     1       2.728   4.560  20.854  0.00  0.00    +0.000 A 
ENDBRANCH   5   6
BRANCH   1  12
ATOM     12  S   UNL     1       4.354   4.474  16.906  0.00  0.00    +0.000 S 
BRANCH  12  14
ATOM     13  C   UNL     1       7.124   4.696  16.903  0.00  0.00    +0.000 C 
ATOM     14  C   UNL     1       5.877   5.124  16.132  0.00  0.00    +0.000 C 
ATOM     15  C   UNL     1       5.953   4.587  14.699  0.00  0.00    +0.000 C 
ENDBRANCH  12  14
ENDBRANCH   1  12
BRANCH   4  16
ATOM     16  C   UNL     1       1.613   7.731  20.028  0.00  0.00    +0.000 C 
BRANCH  16  17
ATOM     17  O   UNL     1       1.187   9.064  19.789  0.00  0.00    +0.000 OA
BRANCH  17  18
ATOM     18  C   UNL     1       1.287   9.947  20.923  0.00  0.00    +0.000 C 
ATOM     19  C   UNL     1       0.522  11.278  20.768  0.00  0.00    +0.000 C 
ATOM     20  C   UNL     1      -0.872  11.320  21.400  0.00  0.00    +0.000 C 
ATOM     21  C   UNL     1      -0.887  10.740  22.806  0.00  0.00    +0.000 C 
ATOM     22  C   UNL     1      -0.378   9.307  22.803  0.00  0.00    +0.000 C 
ATOM     23  C   UNL     1       1.047   9.216  22.255  0.00  0.00    +0.000 C 
ENDBRANCH  17  18
ENDBRANCH  16  17
ENDBRANCH   4  16
TORSDOF 6
ENDMDL
MODEL 6
REMARK VINA RESULT:      -7.2      0.539      1.546
REMARK  Name = 
REMARK  8 active torsions:
REMARK  status: ('A' for Active; 'I' for Inactive)
REMARK    1  A    between atoms: C_1  and  C_2
REMARK    2  A    between atoms: C_2  and  C_3
REMARK    3  A    between atoms: C_2  and  S_4
REMARK    4  A    between atoms: S_4  and  C_5
REMARK    5  A    between atoms: C_8  and  C_9
REMARK    6  A    between atoms: C_9  and  O_10
REMARK    7  A    between atoms: O_10  and  C_11
REMARK    8  A    between atoms: N_17  and  C_18
REMARK                            x       y       z     vdW  Elec       q    Type
REMARK                         _______ _______ _______ _____ _____    ______ ____
ROOT
ATOM      1  C   UNL     1       3.753   5.856  17.698  0.00  0.00    +0.000 A 
ATOM      2  N   UNL     1       4.007   7.072  17.272  0.00  0.00    +0.000 NA
ATOM      3  N   UNL     1       3.259   7.945  18.009  0.00  0.00    +0.000 NA
ATOM      4  C   UNL     1       2.548   7.256  18.879  0.00  0.00    +0.000 A 
ATOM      5  N   UNL     1       2.819   5.888  18.727  0.00  0.00    +0.000 N 
ENDROOT
BRANCH   5   6
ATOM      6  C   UNL     1       2.289   4.807  19.519  0.00  0.00    +0.000 A 
ATOM      7  C   UNL     1       2.764   4.555  20.817  0.00  0.00    +0.000 A 
ATOM      8  C   UNL     1       2.329   3.442  21.543  0.00  0.00    +0.000 A 
ATOM      9  C   UNL     1       1.360   2.602  21.013  0.00  0.00    +0.000 A 
ATOM     10  C   UNL     1       0.837   2.867  19.755  0.00  0.00    +0.000 A 
ATOM     11  C   UNL     1       1.311   3.948  19.002  0.00  0.00    +0.000 A 
ENDBRANCH   5   6
BRANCH   1  12
ATOM     12  S   UNL     1       4.369   4.421  16.930  0.00  0.00    +0.000 S 
BRANCH  12  14
ATOM     13  C   UNL     1       7.132   4.665  17.104  0.00  0.00    +0.000 C 
ATOM     14  C   UNL     1       5.943   5.008  16.208  0.00  0.00    +0.000 C 
ATOM     15  C   UNL     1       6.123   4.339  14.842  0.00  0.00    +0.000 C 
ENDBRANCH  12  14
ENDBRANCH   1  12
BRANCH   4  16
ATOM     16  C   UNL     1       1.657   7.803  19.940  0.00  0.00    +0.000 C 
BRANCH  16  17
ATOM     17  O   UNL     1       1.181   9.101  19.617  0.00  0.00    +0.000 OA
BRANCH  17  18
ATOM     18  C   UNL     1       1.271  10.064  20.684  0.00  0.00    +0.000 C 
ATOM     19  C   UNL     1       0.405  11.326  20.483  0.00  0.00    +0.000 C 
ATOM     20  C   UNL     1      -0.957  11.315  21.183  0.00  0.00    +0.000 C 
ATOM     21  C   UNL     1      -0.862  10.833  22.624  0.00  0.00    +0.000 C 
ATOM     22  C   UNL     1      -0.252   9.442  22.687  0.00  0.00    +0.000 C 
ATOM     23  C   UNL     1       1.148   9.413  22.072  0.00  0.00    +0.000 C 
ENDBRANCH  17  18
ENDBRANCH  16  17
ENDBRANCH   4  16
TORSDOF 6
ENDMDL
MODEL 7
REMARK VINA RESULT:      -7.2      0.911      1.638
REMARK  Name = 
REMARK  8 active torsions:
REMARK  status: ('A' for Active; 'I' for Inactive)
REMARK    1  A    between atoms: C_1  and  C_2
REMARK    2  A    between atoms: C_2  and  C_3
REMARK    3  A    between atoms: C_2  and  S_4
REMARK    4  A    between atoms: S_4  and  C_5
REMARK    5  A    between atoms: C_8  and  C_9
REMARK    6  A    between atoms: C_9  and  O_10
REMARK    7  A    between atoms: O_10  and  C_11
REMARK    8  A    between atoms: N_17  and  C_18
REMARK                            x       y       z     vdW  Elec       q    Type
REMARK                         _______ _______ _______ _____ _____    ______ ____
ROOT
ATOM      1  C   UNL     1       3.921   5.717  17.551  0.00  0.00    +0.000 A 
ATOM      2  N   UNL     1       4.250   6.892  17.064  0.00  0.00    +0.000 NA
ATOM      3  N   UNL     1       3.502   7.839  17.701  0.00  0.00    +0.000 NA
ATOM      4  C   UNL     1       2.716   7.237  18.572  0.00  0.00    +0.000 A 
ATOM      5  N   UNL     1       2.936   5.852  18.522  0.00  0.00    +0.000 N 
ENDROOT
BRANCH   5   6
ATOM      6  C   UNL     1       2.319   4.847  19.349  0.00  0.00    +0.000 A 
ATOM      7  C   UNL     1       2.663   4.708  20.703  0.00  0.00    +0.000 A 
ATOM      8  C   UNL     1       2.146   3.664  21.478  0.00  0.00    +0.000 A 
ATOM      9  C   UNL     1       1.223   2.785  20.931  0.00  0.00    +0.000 A 
ATOM     10  C   UNL     1       0.827   2.941  19.609  0.00  0.00    +0.000 A 
ATOM     11  C   UNL     1       1.384   3.950  18.815  0.00  0.00    +0.000 A 
ENDBRANCH   5   6
BRANCH   1  12
ATOM     12  S   UNL     1       4.517   4.212  16.910  0.00  0.00    +0.000 S 
BRANCH  12  14
ATOM     13  C   UNL     1       7.273   4.556  16.853  0.00  0.00    +0.000 C 
ATOM     14  C   UNL     1       6.016   4.737  16.005  0.00  0.00    +0.000 C 
ATOM     15  C   UNL     1       6.130   3.888  14.734  0.00  0.00    +0.000 C 
ENDBRANCH  12  14
ENDBRANCH   1  12
BRANCH   4  16
ATOM     16  C   UNL     1       1.793   7.887  19.545  0.00  0.00    +0.000 C 
BRANCH  16  17
ATOM     17  O   UNL     1       1.388   9.177  19.113  0.00  0.00    +0.000 OA
BRANCH  17  18
ATOM     18  C   UNL     1       0.275   9.738  19.834  0.00  0.00    +0.000 C 
ATOM     19  C   UNL     1       0.668  10.576  21.069  0.00  0.00    +0.000 C 
ATOM     20  C   UNL     1       0.737  12.089  20.849  0.00  0.00    +0.000 C 
ATOM     21  C   UNL     1      -0.466  12.617  20.082  0.00  0.00    +0.000 C 
ATOM     22  C   UNL     1      -0.595  11.919  18.737  0.00  0.00    +0.000 C 
ATOM     23  C   UNL     1      -0.750  10.406  18.901  0.00  0.00    +0.000 C 
ENDBRANCH  17  18
ENDBRANCH  16  17
ENDBRANCH   4  16
TORSDOF 6
ENDMDL
MODEL 8
REMARK VINA RESULT:      -7.2      2.176      6.326
REMARK  Name = 
REMARK  8 active torsions:
REMARK  status: ('A' for Active; 'I' for Inactive)
REMARK    1  A    between atoms: C_1  and  C_2
REMARK    2  A    between atoms: C_2  and  C_3
REMARK    3  A    between atoms: C_2  and  S_4
REMARK    4  A    between atoms: S_4  and  C_5
REMARK    5  A    between atoms: C_8  and  C_9
REMARK    6  A    between atoms: C_9  and  O_10
REMARK    7  A    between atoms: O_10  and  C_11
REMARK    8  A    between atoms: N_17  and  C_18
REMARK                            x       y       z     vdW  Elec       q    Type
REMARK                         _______ _______ _______ _____ _____    ______ ____
ROOT
ATOM      1  C   UNL     1       2.230   7.505  19.117  0.00  0.00    +0.000 A 
ATOM      2  N   UNL     1       2.818   8.274  18.230  0.00  0.00    +0.000 NA
ATOM      3  N   UNL     1       3.613   7.487  17.446  0.00  0.00    +0.000 NA
ATOM      4  C   UNL     1       3.509   6.241  17.863  0.00  0.00    +0.000 A 
ATOM      5  N   UNL     1       2.626   6.183  18.952  0.00  0.00    +0.000 N 
ENDROOT
BRANCH   5   6
ATOM      6  C   UNL     1       2.201   5.002  19.659  0.00  0.00    +0.000 A 
ATOM      7  C   UNL     1       1.296   4.096  19.084  0.00  0.00    +0.000 A 
ATOM      8  C   UNL     1       0.799   3.009  19.810  0.00  0.00    +0.000 A 
ATOM      9  C   UNL     1       1.252   2.770  21.100  0.00  0.00    +0.000 A 
ATOM     10  C   UNL     1       2.190   3.623  21.666  0.00  0.00    +0.000 A 
ATOM     11  C   UNL     1       2.648   4.744  20.962  0.00  0.00    +0.000 A 
ENDBRANCH   5   6
BRANCH   1  12
ATOM     12  S   UNL     1       1.251   8.117  20.420  0.00  0.00    +0.000 S 
BRANCH  12  14
ATOM     13  C   UNL     1      -0.322   9.967  19.070  0.00  0.00    +0.000 C 
ATOM     14  C   UNL     1       0.950   9.845  19.905  0.00  0.00    +0.000 C 
ATOM     15  C   UNL     1       0.818  10.704  21.167  0.00  0.00    +0.000 C 
ENDBRANCH  12  14
ENDBRANCH   1  12
BRANCH   4  16
ATOM     16  C   UNL     1       4.134   5.036  17.248  0.00  0.00    +0.000 C 
BRANCH  16  17
ATOM     17  O   UNL     1       5.048   5.380  16.217  0.00  0.00    +0.000 OA
BRANCH  17  18
ATOM     18  C   UNL     1       6.438   5.209  16.555  0.00  0.00    +0.000 C 
ATOM     19  C   UNL     1       7.305   6.470  16.357  0.00  0.00    +0.000 C 
ATOM     20  C   UNL     1       7.545   7.315  17.610  0.00  0.00    +0.000 C 
ATOM     21  C   UNL     1       7.926   6.468  18.815  0.00  0.00    +0.000 C 
ATOM     22  C   UNL     1       6.852   5.431  19.104  0.00  0.00    +0.000 C 
ATOM     23  C   UNL     1       6.628   4.503  17.909  0.00  0.00    +0.000 C 
ENDBRANCH  17  18
ENDBRANCH  16  17
ENDBRANCH   4  16
TORSDOF 6
ENDMDL
MODEL 9
REMARK VINA RESULT:      -7.1      0.886      1.299
REMARK  Name = 
REMARK  8 active torsions:
REMARK  status: ('A' for Active; 'I' for Inactive)
REMARK    1  A    between atoms: C_1  and  C_2
REMARK    2  A    between atoms: C_2  and  C_3
REMARK    3  A    between atoms: C_2  and  S_4
REMARK    4  A    between atoms: S_4  and  C_5
REMARK    5  A    between atoms: C_8  and  C_9
REMARK    6  A    between atoms: C_9  and  O_10
REMARK    7  A    between atoms: O_10  and  C_11
REMARK    8  A    between atoms: N_17  and  C_18
REMARK                            x       y       z     vdW  Elec       q    Type
REMARK                         _______ _______ _______ _____ _____    ______ ____
ROOT
ATOM      1  C   UNL     1       3.912   5.716  17.477  0.00  0.00    +0.000 A 
ATOM      2  N   UNL     1       4.196   6.905  16.994  0.00  0.00    +0.000 NA
ATOM      3  N   UNL     1       3.443   7.826  17.664  0.00  0.00    +0.000 NA
ATOM      4  C   UNL     1       2.699   7.194  18.550  0.00  0.00    +0.000 A 
ATOM      5  N   UNL     1       2.953   5.816  18.477  0.00  0.00    +0.000 N 
ENDROOT
BRANCH   5   6
ATOM      6  C   UNL     1       2.386   4.786  19.311  0.00  0.00    +0.000 A 
ATOM      7  C   UNL     1       1.407   3.908  18.819  0.00  0.00    +0.000 A 
ATOM      8  C   UNL     1       0.779   2.981  19.656  0.00  0.00    +0.000 A 
ATOM      9  C   UNL     1       1.168   2.869  20.983  0.00  0.00    +0.000 A 
ATOM     10  C   UNL     1       2.173   3.690  21.474  0.00  0.00    +0.000 A 
ATOM     11  C   UNL     1       2.766   4.657  20.654  0.00  0.00    +0.000 A 
ENDBRANCH   5   6
BRANCH   1  12
ATOM     12  S   UNL     1       4.526   4.234  16.801  0.00  0.00    +0.000 S 
BRANCH  12  14
ATOM     13  C   UNL     1       7.282   4.581  16.899  0.00  0.00    +0.000 C 
ATOM     14  C   UNL     1       6.070   4.783  15.991  0.00  0.00    +0.000 C 
ATOM     15  C   UNL     1       6.253   3.969  14.706  0.00  0.00    +0.000 C 
ENDBRANCH  12  14
ENDBRANCH   1  12
BRANCH   4  16
ATOM     16  C   UNL     1       1.789   7.809  19.557  0.00  0.00    +0.000 C 
BRANCH  16  17
ATOM     17  O   UNL     1       1.529   9.176  19.274  0.00  0.00    +0.000 OA
BRANCH  17  18
ATOM     18  C   UNL     1       0.348   9.712  19.901  0.00  0.00    +0.000 C 
ATOM     19  C   UNL     1       0.624  10.597  21.134  0.00  0.00    +0.000 C 
ATOM     20  C   UNL     1       0.653  12.106  20.876  0.00  0.00    +0.000 C 
ATOM     21  C   UNL     1      -0.512  12.567  20.013  0.00  0.00    +0.000 C 
ATOM     22  C   UNL     1      -0.522  11.829  18.684  0.00  0.00    +0.000 C 
ATOM     23  C   UNL     1      -0.633  10.316  18.881  0.00  0.00    +0.000 C 
ENDBRANCH  17  18
ENDBRANCH  16  17
ENDBRANCH   4  16
TORSDOF 6
ENDMDL
