MODEL 1
REMARK VINA RESULT:      -8.7      0.000      0.000
REMARK  Name = 
REMARK  6 active torsions:
REMARK  status: ('A' for Active; 'I' for Inactive)
REMARK    1  A    between atoms: C_1  and  C_2
REMARK    2  A    between atoms: C_2  and  O_3
REMARK    3  A    between atoms: O_3  and  C_4
REMARK    4  A    between atoms: C_9  and  C_10
REMARK    5  A    between atoms: N_11  and  N_12
REMARK    6  A    between atoms: C_13  and  C_14
REMARK                            x       y       z     vdW  Elec       q    Type
REMARK                         _______ _______ _______ _____ _____    ______ ____
ROOT
ATOM      1  N   UNL     1       4.364   3.444  17.677  0.00  0.00    +0.000 N 
ATOM      2  C   UNL     1       4.874   3.742  18.928  0.00  0.00    +0.000 A 
ATOM      3  C   UNL     1       4.804   5.223  19.255  0.00  0.00    +0.000 C 
ATOM      4  N   UNL     1       4.735   2.883  19.894  0.00  0.00    +0.000 NA
ATOM      5  C   UNL     1       3.365   2.637  20.112  0.00  0.00    +0.000 A 
ATOM      6  C   UNL     1       2.926   2.536  21.430  0.00  0.00    +0.000 A 
ATOM      7  C   UNL     1       1.613   2.882  21.736  0.00  0.00    +0.000 A 
ATOM      8  C   UNL     1       0.743   3.290  20.719  0.00  0.00    +0.000 A 
ATOM      9  C   UNL     1       1.141   3.240  19.378  0.00  0.00    +0.000 A 
ATOM     10  C   UNL     1       2.452   2.876  19.070  0.00  0.00    +0.000 A 
ATOM     11  C   UNL     1       3.014   3.061  17.689  0.00  0.00    +0.000 A 
ATOM     12  O   UNL     1       2.257   2.995  16.724  0.00  0.00    +0.000 OA
ENDROOT
BRANCH   1  14
ATOM     13  C   UNL     1       5.628   3.377  15.755  0.00  0.00    +0.000 C 
ATOM     14  N   UNL     1       4.965   4.100  16.603  0.00  0.00    +0.000 NA
BRANCH  13  20
ATOM     15  C   UNL     1       7.206   5.034  14.625  0.00  0.00    +0.000 A 
ATOM     16  C   UNL     1       7.797   5.498  13.437  0.00  0.00    +0.000 A 
ATOM     17  C   UNL     1       7.441   4.966  12.210  0.00  0.00    +0.000 A 
ATOM     18  C   UNL     1       6.509   3.922  12.141  0.00  0.00    +0.000 A 
ATOM     19  C   UNL     1       5.961   3.413  13.315  0.00  0.00    +0.000 A 
ATOM     20  C   UNL     1       6.298   3.964  14.567  0.00  0.00    +0.000 A 
BRANCH  15  21
ATOM     21  O   UNL     1       7.684   5.687  15.733  0.00  0.00    +0.000 OA
BRANCH  21  23
ATOM     22  C   UNL     1       7.463   7.279  17.528  0.00  0.00    +0.000 C 
ATOM     23  C   UNL     1       6.806   6.633  16.329  0.00  0.00    +0.000 C 
ENDBRANCH  21  23
ENDBRANCH  15  21
ENDBRANCH  13  20
ENDBRANCH   1  14
TORSDOF 4
ENDMDL
MODEL 2
REMARK VINA RESULT:      -8.4      1.389      2.715
REMARK  Name = 
REMARK  6 active torsions:
REMARK  status: ('A' for Active; 'I' for Inactive)
REMARK    1  A    between atoms: C_1  and  C_2
REMARK    2  A    between atoms: C_2  and  O_3
REMARK    3  A    between atoms: O_3  and  C_4
REMARK    4  A    between atoms: C_9  and  C_10
REMARK    5  A    between atoms: N_11  and  N_12
REMARK    6  A    between atoms: C_13  and  C_14
REMARK                            x       y       z     vdW  Elec       q    Type
REMARK                         _______ _______ _______ _____ _____    ______ ____
ROOT
ATOM      1  N   UNL     1       4.377   3.577  17.455  0.00  0.00    +0.000 N 
ATOM      2  C   UNL     1       4.957   3.797  18.692  0.00  0.00    +0.000 A 
ATOM      3  C   UNL     1       5.014   5.269  19.061  0.00  0.00    +0.000 C 
ATOM      4  N   UNL     1       4.791   2.923  19.638  0.00  0.00    +0.000 NA
ATOM      5  C   UNL     1       3.417   2.774  19.907  0.00  0.00    +0.000 A 
ATOM      6  C   UNL     1       3.024   2.667  21.240  0.00  0.00    +0.000 A 
ATOM      7  C   UNL     1       1.755   3.101  21.609  0.00  0.00    +0.000 A 
ATOM      8  C   UNL     1       0.879   3.605  20.641  0.00  0.00    +0.000 A 
ATOM      9  C   UNL     1       1.218   3.565  19.284  0.00  0.00    +0.000 A 
ATOM     10  C   UNL     1       2.484   3.113  18.911  0.00  0.00    +0.000 A 
ATOM     11  C   UNL     1       3.003   3.297  17.514  0.00  0.00    +0.000 A 
ATOM     12  O   UNL     1       2.205   3.317  16.580  0.00  0.00    +0.000 OA
ENDROOT
BRANCH   1  14
ATOM     13  C   UNL     1       5.701   3.493  15.575  0.00  0.00    +0.000 C 
ATOM     14  N   UNL     1       4.983   4.218  16.375  0.00  0.00    +0.000 NA
BRANCH  13  20
ATOM     15  C   UNL     1       6.155   3.637  13.068  0.00  0.00    +0.000 A 
ATOM     16  C   UNL     1       6.843   4.264  12.014  0.00  0.00    +0.000 A 
ATOM     17  C   UNL     1       7.791   5.242  12.264  0.00  0.00    +0.000 A 
ATOM     18  C   UNL     1       8.049   5.649  13.581  0.00  0.00    +0.000 A 
ATOM     19  C   UNL     1       7.332   5.078  14.628  0.00  0.00    +0.000 A 
ATOM     20  C   UNL     1       6.383   4.065  14.385  0.00  0.00    +0.000 A 
BRANCH  15  21
ATOM     21  O   UNL     1       5.264   2.696  12.619  0.00  0.00    +0.000 OA
BRANCH  21  23
ATOM     22  C   UNL     1       3.592   3.180  10.952  0.00  0.00    +0.000 C 
ATOM     23  C   UNL     1       5.000   2.701  11.222  0.00  0.00    +0.000 C 
ENDBRANCH  21  23
ENDBRANCH  15  21
ENDBRANCH  13  20
ENDBRANCH   1  14
TORSDOF 4
ENDMDL
MODEL 3
REMARK VINA RESULT:      -7.9      1.342      2.060
REMARK  Name = 
REMARK  6 active torsions:
REMARK  status: ('A' for Active; 'I' for Inactive)
REMARK    1  A    between atoms: C_1  and  C_2
REMARK    2  A    between atoms: C_2  and  O_3
REMARK    3  A    between atoms: O_3  and  C_4
REMARK    4  A    between atoms: C_9  and  C_10
REMARK    5  A    between atoms: N_11  and  N_12
REMARK    6  A    between atoms: C_13  and  C_14
REMARK                            x       y       z     vdW  Elec       q    Type
REMARK                         _______ _______ _______ _____ _____    ______ ____
ROOT
ATOM      1  N   UNL     1       4.023   3.953  17.663  0.00  0.00    +0.000 N 
ATOM      2  C   UNL     1       2.689   3.643  17.463  0.00  0.00    +0.000 A 
ATOM      3  C   UNL     1       2.473   2.190  17.081  0.00  0.00    +0.000 C 
ATOM      4  N   UNL     1       1.783   4.242  18.177  0.00  0.00    +0.000 NA
ATOM      5  C   UNL     1       2.012   3.985  19.543  0.00  0.00    +0.000 A 
ATOM      6  C   UNL     1       0.905   3.722  20.348  0.00  0.00    +0.000 A 
ATOM      7  C   UNL     1       1.062   2.918  21.473  0.00  0.00    +0.000 A 
ATOM      8  C   UNL     1       2.325   2.415  21.803  0.00  0.00    +0.000 A 
ATOM      9  C   UNL     1       3.458   2.807  21.082  0.00  0.00    +0.000 A 
ATOM     10  C   UNL     1       3.305   3.628  19.965  0.00  0.00    +0.000 A 
ATOM     11  C   UNL     1       4.434   3.861  19.002  0.00  0.00    +0.000 A 
ATOM     12  O   UNL     1       5.588   3.829  19.419  0.00  0.00    +0.000 OA
ENDROOT
BRANCH   1  14
ATOM     13  C   UNL     1       4.862   4.572  15.611  0.00  0.00    +0.000 C 
ATOM     14  N   UNL     1       4.872   3.713  16.583  0.00  0.00    +0.000 NA
BRANCH  13  20
ATOM     15  C   UNL     1       6.989   5.038  14.281  0.00  0.00    +0.000 A 
ATOM     16  C   UNL     1       7.738   4.814  13.112  0.00  0.00    +0.000 A 
ATOM     17  C   UNL     1       7.224   4.063  12.070  0.00  0.00    +0.000 A 
ATOM     18  C   UNL     1       5.955   3.478  12.184  0.00  0.00    +0.000 A 
ATOM     19  C   UNL     1       5.228   3.643  13.360  0.00  0.00    +0.000 A 
ATOM     20  C   UNL     1       5.733   4.426  14.417  0.00  0.00    +0.000 A 
BRANCH  15  21
ATOM     21  O   UNL     1       7.666   5.807  15.193  0.00  0.00    +0.000 OA
BRANCH  21  23
ATOM     22  C   UNL     1       7.345   6.719  17.400  0.00  0.00    +0.000 C 
ATOM     23  C   UNL     1       7.476   5.468  16.560  0.00  0.00    +0.000 C 
ENDBRANCH  21  23
ENDBRANCH  15  21
ENDBRANCH  13  20
ENDBRANCH   1  14
TORSDOF 4
ENDMDL
MODEL 4
REMARK VINA RESULT:      -7.1      1.858      3.391
REMARK  Name = 
REMARK  6 active torsions:
REMARK  status: ('A' for Active; 'I' for Inactive)
REMARK    1  A    between atoms: C_1  and  C_2
REMARK    2  A    between atoms: C_2  and  O_3
REMARK    3  A    between atoms: O_3  and  C_4
REMARK    4  A    between atoms: C_9  and  C_10
REMARK    5  A    between atoms: N_11  and  N_12
REMARK    6  A    between atoms: C_13  and  C_14
REMARK                            x       y       z     vdW  Elec       q    Type
REMARK                         _______ _______ _______ _____ _____    ______ ____
ROOT
ATOM      1  N   UNL     1       4.292   4.232  17.561  0.00  0.00    +0.000 N 
ATOM      2  C   UNL     1       2.973   3.927  17.273  0.00  0.00    +0.000 A 
ATOM      3  C   UNL     1       2.789   2.493  16.807  0.00  0.00    +0.000 C 
ATOM      4  N   UNL     1       2.025   4.485  17.964  0.00  0.00    +0.000 NA
ATOM      5  C   UNL     1       2.182   4.161  19.326  0.00  0.00    +0.000 A 
ATOM      6  C   UNL     1       1.035   3.853  20.056  0.00  0.00    +0.000 A 
ATOM      7  C   UNL     1       1.135   2.995  21.146  0.00  0.00    +0.000 A 
ATOM      8  C   UNL     1       2.381   2.481  21.519  0.00  0.00    +0.000 A 
ATOM      9  C   UNL     1       3.550   2.914  20.882  0.00  0.00    +0.000 A 
ATOM     10  C   UNL     1       3.452   3.789  19.800  0.00  0.00    +0.000 A 
ATOM     11  C   UNL     1       4.630   4.075  18.914  0.00  0.00    +0.000 A 
ATOM     12  O   UNL     1       5.760   4.026  19.391  0.00  0.00    +0.000 OA
ENDROOT
BRANCH   1  14
ATOM     13  C   UNL     1       5.024   4.750  15.441  0.00  0.00    +0.000 C 
ATOM     14  N   UNL     1       5.201   4.050  16.518  0.00  0.00    +0.000 NA
BRANCH  13  20
ATOM     15  C   UNL     1       5.626   3.955  13.092  0.00  0.00    +0.000 A 
ATOM     16  C   UNL     1       6.558   3.941  12.039  0.00  0.00    +0.000 A 
ATOM     17  C   UNL     1       7.800   4.536  12.180  0.00  0.00    +0.000 A 
ATOM     18  C   UNL     1       8.130   5.200  13.370  0.00  0.00    +0.000 A 
ATOM     19  C   UNL     1       7.193   5.272  14.397  0.00  0.00    +0.000 A 
ATOM     20  C   UNL     1       5.936   4.649  14.273  0.00  0.00    +0.000 A 
BRANCH  15  21
ATOM     21  O   UNL     1       4.460   3.312  12.762  0.00  0.00    +0.000 OA
BRANCH  21  23
ATOM     22  C   UNL     1       3.336   3.627  10.654  0.00  0.00    +0.000 C 
ATOM     23  C   UNL     1       4.366   2.834  11.427  0.00  0.00    +0.000 C 
ENDBRANCH  21  23
ENDBRANCH  15  21
ENDBRANCH  13  20
ENDBRANCH   1  14
TORSDOF 4
ENDMDL
MODEL 5
REMARK VINA RESULT:      -7.1      1.106      1.231
REMARK  Name = 
REMARK  6 active torsions:
REMARK  status: ('A' for Active; 'I' for Inactive)
REMARK    1  A    between atoms: C_1  and  C_2
REMARK    2  A    between atoms: C_2  and  O_3
REMARK    3  A    between atoms: O_3  and  C_4
REMARK    4  A    between atoms: C_9  and  C_10
REMARK    5  A    between atoms: N_11  and  N_12
REMARK    6  A    between atoms: C_13  and  C_14
REMARK                            x       y       z     vdW  Elec       q    Type
REMARK                         _______ _______ _______ _____ _____    ______ ____
ROOT
ATOM      1  N   UNL     1       4.850   3.717  18.022  0.00  0.00    +0.000 N 
ATOM      2  C   UNL     1       4.454   4.930  18.558  0.00  0.00    +0.000 A 
ATOM      3  C   UNL     1       3.733   5.811  17.553  0.00  0.00    +0.000 C 
ATOM      4  N   UNL     1       4.099   4.989  19.807  0.00  0.00    +0.000 NA
ATOM      5  C   UNL     1       3.009   4.124  20.028  0.00  0.00    +0.000 A 
ATOM      6  C   UNL     1       1.979   4.575  20.852  0.00  0.00    +0.000 A 
ATOM      7  C   UNL     1       0.691   4.091  20.652  0.00  0.00    +0.000 A 
ATOM      8  C   UNL     1       0.449   3.136  19.658  0.00  0.00    +0.000 A 
ATOM      9  C   UNL     1       1.508   2.571  18.940  0.00  0.00    +0.000 A 
ATOM     10  C   UNL     1       2.803   3.044  19.152  0.00  0.00    +0.000 A 
ATOM     11  C   UNL     1       3.933   2.676  18.233  0.00  0.00    +0.000 A 
ATOM     12  O   UNL     1       3.906   1.590  17.660  0.00  0.00    +0.000 OA
ENDROOT
BRANCH   1  14
ATOM     13  C   UNL     1       5.152   4.141  15.780  0.00  0.00    +0.000 C 
ATOM     14  N   UNL     1       5.686   3.788  16.908  0.00  0.00    +0.000 NA
BRANCH  13  20
ATOM     15  C   UNL     1       7.090   5.068  14.403  0.00  0.00    +0.000 A 
ATOM     16  C   UNL     1       7.778   5.092  13.177  0.00  0.00    +0.000 A 
ATOM     17  C   UNL     1       7.304   4.393  12.080  0.00  0.00    +0.000 A 
ATOM     18  C   UNL     1       6.143   3.615  12.192  0.00  0.00    +0.000 A 
ATOM     19  C   UNL     1       5.486   3.535  13.416  0.00  0.00    +0.000 A 
ATOM     20  C   UNL     1       5.947   4.262  14.532  0.00  0.00    +0.000 A 
BRANCH  15  21
ATOM     21  O   UNL     1       7.713   5.823  15.363  0.00  0.00    +0.000 OA
BRANCH  21  23
ATOM     22  C   UNL     1       7.441   6.954  17.474  0.00  0.00    +0.000 C 
ATOM     23  C   UNL     1       6.884   6.722  16.088  0.00  0.00    +0.000 C 
ENDBRANCH  21  23
ENDBRANCH  15  21
ENDBRANCH  13  20
ENDBRANCH   1  14
TORSDOF 4
ENDMDL
MODEL 6
REMARK VINA RESULT:      -7.1      5.854      7.597
REMARK  Name = 
REMARK  6 active torsions:
REMARK  status: ('A' for Active; 'I' for Inactive)
REMARK    1  A    between atoms: C_1  and  C_2
REMARK    2  A    between atoms: C_2  and  O_3
REMARK    3  A    between atoms: O_3  and  C_4
REMARK    4  A    between atoms: C_9  and  C_10
REMARK    5  A    between atoms: N_11  and  N_12
REMARK    6  A    between atoms: C_13  and  C_14
REMARK                            x       y       z     vdW  Elec       q    Type
REMARK                         _______ _______ _______ _____ _____    ______ ____
ROOT
ATOM      1  N   UNL     1       1.420   9.152  19.878  0.00  0.00    +0.000 N 
ATOM      2  C   UNL     1       0.941  10.290  19.253  0.00  0.00    +0.000 A 
ATOM      3  C   UNL     1      -0.376  10.057  18.534  0.00  0.00    +0.000 C 
ATOM      4  N   UNL     1       1.160  11.452  19.792  0.00  0.00    +0.000 NA
ATOM      5  C   UNL     1       0.600  11.487  21.083  0.00  0.00    +0.000 A 
ATOM      6  C   UNL     1      -0.057  12.652  21.475  0.00  0.00    +0.000 A 
ATOM      7  C   UNL     1      -1.086  12.569  22.407  0.00  0.00    +0.000 A 
ATOM      8  C   UNL     1      -1.425  11.332  22.966  0.00  0.00    +0.000 A 
ATOM      9  C   UNL     1      -0.662  10.192  22.689  0.00  0.00    +0.000 A 
ATOM     10  C   UNL     1       0.381  10.278  21.768  0.00  0.00    +0.000 A 
ATOM     11  C   UNL     1       1.056   9.049  21.229  0.00  0.00    +0.000 A 
ATOM     12  O   UNL     1       1.121   8.047  21.936  0.00  0.00    +0.000 OA
ENDROOT
BRANCH   1  14
ATOM     13  C   UNL     1       2.523   7.185  19.420  0.00  0.00    +0.000 C 
ATOM     14  N   UNL     1       1.626   8.046  19.053  0.00  0.00    +0.000 NA
BRANCH  13  20
ATOM     15  C   UNL     1       2.143   4.744  18.783  0.00  0.00    +0.000 A 
ATOM     16  C   UNL     1       2.493   3.656  17.964  0.00  0.00    +0.000 A 
ATOM     17  C   UNL     1       3.540   3.751  17.063  0.00  0.00    +0.000 A 
ATOM     18  C   UNL     1       4.243   4.956  16.928  0.00  0.00    +0.000 A 
ATOM     19  C   UNL     1       3.867   6.058  17.690  0.00  0.00    +0.000 A 
ATOM     20  C   UNL     1       2.819   5.964  18.628  0.00  0.00    +0.000 A 
BRANCH  15  21
ATOM     21  O   UNL     1       1.088   4.453  19.610  0.00  0.00    +0.000 OA
BRANCH  21  23
ATOM     22  C   UNL     1       2.085   3.520  21.595  0.00  0.00    +0.000 C 
ATOM     23  C   UNL     1       1.210   3.269  20.388  0.00  0.00    +0.000 C 
ENDBRANCH  21  23
ENDBRANCH  15  21
ENDBRANCH  13  20
ENDBRANCH   1  14
TORSDOF 4
ENDMDL
MODEL 7
REMARK VINA RESULT:      -7.1      1.803      3.030
REMARK  Name = 
REMARK  6 active torsions:
REMARK  status: ('A' for Active; 'I' for Inactive)
REMARK    1  A    between atoms: C_1  and  C_2
REMARK    2  A    between atoms: C_2  and  O_3
REMARK    3  A    between atoms: O_3  and  C_4
REMARK    4  A    between atoms: C_9  and  C_10
REMARK    5  A    between atoms: N_11  and  N_12
REMARK    6  A    between atoms: C_13  and  C_14
REMARK                            x       y       z     vdW  Elec       q    Type
REMARK                         _______ _______ _______ _____ _____    ______ ____
ROOT
ATOM      1  N   UNL     1       5.005   4.317  17.765  0.00  0.00    +0.000 N 
ATOM      2  C   UNL     1       4.532   5.415  18.460  0.00  0.00    +0.000 A 
ATOM      3  C   UNL     1       3.731   6.365  17.587  0.00  0.00    +0.000 C 
ATOM      4  N   UNL     1       4.195   5.282  19.708  0.00  0.00    +0.000 NA
ATOM      5  C   UNL     1       3.175   4.317  19.821  0.00  0.00    +0.000 A 
ATOM      6  C   UNL     1       2.130   4.578  20.705  0.00  0.00    +0.000 A 
ATOM      7  C   UNL     1       0.877   4.030  20.453  0.00  0.00    +0.000 A 
ATOM      8  C   UNL     1       0.687   3.200  19.343  0.00  0.00    +0.000 A 
ATOM      9  C   UNL     1       1.772   2.815  18.547  0.00  0.00    +0.000 A 
ATOM     10  C   UNL     1       3.033   3.350  18.811  0.00  0.00    +0.000 A 
ATOM     11  C   UNL     1       4.170   3.191  17.842  0.00  0.00    +0.000 A 
ATOM     12  O   UNL     1       4.211   2.192  17.130  0.00  0.00    +0.000 OA
ENDROOT
BRANCH   1  14
ATOM     13  C   UNL     1       5.431   4.145  15.509  0.00  0.00    +0.000 C 
ATOM     14  N   UNL     1       5.814   4.596  16.663  0.00  0.00    +0.000 NA
BRANCH  13  20
ATOM     15  C   UNL     1       5.901   3.816  13.023  0.00  0.00    +0.000 A 
ATOM     16  C   UNL     1       6.692   4.136  11.906  0.00  0.00    +0.000 A 
ATOM     17  C   UNL     1       7.806   4.949  12.031  0.00  0.00    +0.000 A 
ATOM     18  C   UNL     1       8.137   5.499  13.277  0.00  0.00    +0.000 A 
ATOM     19  C   UNL     1       7.327   5.238  14.379  0.00  0.00    +0.000 A 
ATOM     20  C   UNL     1       6.206   4.392  14.266  0.00  0.00    +0.000 A 
BRANCH  15  21
ATOM     21  O   UNL     1       4.849   2.997  12.697  0.00  0.00    +0.000 OA
BRANCH  21  23
ATOM     22  C   UNL     1       3.419   3.242  10.774  0.00  0.00    +0.000 C 
ATOM     23  C   UNL     1       4.711   2.676  11.320  0.00  0.00    +0.000 C 
ENDBRANCH  21  23
ENDBRANCH  15  21
ENDBRANCH  13  20
ENDBRANCH   1  14
TORSDOF 4
ENDMDL
MODEL 8
REMARK VINA RESULT:      -7.0      5.877      7.036
REMARK  Name = 
REMARK  6 active torsions:
REMARK  status: ('A' for Active; 'I' for Inactive)
REMARK    1  A    between atoms: C_1  and  C_2
REMARK    2  A    between atoms: C_2  and  O_3
REMARK    3  A    between atoms: O_3  and  C_4
REMARK    4  A    between atoms: C_9  and  C_10
REMARK    5  A    between atoms: N_11  and  N_12
REMARK    6  A    between atoms: C_13  and  C_14
REMARK                            x       y       z     vdW  Elec       q    Type
REMARK                         _______ _______ _______ _____ _____    ______ ____
ROOT
ATOM      1  N   UNL     1       1.418   9.168  19.793  0.00  0.00    +0.000 N 
ATOM      2  C   UNL     1       0.922  10.273  19.124  0.00  0.00    +0.000 A 
ATOM      3  C   UNL     1      -0.411  10.002  18.448  0.00  0.00    +0.000 C 
ATOM      4  N   UNL     1       1.151  11.461  19.598  0.00  0.00    +0.000 NA
ATOM      5  C   UNL     1       0.621  11.560  20.899  0.00  0.00    +0.000 A 
ATOM      6  C   UNL     1      -0.030  12.742  21.247  0.00  0.00    +0.000 A 
ATOM      7  C   UNL     1      -1.036  12.705  22.206  0.00  0.00    +0.000 A 
ATOM      8  C   UNL     1      -1.359  11.497  22.834  0.00  0.00    +0.000 A 
ATOM      9  C   UNL     1      -0.600  10.345  22.597  0.00  0.00    +0.000 A 
ATOM     10  C   UNL     1       0.421  10.386  21.648  0.00  0.00    +0.000 A 
ATOM     11  C   UNL     1       1.086   9.132  21.156  0.00  0.00    +0.000 A 
ATOM     12  O   UNL     1       1.170   8.168  21.911  0.00  0.00    +0.000 OA
ENDROOT
BRANCH   1  14
ATOM     13  C   UNL     1       2.781   7.471  19.045  0.00  0.00    +0.000 C 
ATOM     14  N   UNL     1       1.608   8.023  19.020  0.00  0.00    +0.000 NA
BRANCH  13  20
ATOM     15  C   UNL     1       4.218   6.099  17.444  0.00  0.00    +0.000 A 
ATOM     16  C   UNL     1       4.427   4.881  16.774  0.00  0.00    +0.000 A 
ATOM     17  C   UNL     1       3.505   3.852  16.862  0.00  0.00    +0.000 A 
ATOM     18  C   UNL     1       2.362   4.001  17.660  0.00  0.00    +0.000 A 
ATOM     19  C   UNL     1       2.174   5.180  18.376  0.00  0.00    +0.000 A 
ATOM     20  C   UNL     1       3.095   6.242  18.273  0.00  0.00    +0.000 A 
BRANCH  15  21
ATOM     21  O   UNL     1       5.238   6.991  17.229  0.00  0.00    +0.000 OA
BRANCH  21  23
ATOM     22  C   UNL     1       7.587   7.292  17.672  0.00  0.00    +0.000 C 
ATOM     23  C   UNL     1       6.528   6.430  17.025  0.00  0.00    +0.000 C 
ENDBRANCH  21  23
ENDBRANCH  15  21
ENDBRANCH  13  20
ENDBRANCH   1  14
TORSDOF 4
ENDMDL
MODEL 9
REMARK VINA RESULT:      -7.0      5.297      8.146
REMARK  Name = 
REMARK  6 active torsions:
REMARK  status: ('A' for Active; 'I' for Inactive)
REMARK    1  A    between atoms: C_1  and  C_2
REMARK    2  A    between atoms: C_2  and  O_3
REMARK    3  A    between atoms: O_3  and  C_4
REMARK    4  A    between atoms: C_9  and  C_10
REMARK    5  A    between atoms: N_11  and  N_12
REMARK    6  A    between atoms: C_13  and  C_14
REMARK                            x       y       z     vdW  Elec       q    Type
REMARK                         _______ _______ _______ _____ _____    ______ ____
ROOT
ATOM      1  N   UNL     1       2.137   6.274  20.347  0.00  0.00    +0.000 N 
ATOM      2  C   UNL     1       1.984   4.969  20.781  0.00  0.00    +0.000 A 
ATOM      3  C   UNL     1       0.665   4.356  20.346  0.00  0.00    +0.000 C 
ATOM      4  N   UNL     1       3.028   4.202  20.873  0.00  0.00    +0.000 NA
ATOM      5  C   UNL     1       3.646   4.093  19.611  0.00  0.00    +0.000 A 
ATOM      6  C   UNL     1       4.118   2.839  19.227  0.00  0.00    +0.000 A 
ATOM      7  C   UNL     1       4.178   2.523  17.873  0.00  0.00    +0.000 A 
ATOM      8  C   UNL     1       3.800   3.472  16.917  0.00  0.00    +0.000 A 
ATOM      9  C   UNL     1       3.475   4.779  17.299  0.00  0.00    +0.000 A 
ATOM     10  C   UNL     1       3.433   5.101  18.655  0.00  0.00    +0.000 A 
ATOM     11  C   UNL     1       2.836   6.393  19.136  0.00  0.00    +0.000 A 
ATOM     12  O   UNL     1       2.890   7.381  18.409  0.00  0.00    +0.000 OA
ENDROOT
BRANCH   1  14
ATOM     13  C   UNL     1       1.517   8.381  21.037  0.00  0.00    +0.000 C 
ATOM     14  N   UNL     1       1.148   7.171  20.752  0.00  0.00    +0.000 NA
BRANCH  13  20
ATOM     15  C   UNL     1       0.140  10.496  20.658  0.00  0.00    +0.000 A 
ATOM     16  C   UNL     1      -0.798  11.415  21.160  0.00  0.00    +0.000 A 
ATOM     17  C   UNL     1      -1.264  11.317  22.460  0.00  0.00    +0.000 A 
ATOM     18  C   UNL     1      -0.833  10.269  23.284  0.00  0.00    +0.000 A 
ATOM     19  C   UNL     1       0.050   9.318  22.779  0.00  0.00    +0.000 A 
ATOM     20  C   UNL     1       0.549   9.423  21.465  0.00  0.00    +0.000 A 
BRANCH  15  21
ATOM     21  O   UNL     1       0.482  10.761  19.356  0.00  0.00    +0.000 OA
BRANCH  21  23
ATOM     22  C   UNL     1      -1.228  10.107  17.789  0.00  0.00    +0.000 C 
ATOM     23  C   UNL     1      -0.562  11.249  18.523  0.00  0.00    +0.000 C 
ENDBRANCH  21  23
ENDBRANCH  15  21
ENDBRANCH  13  20
ENDBRANCH   1  14
TORSDOF 4
ENDMDL
