MODEL 1
REMARK VINA RESULT:      -7.2      0.000      0.000
REMARK  Name = 
REMARK  7 active torsions:
REMARK  status: ('A' for Active; 'I' for Inactive)
REMARK    1  A    between atoms: C_1  and  C_2
REMARK    2  A    between atoms: C_2  and  C_3
REMARK    3  A    between atoms: C_2  and  C_4
REMARK    4  A    between atoms: C_8  and  C_9
REMARK    5  A    between atoms: C_9  and  C_10
REMARK    6  A    between atoms: C_9  and  C_11
REMARK    7  A    between atoms: C_12  and  N_13
REMARK                            x       y       z     vdW  Elec       q    Type
REMARK                         _______ _______ _______ _____ _____    ______ ____
ROOT
ATOM      1  C   UNL     1       2.669   5.307  19.889  0.00  0.00    +0.000 A 
ATOM      2  C   UNL     1       1.771   5.001  20.942  0.00  0.00    +0.000 A 
ATOM      3  C   UNL     1       1.705   3.742  21.501  0.00  0.00    +0.000 A 
ATOM      4  C   UNL     1       2.592   2.777  21.067  0.00  0.00    +0.000 A 
ATOM      5  C   UNL     1       3.570   3.038  20.072  0.00  0.00    +0.000 A 
ATOM      6  C   UNL     1       3.573   4.309  19.428  0.00  0.00    +0.000 A 
ENDROOT
BRANCH   6   7
ATOM      7  N   UNL     1       4.368   4.552  18.269  0.00  0.00    +0.000 N 
ATOM      8  C   UNL     1       3.982   4.141  17.012  0.00  0.00    +0.000 C 
ATOM      9  O   UNL     1       2.953   3.622  16.619  0.00  0.00    +0.000 OA
ATOM     10  C   UNL     1       5.092   4.427  16.109  0.00  0.00    +0.000 A 
ATOM     11  C   UNL     1       5.247   4.113  14.767  0.00  0.00    +0.000 A 
ATOM     12  C   UNL     1       6.439   4.496  14.150  0.00  0.00    +0.000 A 
ATOM     13  C   UNL     1       7.427   5.192  14.873  0.00  0.00    +0.000 A 
ATOM     14  C   UNL     1       7.248   5.491  16.233  0.00  0.00    +0.000 A 
ATOM     15  C   UNL     1       6.075   5.073  16.837  0.00  0.00    +0.000 A 
ATOM     16  C   UNL     1       5.607   5.153  18.231  0.00  0.00    +0.000 C 
ATOM     17  O   UNL     1       6.262   5.687  19.108  0.00  0.00    +0.000 OA
ENDBRANCH   6   7
BRANCH   1  19
ATOM     18  C   UNL     1       2.175   6.917  17.978  0.00  0.00    +0.000 C 
ATOM     19  C   UNL     1       2.684   6.764  19.424  0.00  0.00    +0.000 C 
ATOM     20  C   UNL     1       1.893   7.625  20.423  0.00  0.00    +0.000 C 
ENDBRANCH   1  19
BRANCH   5  21
ATOM     21  C   UNL     1       4.554   1.906  19.806  0.00  0.00    +0.000 C 
ATOM     22  C   UNL     1       4.917   1.223  21.138  0.00  0.00    +0.000 C 
ATOM     23  C   UNL     1       4.008   0.876  18.808  0.00  0.00    +0.000 C 
ENDBRANCH   5  21
TORSDOF 3
ENDMDL
MODEL 2
REMARK VINA RESULT:      -6.6      0.315      1.854
REMARK  Name = 
REMARK  7 active torsions:
REMARK  status: ('A' for Active; 'I' for Inactive)
REMARK    1  A    between atoms: C_1  and  C_2
REMARK    2  A    between atoms: C_2  and  C_3
REMARK    3  A    between atoms: C_2  and  C_4
REMARK    4  A    between atoms: C_8  and  C_9
REMARK    5  A    between atoms: C_9  and  C_10
REMARK    6  A    between atoms: C_9  and  C_11
REMARK    7  A    between atoms: C_12  and  N_13
REMARK                            x       y       z     vdW  Elec       q    Type
REMARK                         _______ _______ _______ _____ _____    ______ ____
ROOT
ATOM      1  C   UNL     1       2.774   5.106  19.854  0.00  0.00    +0.000 A 
ATOM      2  C   UNL     1       1.892   4.909  20.946  0.00  0.00    +0.000 A 
ATOM      3  C   UNL     1       1.834   3.712  21.629  0.00  0.00    +0.000 A 
ATOM      4  C   UNL     1       2.715   2.707  21.281  0.00  0.00    +0.000 A 
ATOM      5  C   UNL     1       3.678   2.865  20.251  0.00  0.00    +0.000 A 
ATOM      6  C   UNL     1       3.672   4.065  19.482  0.00  0.00    +0.000 A 
ENDROOT
BRANCH   6   7
ATOM      7  N   UNL     1       4.449   4.189  18.293  0.00  0.00    +0.000 N 
ATOM      8  C   UNL     1       5.720   4.720  18.296  0.00  0.00    +0.000 C 
ATOM      9  O   UNL     1       6.438   5.076  19.213  0.00  0.00    +0.000 OA
ATOM     10  C   UNL     1       6.143   4.824  16.903  0.00  0.00    +0.000 A 
ATOM     11  C   UNL     1       7.291   5.386  16.365  0.00  0.00    +0.000 A 
ATOM     12  C   UNL     1       7.429   5.364  14.976  0.00  0.00    +0.000 A 
ATOM     13  C   UNL     1       6.437   4.772  14.169  0.00  0.00    +0.000 A 
ATOM     14  C   UNL     1       5.281   4.217  14.739  0.00  0.00    +0.000 A 
ATOM     15  C   UNL     1       5.146   4.278  16.115  0.00  0.00    +0.000 A 
ATOM     16  C   UNL     1       4.052   3.869  17.013  0.00  0.00    +0.000 C 
ATOM     17  O   UNL     1       3.036   3.339  16.601  0.00  0.00    +0.000 OA
ENDBRANCH   6   7
BRANCH   1  19
ATOM     18  C   UNL     1       2.178   6.530  17.827  0.00  0.00    +0.000 C 
ATOM     19  C   UNL     1       2.783   6.508  19.245  0.00  0.00    +0.000 C 
ATOM     20  C   UNL     1       2.077   7.483  20.202  0.00  0.00    +0.000 C 
ENDBRANCH   1  19
BRANCH   5  21
ATOM     21  C   UNL     1       4.657   1.710  20.085  0.00  0.00    +0.000 C 
ATOM     22  C   UNL     1       4.921   1.066  21.458  0.00  0.00    +0.000 C 
ATOM     23  C   UNL     1       4.161   0.657  19.086  0.00  0.00    +0.000 C 
ENDBRANCH   5  21
TORSDOF 3
ENDMDL
MODEL 3
REMARK VINA RESULT:      -6.3      2.374      5.752
REMARK  Name = 
REMARK  7 active torsions:
REMARK  status: ('A' for Active; 'I' for Inactive)
REMARK    1  A    between atoms: C_1  and  C_2
REMARK    2  A    between atoms: C_2  and  C_3
REMARK    3  A    between atoms: C_2  and  C_4
REMARK    4  A    between atoms: C_8  and  C_9
REMARK    5  A    between atoms: C_9  and  C_10
REMARK    6  A    between atoms: C_9  and  C_11
REMARK    7  A    between atoms: C_12  and  N_13
REMARK                            x       y       z     vdW  Elec       q    Type
REMARK                         _______ _______ _______ _____ _____    ______ ____
ROOT
ATOM      1  C   UNL     1       3.624   4.089  17.495  0.00  0.00    +0.000 A 
ATOM      2  C   UNL     1       4.379   3.148  16.749  0.00  0.00    +0.000 A 
ATOM      3  C   UNL     1       5.682   3.396  16.368  0.00  0.00    +0.000 A 
ATOM      4  C   UNL     1       6.285   4.564  16.793  0.00  0.00    +0.000 A 
ATOM      5  C   UNL     1       5.613   5.511  17.608  0.00  0.00    +0.000 A 
ATOM      6  C   UNL     1       4.239   5.301  17.919  0.00  0.00    +0.000 A 
ENDROOT
BRANCH   6   7
ATOM      7  N   UNL     1       3.451   6.320  18.529  0.00  0.00    +0.000 N 
ATOM      8  C   UNL     1       2.944   6.195  19.804  0.00  0.00    +0.000 C 
ATOM      9  O   UNL     1       3.106   5.335  20.650  0.00  0.00    +0.000 OA
ATOM     10  C   UNL     1       2.080   7.349  20.035  0.00  0.00    +0.000 A 
ATOM     11  C   UNL     1       1.259   7.638  21.115  0.00  0.00    +0.000 A 
ATOM     12  C   UNL     1       0.517   8.819  21.061  0.00  0.00    +0.000 A 
ATOM     13  C   UNL     1       0.625   9.681  19.951  0.00  0.00    +0.000 A 
ATOM     14  C   UNL     1       1.458   9.359  18.868  0.00  0.00    +0.000 A 
ATOM     15  C   UNL     1       2.160   8.168  18.925  0.00  0.00    +0.000 A 
ATOM     16  C   UNL     1       3.045   7.504  17.952  0.00  0.00    +0.000 C 
ATOM     17  O   UNL     1       3.317   8.000  16.874  0.00  0.00    +0.000 OA
ENDBRANCH   6   7
BRANCH   1  19
ATOM     18  C   UNL     1       1.123   4.334  17.079  0.00  0.00    +0.000 C 
ATOM     19  C   UNL     1       2.222   3.643  17.910  0.00  0.00    +0.000 C 
ATOM     20  C   UNL     1       2.135   2.109  17.845  0.00  0.00    +0.000 C 
ENDBRANCH   1  19
BRANCH   5  21
ATOM     21  C   UNL     1       6.465   6.677  18.095  0.00  0.00    +0.000 C 
ATOM     22  C   UNL     1       7.604   6.140  18.981  0.00  0.00    +0.000 C 
ATOM     23  C   UNL     1       7.033   7.513  16.941  0.00  0.00    +0.000 C 
ENDBRANCH   5  21
TORSDOF 3
ENDMDL
MODEL 4
REMARK VINA RESULT:      -6.1      0.359      3.486
REMARK  Name = 
REMARK  7 active torsions:
REMARK  status: ('A' for Active; 'I' for Inactive)
REMARK    1  A    between atoms: C_1  and  C_2
REMARK    2  A    between atoms: C_2  and  C_3
REMARK    3  A    between atoms: C_2  and  C_4
REMARK    4  A    between atoms: C_8  and  C_9
REMARK    5  A    between atoms: C_9  and  C_10
REMARK    6  A    between atoms: C_9  and  C_11
REMARK    7  A    between atoms: C_12  and  N_13
REMARK                            x       y       z     vdW  Elec       q    Type
REMARK                         _______ _______ _______ _____ _____    ______ ____
ROOT
ATOM      1  C   UNL     1       3.683   3.030  20.009  0.00  0.00    +0.000 A 
ATOM      2  C   UNL     1       2.959   2.827  21.211  0.00  0.00    +0.000 A 
ATOM      3  C   UNL     1       2.229   3.837  21.802  0.00  0.00    +0.000 A 
ATOM      4  C   UNL     1       2.146   5.057  21.160  0.00  0.00    +0.000 A 
ATOM      5  C   UNL     1       2.780   5.303  19.915  0.00  0.00    +0.000 A 
ATOM      6  C   UNL     1       3.612   4.292  19.354  0.00  0.00    +0.000 A 
ENDROOT
BRANCH   6   7
ATOM      7  N   UNL     1       4.455   4.559  18.236  0.00  0.00    +0.000 N 
ATOM      8  C   UNL     1       4.106   4.212  16.950  0.00  0.00    +0.000 C 
ATOM      9  O   UNL     1       3.078   3.741  16.498  0.00  0.00    +0.000 OA
ATOM     10  C   UNL     1       5.256   4.503  16.100  0.00  0.00    +0.000 A 
ATOM     11  C   UNL     1       5.452   4.240  14.753  0.00  0.00    +0.000 A 
ATOM     12  C   UNL     1       6.676   4.613  14.195  0.00  0.00    +0.000 A 
ATOM     13  C   UNL     1       7.655   5.250  14.983  0.00  0.00    +0.000 A 
ATOM     14  C   UNL     1       7.434   5.497  16.347  0.00  0.00    +0.000 A 
ATOM     15  C   UNL     1       6.229   5.089  16.889  0.00  0.00    +0.000 A 
ATOM     16  C   UNL     1       5.711   5.125  18.268  0.00  0.00    +0.000 C 
ATOM     17  O   UNL     1       6.347   5.603  19.191  0.00  0.00    +0.000 OA
ENDBRANCH   6   7
BRANCH   1  19
ATOM     18  C   UNL     1       5.026   0.929  20.528  0.00  0.00    +0.000 C 
ATOM     19  C   UNL     1       4.381   1.798  19.431  0.00  0.00    +0.000 C 
ATOM     20  C   UNL     1       3.386   1.010  18.562  0.00  0.00    +0.000 C 
ENDBRANCH   1  19
BRANCH   5  21
ATOM     21  C   UNL     1       2.477   6.656  19.281  0.00  0.00    +0.000 C 
ATOM     22  C   UNL     1       1.597   6.448  18.035  0.00  0.00    +0.000 C 
ATOM     23  C   UNL     1       1.800   7.624  20.259  0.00  0.00    +0.000 C 
ENDBRANCH   5  21
TORSDOF 3
ENDMDL
MODEL 5
REMARK VINA RESULT:      -6.0      9.226     12.278
REMARK  Name = 
REMARK  7 active torsions:
REMARK  status: ('A' for Active; 'I' for Inactive)
REMARK    1  A    between atoms: C_1  and  C_2
REMARK    2  A    between atoms: C_2  and  C_3
REMARK    3  A    between atoms: C_2  and  C_4
REMARK    4  A    between atoms: C_8  and  C_9
REMARK    5  A    between atoms: C_9  and  C_10
REMARK    6  A    between atoms: C_9  and  C_11
REMARK    7  A    between atoms: C_12  and  N_13
REMARK                            x       y       z     vdW  Elec       q    Type
REMARK                         _______ _______ _______ _____ _____    ______ ____
ROOT
ATOM      1  C   UNL     1       9.833  12.435  18.456  0.00  0.00    +0.000 A 
ATOM      2  C   UNL     1      10.925  12.010  17.659  0.00  0.00    +0.000 A 
ATOM      3  C   UNL     1      11.755  12.909  17.021  0.00  0.00    +0.000 A 
ATOM      4  C   UNL     1      11.554  14.259  17.230  0.00  0.00    +0.000 A 
ATOM      5  C   UNL     1      10.529  14.751  18.079  0.00  0.00    +0.000 A 
ATOM      6  C   UNL     1       9.613  13.827  18.659  0.00  0.00    +0.000 A 
ENDROOT
BRANCH   6   7
ATOM      7  N   UNL     1       8.432  14.269  19.324  0.00  0.00    +0.000 N 
ATOM      8  C   UNL     1       7.264  14.543  18.647  0.00  0.00    +0.000 C 
ATOM      9  O   UNL     1       6.964  14.398  17.476  0.00  0.00    +0.000 OA
ATOM     10  C   UNL     1       6.329  15.103  19.617  0.00  0.00    +0.000 A 
ATOM     11  C   UNL     1       5.062  15.634  19.422  0.00  0.00    +0.000 A 
ATOM     12  C   UNL     1       4.391  16.125  20.544  0.00  0.00    +0.000 A 
ATOM     13  C   UNL     1       4.986  16.057  21.819  0.00  0.00    +0.000 A 
ATOM     14  C   UNL     1       6.273  15.523  21.986  0.00  0.00    +0.000 A 
ATOM     15  C   UNL     1       6.936  15.072  20.859  0.00  0.00    +0.000 A 
ATOM     16  C   UNL     1       8.295  14.534  20.669  0.00  0.00    +0.000 C 
ATOM     17  O   UNL     1       9.068  14.376  21.597  0.00  0.00    +0.000 OA
ENDBRANCH   6   7
BRANCH   1  19
ATOM     18  C   UNL     1       8.920  10.062  18.293  0.00  0.00    +0.000 C 
ATOM     19  C   UNL     1       9.050  11.328  19.163  0.00  0.00    +0.000 C 
ATOM     20  C   UNL     1       9.694  11.041  20.530  0.00  0.00    +0.000 C 
ENDBRANCH   1  19
BRANCH   5  21
ATOM     21  C   UNL     1      10.530  16.258  18.303  0.00  0.00    +0.000 C 
ATOM     22  C   UNL     1      11.262  16.577  19.620  0.00  0.00    +0.000 C 
ATOM     23  C   UNL     1      11.168  17.025  17.138  0.00  0.00    +0.000 C 
ENDBRANCH   5  21
TORSDOF 3
ENDMDL
MODEL 6
REMARK VINA RESULT:      -5.9      9.214     12.404
REMARK  Name = 
REMARK  7 active torsions:
REMARK  status: ('A' for Active; 'I' for Inactive)
REMARK    1  A    between atoms: C_1  and  C_2
REMARK    2  A    between atoms: C_2  and  C_3
REMARK    3  A    between atoms: C_2  and  C_4
REMARK    4  A    between atoms: C_8  and  C_9
REMARK    5  A    between atoms: C_9  and  C_10
REMARK    6  A    between atoms: C_9  and  C_11
REMARK    7  A    between atoms: C_12  and  N_13
REMARK                            x       y       z     vdW  Elec       q    Type
REMARK                         _______ _______ _______ _____ _____    ______ ____
ROOT
ATOM      1  C   UNL     1       9.896  12.568  18.418  0.00  0.00    +0.000 A 
ATOM      2  C   UNL     1      11.001  12.164  17.628  0.00  0.00    +0.000 A 
ATOM      3  C   UNL     1      11.828  13.078  17.009  0.00  0.00    +0.000 A 
ATOM      4  C   UNL     1      11.610  14.424  17.230  0.00  0.00    +0.000 A 
ATOM      5  C   UNL     1      10.571  14.895  18.074  0.00  0.00    +0.000 A 
ATOM      6  C   UNL     1       9.659  13.955  18.634  0.00  0.00    +0.000 A 
ENDROOT
BRANCH   6   7
ATOM      7  N   UNL     1       8.467  14.378  19.291  0.00  0.00    +0.000 N 
ATOM      8  C   UNL     1       8.384  14.500  20.661  0.00  0.00    +0.000 C 
ATOM      9  O   UNL     1       9.231  14.386  21.528  0.00  0.00    +0.000 OA
ATOM     10  C   UNL     1       6.993  14.807  20.980  0.00  0.00    +0.000 A 
ATOM     11  C   UNL     1       6.373  14.923  22.214  0.00  0.00    +0.000 A 
ATOM     12  C   UNL     1       5.006  15.207  22.223  0.00  0.00    +0.000 A 
ATOM     13  C   UNL     1       4.305  15.385  21.014  0.00  0.00    +0.000 A 
ATOM     14  C   UNL     1       4.957  15.254  19.777  0.00  0.00    +0.000 A 
ATOM     15  C   UNL     1       6.304  14.938  19.789  0.00  0.00    +0.000 A 
ATOM     16  C   UNL     1       7.255  14.661  18.698  0.00  0.00    +0.000 C 
ATOM     17  O   UNL     1       6.935  14.715  17.525  0.00  0.00    +0.000 OA
ENDBRANCH   6   7
BRANCH   1  19
ATOM     18  C   UNL     1       8.926  10.224  18.183  0.00  0.00    +0.000 C 
ATOM     19  C   UNL     1       9.117  11.445  19.104  0.00  0.00    +0.000 C 
ATOM     20  C   UNL     1       9.807  11.082  20.429  0.00  0.00    +0.000 C 
ENDBRANCH   1  19
BRANCH   5  21
ATOM     21  C   UNL     1      10.554  16.400  18.315  0.00  0.00    +0.000 C 
ATOM     22  C   UNL     1      11.267  16.711  19.643  0.00  0.00    +0.000 C 
ATOM     23  C   UNL     1      11.197  17.186  17.165  0.00  0.00    +0.000 C 
ENDBRANCH   5  21
TORSDOF 3
ENDMDL
MODEL 7
REMARK VINA RESULT:      -5.8      2.080      5.675
REMARK  Name = 
REMARK  7 active torsions:
REMARK  status: ('A' for Active; 'I' for Inactive)
REMARK    1  A    between atoms: C_1  and  C_2
REMARK    2  A    between atoms: C_2  and  C_3
REMARK    3  A    between atoms: C_2  and  C_4
REMARK    4  A    between atoms: C_8  and  C_9
REMARK    5  A    between atoms: C_9  and  C_10
REMARK    6  A    between atoms: C_9  and  C_11
REMARK    7  A    between atoms: C_12  and  N_13
REMARK                            x       y       z     vdW  Elec       q    Type
REMARK                         _______ _______ _______ _____ _____    ______ ____
ROOT
ATOM      1  C   UNL     1       3.997   3.999  16.932  0.00  0.00    +0.000 A 
ATOM      2  C   UNL     1       4.879   3.280  16.086  0.00  0.00    +0.000 A 
ATOM      3  C   UNL     1       6.180   3.688  15.874  0.00  0.00    +0.000 A 
ATOM      4  C   UNL     1       6.651   4.786  16.566  0.00  0.00    +0.000 A 
ATOM      5  C   UNL     1       5.846   5.504  17.487  0.00  0.00    +0.000 A 
ATOM      6  C   UNL     1       4.475   5.142  17.632  0.00  0.00    +0.000 A 
ENDROOT
BRANCH   6   7
ATOM      7  N   UNL     1       3.563   5.963  18.358  0.00  0.00    +0.000 N 
ATOM      8  C   UNL     1       3.065   7.141  17.846  0.00  0.00    +0.000 C 
ATOM      9  O   UNL     1       3.191   7.655  16.749  0.00  0.00    +0.000 OA
ATOM     10  C   UNL     1       2.290   7.775  18.907  0.00  0.00    +0.000 A 
ATOM     11  C   UNL     1       1.675   9.018  18.934  0.00  0.00    +0.000 A 
ATOM     12  C   UNL     1       1.010   9.381  20.106  0.00  0.00    +0.000 A 
ATOM     13  C   UNL     1       0.958   8.497  21.202  0.00  0.00    +0.000 A 
ATOM     14  C   UNL     1       1.596   7.248  21.151  0.00  0.00    +0.000 A 
ATOM     15  C   UNL     1       2.280   6.920  19.994  0.00  0.00    +0.000 A 
ATOM     16  C   UNL     1       3.102   5.750  19.638  0.00  0.00    +0.000 C 
ATOM     17  O   UNL     1       3.267   4.815  20.400  0.00  0.00    +0.000 OA
ENDBRANCH   6   7
BRANCH   1  19
ATOM     18  C   UNL     1       2.580   2.393  18.310  0.00  0.00    +0.000 C 
ATOM     19  C   UNL     1       2.612   3.385  17.131  0.00  0.00    +0.000 C 
ATOM     20  C   UNL     1       1.572   4.509  17.277  0.00  0.00    +0.000 C 
ENDBRANCH   1  19
BRANCH   5  21
ATOM     21  C   UNL     1       6.559   6.606  18.262  0.00  0.00    +0.000 C 
ATOM     22  C   UNL     1       7.642   5.978  19.159  0.00  0.00    +0.000 C 
ATOM     23  C   UNL     1       7.176   7.667  17.342  0.00  0.00    +0.000 C 
ENDBRANCH   5  21
TORSDOF 3
ENDMDL
MODEL 8
REMARK VINA RESULT:      -5.8      0.960      4.022
REMARK  Name = 
REMARK  7 active torsions:
REMARK  status: ('A' for Active; 'I' for Inactive)
REMARK    1  A    between atoms: C_1  and  C_2
REMARK    2  A    between atoms: C_2  and  C_3
REMARK    3  A    between atoms: C_2  and  C_4
REMARK    4  A    between atoms: C_8  and  C_9
REMARK    5  A    between atoms: C_9  and  C_10
REMARK    6  A    between atoms: C_9  and  C_11
REMARK    7  A    between atoms: C_12  and  N_13
REMARK                            x       y       z     vdW  Elec       q    Type
REMARK                         _______ _______ _______ _____ _____    ______ ____
ROOT
ATOM      1  C   UNL     1       2.863   4.218  19.886  0.00  0.00    +0.000 A 
ATOM      2  C   UNL     1       2.087   4.589  21.012  0.00  0.00    +0.000 A 
ATOM      3  C   UNL     1       1.574   5.862  21.158  0.00  0.00    +0.000 A 
ATOM      4  C   UNL     1       1.765   6.773  20.138  0.00  0.00    +0.000 A 
ATOM      5  C   UNL     1       2.464   6.444  18.948  0.00  0.00    +0.000 A 
ATOM      6  C   UNL     1       3.076   5.162  18.841  0.00  0.00    +0.000 A 
ENDROOT
BRANCH   6   7
ATOM      7  N   UNL     1       3.981   4.856  17.783  0.00  0.00    +0.000 N 
ATOM      8  C   UNL     1       5.302   5.245  17.809  0.00  0.00    +0.000 C 
ATOM      9  O   UNL     1       5.961   5.791  18.676  0.00  0.00    +0.000 OA
ATOM     10  C   UNL     1       5.878   4.893  16.515  0.00  0.00    +0.000 A 
ATOM     11  C   UNL     1       7.137   5.163  16.002  0.00  0.00    +0.000 A 
ATOM     12  C   UNL     1       7.414   4.719  14.708  0.00  0.00    +0.000 A 
ATOM     13  C   UNL     1       6.445   4.007  13.974  0.00  0.00    +0.000 A 
ATOM     14  C   UNL     1       5.174   3.754  14.515  0.00  0.00    +0.000 A 
ATOM     15  C   UNL     1       4.907   4.232  15.785  0.00  0.00    +0.000 A 
ATOM     16  C   UNL     1       3.682   4.209  16.604  0.00  0.00    +0.000 C 
ATOM     17  O   UNL     1       2.655   3.677  16.224  0.00  0.00    +0.000 OA
ENDBRANCH   6   7
BRANCH   1  19
ATOM     18  C   UNL     1       3.652   2.194  21.216  0.00  0.00    +0.000 C 
ATOM     19  C   UNL     1       3.297   2.754  19.824  0.00  0.00    +0.000 C 
ATOM     20  C   UNL     1       2.208   1.929  19.117  0.00  0.00    +0.000 C 
ENDBRANCH   1  19
BRANCH   5  21
ATOM     21  C   UNL     1       2.469   7.522  17.871  0.00  0.00    +0.000 C 
ATOM     22  C   UNL     1       1.559   8.684  18.310  0.00  0.00    +0.000 C 
ATOM     23  C   UNL     1       3.880   8.036  17.560  0.00  0.00    +0.000 C 
ENDBRANCH   5  21
TORSDOF 3
ENDMDL
MODEL 9
REMARK VINA RESULT:      -5.7      8.901     10.885
REMARK  Name = 
REMARK  7 active torsions:
REMARK  status: ('A' for Active; 'I' for Inactive)
REMARK    1  A    between atoms: C_1  and  C_2
REMARK    2  A    between atoms: C_2  and  C_3
REMARK    3  A    between atoms: C_2  and  C_4
REMARK    4  A    between atoms: C_8  and  C_9
REMARK    5  A    between atoms: C_9  and  C_10
REMARK    6  A    between atoms: C_9  and  C_11
REMARK    7  A    between atoms: C_12  and  N_13
REMARK                            x       y       z     vdW  Elec       q    Type
REMARK                         _______ _______ _______ _____ _____    ______ ____
ROOT
ATOM      1  C   UNL     1      -0.507  14.368  20.453  0.00  0.00    +0.000 A 
ATOM      2  C   UNL     1      -0.048  15.249  21.465  0.00  0.00    +0.000 A 
ATOM      3  C   UNL     1      -0.366  15.060  22.794  0.00  0.00    +0.000 A 
ATOM      4  C   UNL     1      -1.089  13.939  23.149  0.00  0.00    +0.000 A 
ATOM      5  C   UNL     1      -1.512  12.976  22.197  0.00  0.00    +0.000 A 
ATOM      6  C   UNL     1      -1.268  13.221  20.814  0.00  0.00    +0.000 A 
ENDROOT
BRANCH   6   7
ATOM      7  N   UNL     1      -1.867  12.418  19.800  0.00  0.00    +0.000 N 
ATOM      8  C   UNL     1      -1.155  11.480  19.087  0.00  0.00    +0.000 C 
ATOM      9  O   UNL     1      -0.007  11.087  19.201  0.00  0.00    +0.000 OA
ATOM     10  C   UNL     1      -2.044  10.964  18.051  0.00  0.00    +0.000 A 
ATOM     11  C   UNL     1      -1.779  10.082  17.014  0.00  0.00    +0.000 A 
ATOM     12  C   UNL     1      -2.828   9.776  16.146  0.00  0.00    +0.000 A 
ATOM     13  C   UNL     1      -4.106  10.335  16.344  0.00  0.00    +0.000 A 
ATOM     14  C   UNL     1      -4.345  11.231  17.397  0.00  0.00    +0.000 A 
ATOM     15  C   UNL     1      -3.284  11.550  18.227  0.00  0.00    +0.000 A 
ATOM     16  C   UNL     1      -3.170  12.489  19.356  0.00  0.00    +0.000 C 
ATOM     17  O   UNL     1      -4.114  13.146  19.755  0.00  0.00    +0.000 OA
ENDBRANCH   6   7
BRANCH   1  19
ATOM     18  C   UNL     1      -0.294  16.114  18.609  0.00  0.00    +0.000 C 
ATOM     19  C   UNL     1      -0.010  14.661  19.036  0.00  0.00    +0.000 C 
ATOM     20  C   UNL     1       1.480  14.295  18.933  0.00  0.00    +0.000 C 
ENDBRANCH   1  19
BRANCH   5  21
ATOM     21  C   UNL     1      -2.184  11.735  22.772  0.00  0.00    +0.000 C 
ATOM     22  C   UNL     1      -1.104  10.735  23.224  0.00  0.00    +0.000 C 
ATOM     23  C   UNL     1      -3.128  12.064  23.935  0.00  0.00    +0.000 C 
ENDBRANCH   5  21
TORSDOF 3
ENDMDL
