MODEL 1
REMARK VINA RESULT:      -8.5      0.000      0.000
REMARK  Name = 
REMARK  12 active torsions:
REMARK  status: ('A' for Active; 'I' for Inactive)
REMARK    1  A    between atoms: C_1  and  O_2
REMARK    2  A    between atoms: O_2  and  C_3
REMARK    3  A    between atoms: C_3  and  C_5
REMARK    4  A    between atoms: C_5  and  C_6
REMARK    5  A    between atoms: C_5  and  N_7
REMARK    6  A    between atoms: N_7  and  P_8
REMARK    7  A    between atoms: P_8  and  O_10
REMARK    8  A    between atoms: P_8  and  O_27
REMARK    9  A    between atoms: O_10  and  C_11
REMARK   10  A    between atoms: C_11  and  C_12
REMARK   11  A    between atoms: C_15  and  N_16
REMARK   12  A    between atoms: O_27  and  C_28
REMARK                            x       y       z     vdW  Elec       q    Type
REMARK                         _______ _______ _______ _____ _____    ______ ____
ROOT
ATOM      1  O   UNL     1       3.210   8.078  17.524  0.00  0.00    +0.000 OA
ENDROOT
BRANCH   1   2
ATOM      2  P   UNL     1       3.678   6.437  17.617  0.00  0.00    +0.000 P 
ATOM      3  O   UNL     1       4.592   6.189  18.809  0.00  0.00    +0.000 OA
BRANCH   2   4
ATOM      4  N   UNL     1       5.201   6.849  16.792  0.00  0.00    +0.000 NA
ATOM      5  H   UNL     1       5.147   6.433  15.870  0.00  0.00    +0.000 HD
BRANCH   4   6
ATOM      6  C   UNL     1       6.455   6.482  17.490  0.00  0.00    +0.000 C 
ATOM      7  C   UNL     1       7.376   7.703  17.533  0.00  0.00    +0.000 C 
BRANCH   6   8
ATOM      8  C   UNL     1       7.209   5.312  16.831  0.00  0.00    +0.000 C 
ATOM      9  O   UNL     1       7.632   4.326  17.418  0.00  0.00    +0.000 OA
BRANCH   8  11
ATOM     10  C   UNL     1       6.852   4.569  14.606  0.00  0.00    +0.000 C 
ATOM     11  O   UNL     1       7.387   5.551  15.499  0.00  0.00    +0.000 OA
ENDBRANCH   8  11
ENDBRANCH   6   8
ENDBRANCH   4   6
ENDBRANCH   2   4
BRANCH   2  12
ATOM     12  O   UNL     1       2.198   6.037  18.419  0.00  0.00    +0.000 OA
BRANCH  12  13
ATOM     13  C   UNL     1       1.942   4.832  19.059  0.00  0.00    +0.000 A 
ATOM     14  C   UNL     1       1.946   4.868  20.454  0.00  0.00    +0.000 A 
ATOM     15  C   UNL     1       1.683   3.705  21.198  0.00  0.00    +0.000 A 
ATOM     16  C   UNL     1       1.420   2.491  20.559  0.00  0.00    +0.000 A 
ATOM     17  C   UNL     1       1.380   2.452  19.178  0.00  0.00    +0.000 A 
ATOM     18  C   UNL     1       1.607   3.620  18.444  0.00  0.00    +0.000 A 
ENDBRANCH  12  13
ENDBRANCH   2  12
ENDBRANCH   1   2
BRANCH   1  19
ATOM     19  C   UNL     1       1.860   8.447  17.929  0.00  0.00    +0.000 C 
BRANCH  19  20
ATOM     20  C   UNL     1       1.718   9.578  19.016  0.00  0.00    +0.000 C 
ATOM     21  C   UNL     1       1.871  10.982  18.500  0.00  0.00    +0.000 C 
ATOM     22  C   UNL     1       0.889  11.816  18.868  0.00  0.00    +0.000 C 
ATOM     23  C   UNL     1      -0.170  11.160  19.707  0.00  0.00    +0.000 C 
ATOM     24  C   UNL     1       0.285   9.664  19.670  0.00  0.00    +0.000 C 
BRANCH  23  25
ATOM     25  N   UNL     1      -1.516  11.463  19.231  0.00  0.00    +0.000 N 
ATOM     26  C   UNL     1      -2.484  12.171  19.903  0.00  0.00    +0.000 A 
ATOM     27  N   UNL     1      -3.625  12.227  19.255  0.00  0.00    +0.000 NA
ATOM     28  C   UNL     1      -3.410  11.491  18.104  0.00  0.00    +0.000 A 
ATOM     29  C   UNL     1      -4.264  11.158  17.027  0.00  0.00    +0.000 A 
ATOM     30  N   UNL     1      -5.584  11.571  16.923  0.00  0.00    +0.000 N 
ATOM     31  N   UNL     1      -3.778  10.351  16.053  0.00  0.00    +0.000 NA
ATOM     32  C   UNL     1      -2.498   9.939  16.150  0.00  0.00    +0.000 A 
ATOM     33  N   UNL     1      -1.588  10.210  17.114  0.00  0.00    +0.000 NA
ATOM     34  C   UNL     1      -2.118  10.993  18.073  0.00  0.00    +0.000 A 
ATOM     35  H   UNL     1      -5.999  11.850  17.805  0.00  0.00    +0.000 HD
ATOM     36  H   UNL     1      -6.128  10.971  16.319  0.00  0.00    +0.000 HD
ENDBRANCH  23  25
ENDBRANCH  19  20
ENDBRANCH   1  19
TORSDOF 10
ENDMDL
MODEL 2
REMARK VINA RESULT:      -8.2      2.115      4.517
REMARK  Name = 
REMARK  12 active torsions:
REMARK  status: ('A' for Active; 'I' for Inactive)
REMARK    1  A    between atoms: C_1  and  O_2
REMARK    2  A    between atoms: O_2  and  C_3
REMARK    3  A    between atoms: C_3  and  C_5
REMARK    4  A    between atoms: C_5  and  C_6
REMARK    5  A    between atoms: C_5  and  N_7
REMARK    6  A    between atoms: N_7  and  P_8
REMARK    7  A    between atoms: P_8  and  O_10
REMARK    8  A    between atoms: P_8  and  O_27
REMARK    9  A    between atoms: O_10  and  C_11
REMARK   10  A    between atoms: C_11  and  C_12
REMARK   11  A    between atoms: C_15  and  N_16
REMARK   12  A    between atoms: O_27  and  C_28
REMARK                            x       y       z     vdW  Elec       q    Type
REMARK                         _______ _______ _______ _____ _____    ______ ____
ROOT
ATOM      1  O   UNL     1       2.538   6.556  20.804  0.00  0.00    +0.000 OA
ENDROOT
BRANCH   1   2
ATOM      2  P   UNL     1       2.706   5.163  19.829  0.00  0.00    +0.000 P 
ATOM      3  O   UNL     1       1.974   5.322  18.504  0.00  0.00    +0.000 OA
BRANCH   2   4
ATOM      4  N   UNL     1       1.120   4.596  20.406  0.00  0.00    +0.000 NA
ATOM      5  H   UNL     1       0.938   5.091  21.270  0.00  0.00    +0.000 HD
BRANCH   4   6
ATOM      6  C   UNL     1       0.954   3.132  20.561  0.00  0.00    +0.000 C 
ATOM      7  C   UNL     1       1.929   2.632  21.630  0.00  0.00    +0.000 C 
BRANCH   6   8
ATOM      8  C   UNL     1       1.194   2.342  19.261  0.00  0.00    +0.000 C 
ATOM      9  O   UNL     1       0.360   2.159  18.385  0.00  0.00    +0.000 OA
BRANCH   8  11
ATOM     10  C   UNL     1       3.064   1.696  17.953  0.00  0.00    +0.000 C 
ATOM     11  O   UNL     1       2.457   1.829  19.242  0.00  0.00    +0.000 OA
ENDBRANCH   8  11
ENDBRANCH   6   8
ENDBRANCH   4   6
ENDBRANCH   2   4
BRANCH   2  12
ATOM     12  O   UNL     1       4.247   5.714  19.269  0.00  0.00    +0.000 OA
BRANCH  12  13
ATOM     13  C   UNL     1       4.672   5.678  17.947  0.00  0.00    +0.000 A 
ATOM     14  C   UNL     1       5.098   4.436  17.475  0.00  0.00    +0.000 A 
ATOM     15  C   UNL     1       5.535   4.289  16.147  0.00  0.00    +0.000 A 
ATOM     16  C   UNL     1       5.557   5.381  15.276  0.00  0.00    +0.000 A 
ATOM     17  C   UNL     1       5.105   6.608  15.724  0.00  0.00    +0.000 A 
ATOM     18  C   UNL     1       4.638   6.740  17.036  0.00  0.00    +0.000 A 
ENDBRANCH  12  13
ENDBRANCH   2  12
ENDBRANCH   1   2
BRANCH   1  19
ATOM     19  C   UNL     1       1.355   7.390  20.639  0.00  0.00    +0.000 C 
BRANCH  19  20
ATOM     20  C   UNL     1       1.563   8.819  20.010  0.00  0.00    +0.000 C 
ATOM     21  C   UNL     1       1.772   8.837  18.521  0.00  0.00    +0.000 C 
ATOM     22  C   UNL     1       0.986   9.699  17.862  0.00  0.00    +0.000 C 
ATOM     23  C   UNL     1       0.045  10.454  18.757  0.00  0.00    +0.000 C 
ATOM     24  C   UNL     1       0.307   9.766  20.137  0.00  0.00    +0.000 C 
BRANCH  23  25
ATOM     25  N   UNL     1      -1.324  10.442  18.252  0.00  0.00    +0.000 N 
ATOM     26  C   UNL     1      -1.783   9.777  17.140  0.00  0.00    +0.000 A 
ATOM     27  N   UNL     1      -3.052  10.006  16.891  0.00  0.00    +0.000 NA
ATOM     28  C   UNL     1      -3.448  10.894  17.874  0.00  0.00    +0.000 A 
ATOM     29  C   UNL     1      -4.685  11.534  18.120  0.00  0.00    +0.000 A 
ATOM     30  N   UNL     1      -5.826  11.345  17.355  0.00  0.00    +0.000 N 
ATOM     31  N   UNL     1      -4.751  12.420  19.143  0.00  0.00    +0.000 NA
ATOM     32  C   UNL     1      -3.645  12.615  19.888  0.00  0.00    +0.000 A 
ATOM     33  N   UNL     1      -2.423  12.047  19.761  0.00  0.00    +0.000 NA
ATOM     34  C   UNL     1      -2.394  11.193  18.719  0.00  0.00    +0.000 A 
ATOM     35  H   UNL     1      -5.644  10.979  16.428  0.00  0.00    +0.000 HD
ATOM     36  H   UNL     1      -6.474  12.116  17.435  0.00  0.00    +0.000 HD
ENDBRANCH  23  25
ENDBRANCH  19  20
ENDBRANCH   1  19
TORSDOF 10
ENDMDL
MODEL 3
REMARK VINA RESULT:      -8.2      1.924      3.245
REMARK  Name = 
REMARK  12 active torsions:
REMARK  status: ('A' for Active; 'I' for Inactive)
REMARK    1  A    between atoms: C_1  and  O_2
REMARK    2  A    between atoms: O_2  and  C_3
REMARK    3  A    between atoms: C_3  and  C_5
REMARK    4  A    between atoms: C_5  and  C_6
REMARK    5  A    between atoms: C_5  and  N_7
REMARK    6  A    between atoms: N_7  and  P_8
REMARK    7  A    between atoms: P_8  and  O_10
REMARK    8  A    between atoms: P_8  and  O_27
REMARK    9  A    between atoms: O_10  and  C_11
REMARK   10  A    between atoms: C_11  and  C_12
REMARK   11  A    between atoms: C_15  and  N_16
REMARK   12  A    between atoms: O_27  and  C_28
REMARK                            x       y       z     vdW  Elec       q    Type
REMARK                         _______ _______ _______ _____ _____    ______ ____
ROOT
ATOM      1  O   UNL     1       2.998   8.028  17.695  0.00  0.00    +0.000 OA
ENDROOT
BRANCH   1   2
ATOM      2  P   UNL     1       3.542   6.425  17.928  0.00  0.00    +0.000 P 
ATOM      3  O   UNL     1       4.414   6.312  19.171  0.00  0.00    +0.000 OA
BRANCH   2   4
ATOM      4  N   UNL     1       5.078   6.856  17.137  0.00  0.00    +0.000 NA
ATOM      5  H   UNL     1       4.886   7.671  16.568  0.00  0.00    +0.000 HD
BRANCH   4   6
ATOM      6  C   UNL     1       5.749   5.786  16.363  0.00  0.00    +0.000 C 
ATOM      7  C   UNL     1       4.884   4.524  16.405  0.00  0.00    +0.000 C 
BRANCH   6   8
ATOM      8  C   UNL     1       7.158   5.441  16.880  0.00  0.00    +0.000 C 
ATOM      9  O   UNL     1       7.822   4.477  16.525  0.00  0.00    +0.000 OA
BRANCH   8  11
ATOM     10  C   UNL     1       7.843   5.791  19.125  0.00  0.00    +0.000 C 
ATOM     11  O   UNL     1       7.547   6.335  17.834  0.00  0.00    +0.000 OA
ENDBRANCH   8  11
ENDBRANCH   6   8
ENDBRANCH   4   6
ENDBRANCH   2   4
BRANCH   2  12
ATOM     12  O   UNL     1       2.050   6.006  18.697  0.00  0.00    +0.000 OA
BRANCH  12  13
ATOM     13  C   UNL     1       1.709   4.732  19.129  0.00  0.00    +0.000 A 
ATOM     14  C   UNL     1       1.694   3.737  18.150  0.00  0.00    +0.000 A 
ATOM     15  C   UNL     1       1.375   2.410  18.486  0.00  0.00    +0.000 A 
ATOM     16  C   UNL     1       1.061   2.061  19.801  0.00  0.00    +0.000 A 
ATOM     17  C   UNL     1       1.106   3.031  20.784  0.00  0.00    +0.000 A 
ATOM     18  C   UNL     1       1.458   4.343  20.451  0.00  0.00    +0.000 A 
ENDBRANCH  12  13
ENDBRANCH   2  12
ENDBRANCH   1   2
BRANCH   1  19
ATOM     19  C   UNL     1       2.052   8.594  18.648  0.00  0.00    +0.000 C 
BRANCH  19  20
ATOM     20  C   UNL     1       1.302   9.912  18.222  0.00  0.00    +0.000 C 
ATOM     21  C   UNL     1      -0.151   9.738  17.878  0.00  0.00    +0.000 C 
ATOM     22  C   UNL     1      -0.973  10.595  18.498  0.00  0.00    +0.000 C 
ATOM     23  C   UNL     1      -0.263  11.540  19.424  0.00  0.00    +0.000 C 
ATOM     24  C   UNL     1       1.201  10.991  19.369  0.00  0.00    +0.000 C 
BRANCH  23  25
ATOM     25  N   UNL     1      -0.902  11.612  20.734  0.00  0.00    +0.000 N 
ATOM     26  C   UNL     1      -0.480  10.995  21.888  0.00  0.00    +0.000 A 
ATOM     27  N   UNL     1      -1.294  11.186  22.901  0.00  0.00    +0.000 NA
ATOM     28  C   UNL     1      -2.327  11.946  22.383  0.00  0.00    +0.000 A 
ATOM     29  C   UNL     1      -3.514  12.442  22.968  0.00  0.00    +0.000 A 
ATOM     30  N   UNL     1      -3.868  12.251  24.296  0.00  0.00    +0.000 N 
ATOM     31  N   UNL     1      -4.383  13.115  22.175  0.00  0.00    +0.000 NA
ATOM     32  C   UNL     1      -4.050  13.300  20.882  0.00  0.00    +0.000 A 
ATOM     33  N   UNL     1      -2.941  12.893  20.222  0.00  0.00    +0.000 NA
ATOM     34  C   UNL     1      -2.117  12.209  21.040  0.00  0.00    +0.000 A 
ATOM     35  H   UNL     1      -3.397  11.470  24.739  0.00  0.00    +0.000 HD
ATOM     36  H   UNL     1      -4.863  12.343  24.445  0.00  0.00    +0.000 HD
ENDBRANCH  23  25
ENDBRANCH  19  20
ENDBRANCH   1  19
TORSDOF 10
ENDMDL
MODEL 4
REMARK VINA RESULT:      -8.2      2.875      3.975
REMARK  Name = 
REMARK  12 active torsions:
REMARK  status: ('A' for Active; 'I' for Inactive)
REMARK    1  A    between atoms: C_1  and  O_2
REMARK    2  A    between atoms: O_2  and  C_3
REMARK    3  A    between atoms: C_3  and  C_5
REMARK    4  A    between atoms: C_5  and  C_6
REMARK    5  A    between atoms: C_5  and  N_7
REMARK    6  A    between atoms: N_7  and  P_8
REMARK    7  A    between atoms: P_8  and  O_10
REMARK    8  A    between atoms: P_8  and  O_27
REMARK    9  A    between atoms: O_10  and  C_11
REMARK   10  A    between atoms: C_11  and  C_12
REMARK   11  A    between atoms: C_15  and  N_16
REMARK   12  A    between atoms: O_27  and  C_28
REMARK                            x       y       z     vdW  Elec       q    Type
REMARK                         _______ _______ _______ _____ _____    ______ ____
ROOT
ATOM      1  O   UNL     1       4.718   6.947  18.316  0.00  0.00    +0.000 OA
ENDROOT
BRANCH   1   2
ATOM      2  P   UNL     1       5.249   5.342  18.067  0.00  0.00    +0.000 P 
ATOM      3  O   UNL     1       6.685   5.155  18.535  0.00  0.00    +0.000 OA
BRANCH   2   4
ATOM      4  N   UNL     1       6.024   5.858  16.550  0.00  0.00    +0.000 NA
ATOM      5  H   UNL     1       5.886   6.859  16.485  0.00  0.00    +0.000 HD
BRANCH   4   6
ATOM      6  C   UNL     1       5.597   5.161  15.315  0.00  0.00    +0.000 C 
ATOM      7  C   UNL     1       4.873   3.868  15.699  0.00  0.00    +0.000 C 
BRANCH   6   8
ATOM      8  C   UNL     1       6.760   4.817  14.366  0.00  0.00    +0.000 C 
ATOM      9  O   UNL     1       7.816   5.431  14.294  0.00  0.00    +0.000 OA
BRANCH   8  11
ATOM     10  C   UNL     1       6.860   3.829  12.212  0.00  0.00    +0.000 C 
ATOM     11  O   UNL     1       6.431   3.755  13.575  0.00  0.00    +0.000 OA
ENDBRANCH   8  11
ENDBRANCH   6   8
ENDBRANCH   4   6
ENDBRANCH   2   4
BRANCH   2  12
ATOM     12  O   UNL     1       4.495   4.840  19.541  0.00  0.00    +0.000 OA
BRANCH  12  13
ATOM     13  C   UNL     1       3.234   4.266  19.634  0.00  0.00    +0.000 A 
ATOM     14  C   UNL     1       2.629   3.920  18.425  0.00  0.00    +0.000 A 
ATOM     15  C   UNL     1       1.358   3.320  18.410  0.00  0.00    +0.000 A 
ATOM     16  C   UNL     1       0.673   3.064  19.599  0.00  0.00    +0.000 A 
ATOM     17  C   UNL     1       1.278   3.372  20.804  0.00  0.00    +0.000 A 
ATOM     18  C   UNL     1       2.558   3.936  20.814  0.00  0.00    +0.000 A 
ENDBRANCH  12  13
ENDBRANCH   2  12
ENDBRANCH   1   2
BRANCH   1  19
ATOM     19  C   UNL     1       3.663   7.478  17.462  0.00  0.00    +0.000 C 
BRANCH  19  20
ATOM     20  C   UNL     1       2.221   7.592  18.084  0.00  0.00    +0.000 C 
ATOM     21  C   UNL     1       2.172   7.597  19.586  0.00  0.00    +0.000 C 
ATOM     22  C   UNL     1       1.451   8.595  20.113  0.00  0.00    +0.000 C 
ATOM     23  C   UNL     1       0.856   9.511  19.083  0.00  0.00    +0.000 C 
ATOM     24  C   UNL     1       1.490   8.953  17.766  0.00  0.00    +0.000 C 
BRANCH  23  25
ATOM     25  N   UNL     1       1.090  10.918  19.395  0.00  0.00    +0.000 N 
ATOM     26  C   UNL     1       1.977  11.761  18.768  0.00  0.00    +0.000 A 
ATOM     27  N   UNL     1       2.020  12.957  19.309  0.00  0.00    +0.000 NA
ATOM     28  C   UNL     1       1.136  12.894  20.371  0.00  0.00    +0.000 A 
ATOM     29  C   UNL     1       0.772  13.848  21.349  0.00  0.00    +0.000 A 
ATOM     30  N   UNL     1       1.272  15.140  21.401  0.00  0.00    +0.000 N 
ATOM     31  N   UNL     1      -0.091  13.466  22.321  0.00  0.00    +0.000 NA
ATOM     32  C   UNL     1      -0.577  12.209  22.282  0.00  0.00    +0.000 A 
ATOM     33  N   UNL     1      -0.319  11.225  21.390  0.00  0.00    +0.000 NA
ATOM     34  C   UNL     1       0.560  11.638  20.456  0.00  0.00    +0.000 A 
ATOM     35  H   UNL     1       2.146  15.264  20.903  0.00  0.00    +0.000 HD
ATOM     36  H   UNL     1       1.198  15.544  22.324  0.00  0.00    +0.000 HD
ENDBRANCH  23  25
ENDBRANCH  19  20
ENDBRANCH   1  19
TORSDOF 10
ENDMDL
MODEL 5
REMARK VINA RESULT:      -8.2      1.960      2.996
REMARK  Name = 
REMARK  12 active torsions:
REMARK  status: ('A' for Active; 'I' for Inactive)
REMARK    1  A    between atoms: C_1  and  O_2
REMARK    2  A    between atoms: O_2  and  C_3
REMARK    3  A    between atoms: C_3  and  C_5
REMARK    4  A    between atoms: C_5  and  C_6
REMARK    5  A    between atoms: C_5  and  N_7
REMARK    6  A    between atoms: N_7  and  P_8
REMARK    7  A    between atoms: P_8  and  O_10
REMARK    8  A    between atoms: P_8  and  O_27
REMARK    9  A    between atoms: O_10  and  C_11
REMARK   10  A    between atoms: C_11  and  C_12
REMARK   11  A    between atoms: C_15  and  N_16
REMARK   12  A    between atoms: O_27  and  C_28
REMARK                            x       y       z     vdW  Elec       q    Type
REMARK                         _______ _______ _______ _____ _____    ______ ____
ROOT
ATOM      1  O   UNL     1       3.232   7.949  17.888  0.00  0.00    +0.000 OA
ENDROOT
BRANCH   1   2
ATOM      2  P   UNL     1       3.596   6.280  17.901  0.00  0.00    +0.000 P 
ATOM      3  O   UNL     1       4.672   5.956  18.928  0.00  0.00    +0.000 OA
BRANCH   2   4
ATOM      4  N   UNL     1       4.990   6.600  16.840  0.00  0.00    +0.000 NA
ATOM      5  H   UNL     1       4.769   7.443  16.326  0.00  0.00    +0.000 HD
BRANCH   4   6
ATOM      6  C   UNL     1       5.407   5.498  15.942  0.00  0.00    +0.000 C 
ATOM      7  C   UNL     1       4.611   4.240  16.295  0.00  0.00    +0.000 C 
BRANCH   6   8
ATOM      8  C   UNL     1       6.910   5.175  16.018  0.00  0.00    +0.000 C 
ATOM      9  O   UNL     1       7.484   4.720  16.999  0.00  0.00    +0.000 OA
BRANCH   8  11
ATOM     10  C   UNL     1       7.112   4.796  13.685  0.00  0.00    +0.000 C 
ATOM     11  O   UNL     1       7.530   5.513  14.851  0.00  0.00    +0.000 OA
ENDBRANCH   8  11
ENDBRANCH   6   8
ENDBRANCH   4   6
ENDBRANCH   2   4
BRANCH   2  12
ATOM     12  O   UNL     1       2.242   5.969  18.932  0.00  0.00    +0.000 OA
BRANCH  12  13
ATOM     13  C   UNL     1       1.989   4.762  19.569  0.00  0.00    +0.000 A 
ATOM     14  C   UNL     1       2.292   4.714  20.930  0.00  0.00    +0.000 A 
ATOM     15  C   UNL     1       2.060   3.542  21.671  0.00  0.00    +0.000 A 
ATOM     16  C   UNL     1       1.528   2.403  21.062  0.00  0.00    +0.000 A 
ATOM     17  C   UNL     1       1.193   2.452  19.722  0.00  0.00    +0.000 A 
ATOM     18  C   UNL     1       1.393   3.631  18.998  0.00  0.00    +0.000 A 
ENDBRANCH  12  13
ENDBRANCH   2  12
ENDBRANCH   1   2
BRANCH   1  19
ATOM     19  C   UNL     1       2.107   8.429  18.680  0.00  0.00    +0.000 C 
BRANCH  19  20
ATOM     20  C   UNL     1       1.488   9.822  18.285  0.00  0.00    +0.000 C 
ATOM     21  C   UNL     1       0.048   9.782  17.854  0.00  0.00    +0.000 C 
ATOM     22  C   UNL     1      -0.738  10.672  18.474  0.00  0.00    +0.000 C 
ATOM     23  C   UNL     1      -0.012  11.512  19.484  0.00  0.00    +0.000 C 
ATOM     24  C   UNL     1       1.406  10.850  19.478  0.00  0.00    +0.000 C 
BRANCH  23  25
ATOM     25  N   UNL     1      -0.717  11.573  20.760  0.00  0.00    +0.000 N 
ATOM     26  C   UNL     1      -0.371  10.923  21.920  0.00  0.00    +0.000 A 
ATOM     27  N   UNL     1      -1.233  11.113  22.894  0.00  0.00    +0.000 NA
ATOM     28  C   UNL     1      -2.218  11.908  22.339  0.00  0.00    +0.000 A 
ATOM     29  C   UNL     1      -3.423  12.422  22.872  0.00  0.00    +0.000 A 
ATOM     30  N   UNL     1      -3.851  12.212  24.174  0.00  0.00    +0.000 N 
ATOM     31  N   UNL     1      -4.232  13.132  22.050  0.00  0.00    +0.000 NA
ATOM     32  C   UNL     1      -3.828  13.336  20.780  0.00  0.00    +0.000 A 
ATOM     33  N   UNL     1      -2.695  12.915  20.170  0.00  0.00    +0.000 NA
ATOM     34  C   UNL     1      -1.932  12.194  21.015  0.00  0.00    +0.000 A 
ATOM     35  H   UNL     1      -3.422  11.412  24.624  0.00  0.00    +0.000 HD
ATOM     36  H   UNL     1      -4.850  12.326  24.274  0.00  0.00    +0.000 HD
ENDBRANCH  23  25
ENDBRANCH  19  20
ENDBRANCH   1  19
TORSDOF 10
ENDMDL
MODEL 6
REMARK VINA RESULT:      -8.2      0.856      1.880
REMARK  Name = 
REMARK  12 active torsions:
REMARK  status: ('A' for Active; 'I' for Inactive)
REMARK    1  A    between atoms: C_1  and  O_2
REMARK    2  A    between atoms: O_2  and  C_3
REMARK    3  A    between atoms: C_3  and  C_5
REMARK    4  A    between atoms: C_5  and  C_6
REMARK    5  A    between atoms: C_5  and  N_7
REMARK    6  A    between atoms: N_7  and  P_8
REMARK    7  A    between atoms: P_8  and  O_10
REMARK    8  A    between atoms: P_8  and  O_27
REMARK    9  A    between atoms: O_10  and  C_11
REMARK   10  A    between atoms: C_11  and  C_12
REMARK   11  A    between atoms: C_15  and  N_16
REMARK   12  A    between atoms: O_27  and  C_28
REMARK                            x       y       z     vdW  Elec       q    Type
REMARK                         _______ _______ _______ _____ _____    ______ ____
ROOT
ATOM      1  O   UNL     1       3.405   8.099  18.168  0.00  0.00    +0.000 OA
ENDROOT
BRANCH   1   2
ATOM      2  P   UNL     1       3.594   6.456  17.738  0.00  0.00    +0.000 P 
ATOM      3  O   UNL     1       4.545   5.741  18.688  0.00  0.00    +0.000 OA
BRANCH   2   4
ATOM      4  N   UNL     1       5.094   6.878  16.878  0.00  0.00    +0.000 NA
ATOM      5  H   UNL     1       4.917   6.708  15.895  0.00  0.00    +0.000 HD
BRANCH   4   6
ATOM      6  C   UNL     1       6.334   6.212  17.339  0.00  0.00    +0.000 C 
ATOM      7  C   UNL     1       7.418   7.272  17.551  0.00  0.00    +0.000 C 
BRANCH   6   8
ATOM      8  C   UNL     1       6.864   5.148  16.360  0.00  0.00    +0.000 C 
ATOM      9  O   UNL     1       7.903   4.517  16.500  0.00  0.00    +0.000 OA
BRANCH   8  11
ATOM     10  C   UNL     1       6.338   3.988  14.358  0.00  0.00    +0.000 C 
ATOM     11  O   UNL     1       6.035   5.039  15.281  0.00  0.00    +0.000 OA
ENDBRANCH   8  11
ENDBRANCH   6   8
ENDBRANCH   4   6
ENDBRANCH   2   4
BRANCH   2  12
ATOM     12  O   UNL     1       2.136   6.046  18.574  0.00  0.00    +0.000 OA
BRANCH  12  13
ATOM     13  C   UNL     1       1.966   4.920  19.369  0.00  0.00    +0.000 A 
ATOM     14  C   UNL     1       1.650   3.739  18.697  0.00  0.00    +0.000 A 
ATOM     15  C   UNL     1       1.470   2.540  19.408  0.00  0.00    +0.000 A 
ATOM     16  C   UNL     1       1.598   2.506  20.799  0.00  0.00    +0.000 A 
ATOM     17  C   UNL     1       1.943   3.664  21.470  0.00  0.00    +0.000 A 
ATOM     18  C   UNL     1       2.156   4.846  20.754  0.00  0.00    +0.000 A 
ENDBRANCH  12  13
ENDBRANCH   2  12
ENDBRANCH   1   2
BRANCH   1  19
ATOM     19  C   UNL     1       2.159   8.775  17.829  0.00  0.00    +0.000 C 
BRANCH  19  20
ATOM     20  C   UNL     1       1.580   9.792  18.883  0.00  0.00    +0.000 C 
ATOM     21  C   UNL     1       1.556  11.227  18.438  0.00  0.00    +0.000 C 
ATOM     22  C   UNL     1       0.376  11.839  18.607  0.00  0.00    +0.000 C 
ATOM     23  C   UNL     1      -0.681  10.947  19.191  0.00  0.00    +0.000 C 
ATOM     24  C   UNL     1       0.056   9.567  19.222  0.00  0.00    +0.000 C 
BRANCH  23  25
ATOM     25  N   UNL     1      -1.936  11.019  18.448  0.00  0.00    +0.000 N 
ATOM     26  C   UNL     1      -2.162  10.557  17.174  0.00  0.00    +0.000 A 
ATOM     27  N   UNL     1      -3.373  10.821  16.738  0.00  0.00    +0.000 NA
ATOM     28  C   UNL     1      -3.972  11.522  17.769  0.00  0.00    +0.000 A 
ATOM     29  C   UNL     1      -5.254  12.104  17.890  0.00  0.00    +0.000 A 
ATOM     30  N   UNL     1      -6.231  12.048  16.907  0.00  0.00    +0.000 N 
ATOM     31  N   UNL     1      -5.537  12.796  19.020  0.00  0.00    +0.000 NA
ATOM     32  C   UNL     1      -4.590  12.862  19.978  0.00  0.00    +0.000 A 
ATOM     33  N   UNL     1      -3.346  12.330  19.982  0.00  0.00    +0.000 NA
ATOM     34  C   UNL     1      -3.098  11.672  18.833  0.00  0.00    +0.000 A 
ATOM     35  H   UNL     1      -5.872  11.851  15.980  0.00  0.00    +0.000 HD
ATOM     36  H   UNL     1      -6.911  12.790  16.998  0.00  0.00    +0.000 HD
ENDBRANCH  23  25
ENDBRANCH  19  20
ENDBRANCH   1  19
TORSDOF 10
ENDMDL
MODEL 7
REMARK VINA RESULT:      -8.2      0.803      1.486
REMARK  Name = 
REMARK  12 active torsions:
REMARK  status: ('A' for Active; 'I' for Inactive)
REMARK    1  A    between atoms: C_1  and  O_2
REMARK    2  A    between atoms: O_2  and  C_3
REMARK    3  A    between atoms: C_3  and  C_5
REMARK    4  A    between atoms: C_5  and  C_6
REMARK    5  A    between atoms: C_5  and  N_7
REMARK    6  A    between atoms: N_7  and  P_8
REMARK    7  A    between atoms: P_8  and  O_10
REMARK    8  A    between atoms: P_8  and  O_27
REMARK    9  A    between atoms: O_10  and  C_11
REMARK   10  A    between atoms: C_11  and  C_12
REMARK   11  A    between atoms: C_15  and  N_16
REMARK   12  A    between atoms: O_27  and  C_28
REMARK                            x       y       z     vdW  Elec       q    Type
REMARK                         _______ _______ _______ _____ _____    ______ ____
ROOT
ATOM      1  O   UNL     1       3.015   8.216  17.856  0.00  0.00    +0.000 OA
ENDROOT
BRANCH   1   2
ATOM      2  P   UNL     1       3.368   6.545  17.787  0.00  0.00    +0.000 P 
ATOM      3  O   UNL     1       4.490   6.176  18.747  0.00  0.00    +0.000 OA
BRANCH   2   4
ATOM      4  N   UNL     1       4.710   6.897  16.673  0.00  0.00    +0.000 NA
ATOM      5  H   UNL     1       4.338   7.522  15.967  0.00  0.00    +0.000 HD
BRANCH   4   6
ATOM      6  C   UNL     1       5.398   5.731  16.071  0.00  0.00    +0.000 C 
ATOM      7  C   UNL     1       4.703   4.450  16.538  0.00  0.00    +0.000 C 
BRANCH   6   8
ATOM      8  C   UNL     1       6.893   5.645  16.428  0.00  0.00    +0.000 C 
ATOM      9  O   UNL     1       7.580   4.635  16.347  0.00  0.00    +0.000 OA
BRANCH   8  11
ATOM     10  C   UNL     1       7.842   6.848  18.239  0.00  0.00    +0.000 C 
ATOM     11  O   UNL     1       7.340   6.845  16.899  0.00  0.00    +0.000 OA
ENDBRANCH   8  11
ENDBRANCH   6   8
ENDBRANCH   4   6
ENDBRANCH   2   4
BRANCH   2  12
ATOM     12  O   UNL     1       2.064   6.202  18.871  0.00  0.00    +0.000 OA
BRANCH  12  13
ATOM     13  C   UNL     1       1.895   5.009  19.560  0.00  0.00    +0.000 A 
ATOM     14  C   UNL     1       1.404   3.936  18.815  0.00  0.00    +0.000 A 
ATOM     15  C   UNL     1       1.211   2.680  19.415  0.00  0.00    +0.000 A 
ATOM     16  C   UNL     1       1.499   2.481  20.767  0.00  0.00    +0.000 A 
ATOM     17  C   UNL     1       2.017   3.527  21.506  0.00  0.00    +0.000 A 
ATOM     18  C   UNL     1       2.241   4.765  20.895  0.00  0.00    +0.000 A 
ENDBRANCH  12  13
ENDBRANCH   2  12
ENDBRANCH   1   2
BRANCH   1  19
ATOM     19  C   UNL     1       1.655   8.634  18.168  0.00  0.00    +0.000 C 
BRANCH  19  20
ATOM     20  C   UNL     1       1.482   9.812  19.199  0.00  0.00    +0.000 C 
ATOM     21  C   UNL     1       1.607  11.193  18.617  0.00  0.00    +0.000 C 
ATOM     22  C   UNL     1       0.605  12.021  18.939  0.00  0.00    +0.000 C 
ATOM     23  C   UNL     1      -0.444  11.384  19.803  0.00  0.00    +0.000 C 
ATOM     24  C   UNL     1       0.044   9.898  19.841  0.00  0.00    +0.000 C 
BRANCH  23  25
ATOM     25  N   UNL     1      -1.794  11.633  19.307  0.00  0.00    +0.000 N 
ATOM     26  C   UNL     1      -2.813  12.260  19.983  0.00  0.00    +0.000 A 
ATOM     27  N   UNL     1      -3.940  12.282  19.309  0.00  0.00    +0.000 NA
ATOM     28  C   UNL     1      -3.661  11.607  18.135  0.00  0.00    +0.000 A 
ATOM     29  C   UNL     1      -4.471  11.274  17.026  0.00  0.00    +0.000 A 
ATOM     30  N   UNL     1      -5.809  11.620  16.906  0.00  0.00    +0.000 N 
ATOM     31  N   UNL     1      -3.920  10.535  16.032  0.00  0.00    +0.000 NA
ATOM     32  C   UNL     1      -2.622  10.189  16.144  0.00  0.00    +0.000 A 
ATOM     33  N   UNL     1      -1.749  10.467  17.140  0.00  0.00    +0.000 NA
ATOM     34  C   UNL     1      -2.343  11.181  18.116  0.00  0.00    +0.000 A 
ATOM     35  H   UNL     1      -6.258  11.840  17.788  0.00  0.00    +0.000 HD
ATOM     36  H   UNL     1      -6.305  11.018  16.265  0.00  0.00    +0.000 HD
ENDBRANCH  23  25
ENDBRANCH  19  20
ENDBRANCH   1  19
TORSDOF 10
ENDMDL
MODEL 8
REMARK VINA RESULT:      -8.1      1.912      4.539
REMARK  Name = 
REMARK  12 active torsions:
REMARK  status: ('A' for Active; 'I' for Inactive)
REMARK    1  A    between atoms: C_1  and  O_2
REMARK    2  A    between atoms: O_2  and  C_3
REMARK    3  A    between atoms: C_3  and  C_5
REMARK    4  A    between atoms: C_5  and  C_6
REMARK    5  A    between atoms: C_5  and  N_7
REMARK    6  A    between atoms: N_7  and  P_8
REMARK    7  A    between atoms: P_8  and  O_10
REMARK    8  A    between atoms: P_8  and  O_27
REMARK    9  A    between atoms: O_10  and  C_11
REMARK   10  A    between atoms: C_11  and  C_12
REMARK   11  A    between atoms: C_15  and  N_16
REMARK   12  A    between atoms: O_27  and  C_28
REMARK                            x       y       z     vdW  Elec       q    Type
REMARK                         _______ _______ _______ _____ _____    ______ ____
ROOT
ATOM      1  O   UNL     1       2.925   6.676  19.405  0.00  0.00    +0.000 OA
ENDROOT
BRANCH   1   2
ATOM      2  P   UNL     1       2.686   5.117  18.747  0.00  0.00    +0.000 P 
ATOM      3  O   UNL     1       1.558   5.114  17.725  0.00  0.00    +0.000 OA
BRANCH   2   4
ATOM      4  N   UNL     1       1.364   4.854  19.909  0.00  0.00    +0.000 NA
ATOM      5  H   UNL     1       1.513   5.512  20.664  0.00  0.00    +0.000 HD
BRANCH   4   6
ATOM      6  C   UNL     1       1.184   3.471  20.408  0.00  0.00    +0.000 C 
ATOM      7  C   UNL     1       2.261   3.177  21.456  0.00  0.00    +0.000 C 
BRANCH   6   8
ATOM      8  C   UNL     1       1.260   2.401  19.303  0.00  0.00    +0.000 C 
ATOM      9  O   UNL     1       0.377   2.164  18.491  0.00  0.00    +0.000 OA
BRANCH   8  11
ATOM     10  C   UNL     1       3.204   1.630  18.181  0.00  0.00    +0.000 C 
ATOM     11  O   UNL     1       2.436   1.714  19.386  0.00  0.00    +0.000 OA
ENDBRANCH   8  11
ENDBRANCH   6   8
ENDBRANCH   4   6
ENDBRANCH   2   4
BRANCH   2  12
ATOM     12  O   UNL     1       3.972   5.373  17.617  0.00  0.00    +0.000 OA
BRANCH  12  13
ATOM     13  C   UNL     1       5.269   5.733  17.957  0.00  0.00    +0.000 A 
ATOM     14  C   UNL     1       5.840   6.752  17.195  0.00  0.00    +0.000 A 
ATOM     15  C   UNL     1       7.145   7.200  17.467  0.00  0.00    +0.000 A 
ATOM     16  C   UNL     1       7.896   6.632  18.498  0.00  0.00    +0.000 A 
ATOM     17  C   UNL     1       7.327   5.645  19.280  0.00  0.00    +0.000 A 
ATOM     18  C   UNL     1       6.016   5.228  19.028  0.00  0.00    +0.000 A 
ENDBRANCH  12  13
ENDBRANCH   2  12
ENDBRANCH   1   2
BRANCH   1  19
ATOM     19  C   UNL     1       1.769   7.414  19.900  0.00  0.00    +0.000 C 
BRANCH  19  20
ATOM     20  C   UNL     1       1.759   8.973  19.675  0.00  0.00    +0.000 C 
ATOM     21  C   UNL     1       1.937   9.413  18.248  0.00  0.00    +0.000 C 
ATOM     22  C   UNL     1       1.023  10.296  17.824  0.00  0.00    +0.000 C 
ATOM     23  C   UNL     1       0.001  10.646  18.867  0.00  0.00    +0.000 C 
ATOM     24  C   UNL     1       0.383   9.662  20.022  0.00  0.00    +0.000 C 
BRANCH  23  25
ATOM     25  N   UNL     1      -1.362  10.572  18.349  0.00  0.00    +0.000 N 
ATOM     26  C   UNL     1      -1.782   9.874  17.242  0.00  0.00    +0.000 A 
ATOM     27  N   UNL     1      -3.057  10.048  16.977  0.00  0.00    +0.000 NA
ATOM     28  C   UNL     1      -3.499  10.933  17.944  0.00  0.00    +0.000 A 
ATOM     29  C   UNL     1      -4.762  11.526  18.170  0.00  0.00    +0.000 A 
ATOM     30  N   UNL     1      -5.887  11.281  17.396  0.00  0.00    +0.000 N 
ATOM     31  N   UNL     1      -4.875  12.422  19.180  0.00  0.00    +0.000 NA
ATOM     32  C   UNL     1      -3.785  12.672  19.933  0.00  0.00    +0.000 A 
ATOM     33  N   UNL     1      -2.540  12.151  19.825  0.00  0.00    +0.000 NA
ATOM     34  C   UNL     1      -2.465  11.286  18.796  0.00  0.00    +0.000 A 
ATOM     35  H   UNL     1      -5.681  10.910  16.476  0.00  0.00    +0.000 HD
ATOM     36  H   UNL     1      -6.567  12.026  17.460  0.00  0.00    +0.000 HD
ENDBRANCH  23  25
ENDBRANCH  19  20
ENDBRANCH   1  19
TORSDOF 10
ENDMDL
MODEL 9
REMARK VINA RESULT:      -8.0      1.092      2.208
REMARK  Name = 
REMARK  12 active torsions:
REMARK  status: ('A' for Active; 'I' for Inactive)
REMARK    1  A    between atoms: C_1  and  O_2
REMARK    2  A    between atoms: O_2  and  C_3
REMARK    3  A    between atoms: C_3  and  C_5
REMARK    4  A    between atoms: C_5  and  C_6
REMARK    5  A    between atoms: C_5  and  N_7
REMARK    6  A    between atoms: N_7  and  P_8
REMARK    7  A    between atoms: P_8  and  O_10
REMARK    8  A    between atoms: P_8  and  O_27
REMARK    9  A    between atoms: O_10  and  C_11
REMARK   10  A    between atoms: C_11  and  C_12
REMARK   11  A    between atoms: C_15  and  N_16
REMARK   12  A    between atoms: O_27  and  C_28
REMARK                            x       y       z     vdW  Elec       q    Type
REMARK                         _______ _______ _______ _____ _____    ______ ____
ROOT
ATOM      1  O   UNL     1       3.350   8.134  18.054  0.00  0.00    +0.000 OA
ENDROOT
BRANCH   1   2
ATOM      2  P   UNL     1       3.606   6.450  17.922  0.00  0.00    +0.000 P 
ATOM      3  O   UNL     1       4.641   5.966  18.928  0.00  0.00    +0.000 OA
BRANCH   2   4
ATOM      4  N   UNL     1       5.036   6.770  16.910  0.00  0.00    +0.000 NA
ATOM      5  H   UNL     1       4.885   7.675  16.481  0.00  0.00    +0.000 HD
BRANCH   4   6
ATOM      6  C   UNL     1       5.386   5.736  15.909  0.00  0.00    +0.000 C 
ATOM      7  C   UNL     1       4.591   4.463  16.210  0.00  0.00    +0.000 C 
BRANCH   6   8
ATOM      8  C   UNL     1       6.886   5.390  15.878  0.00  0.00    +0.000 C 
ATOM      9  O   UNL     1       7.465   4.849  14.946  0.00  0.00    +0.000 OA
BRANCH   8  11
ATOM     10  C   UNL     1       7.744   4.647  17.961  0.00  0.00    +0.000 C 
ATOM     11  O   UNL     1       7.477   5.727  17.061  0.00  0.00    +0.000 OA
ENDBRANCH   8  11
ENDBRANCH   6   8
ENDBRANCH   4   6
ENDBRANCH   2   4
BRANCH   2  12
ATOM     12  O   UNL     1       2.217   6.139  18.904  0.00  0.00    +0.000 OA
BRANCH  12  13
ATOM     13  C   UNL     1       1.858   4.893  19.402  0.00  0.00    +0.000 A 
ATOM     14  C   UNL     1       1.571   3.914  18.451  0.00  0.00    +0.000 A 
ATOM     15  C   UNL     1       1.210   2.616  18.850  0.00  0.00    +0.000 A 
ATOM     16  C   UNL     1       1.127   2.280  20.203  0.00  0.00    +0.000 A 
ATOM     17  C   UNL     1       1.443   3.233  21.153  0.00  0.00    +0.000 A 
ATOM     18  C   UNL     1       1.835   4.513  20.749  0.00  0.00    +0.000 A 
ENDBRANCH  12  13
ENDBRANCH   2  12
ENDBRANCH   1   2
BRANCH   1  19
ATOM     19  C   UNL     1       2.007   8.659  17.842  0.00  0.00    +0.000 C 
BRANCH  19  20
ATOM     20  C   UNL     1       1.475   9.716  18.881  0.00  0.00    +0.000 C 
ATOM     21  C   UNL     1       1.481  11.141  18.403  0.00  0.00    +0.000 C 
ATOM     22  C   UNL     1       0.321  11.788  18.576  0.00  0.00    +0.000 C 
ATOM     23  C   UNL     1      -0.750  10.939  19.199  0.00  0.00    +0.000 C 
ATOM     24  C   UNL     1      -0.049   9.541  19.251  0.00  0.00    +0.000 C 
BRANCH  23  25
ATOM     25  N   UNL     1      -2.014  11.028  18.476  0.00  0.00    +0.000 N 
ATOM     26  C   UNL     1      -2.269  10.563  17.208  0.00  0.00    +0.000 A 
ATOM     27  N   UNL     1      -3.481  10.844  16.790  0.00  0.00    +0.000 NA
ATOM     28  C   UNL     1      -4.052  11.561  17.826  0.00  0.00    +0.000 A 
ATOM     29  C   UNL     1      -5.322  12.166  17.963  0.00  0.00    +0.000 A 
ATOM     30  N   UNL     1      -6.316  12.121  16.996  0.00  0.00    +0.000 N 
ATOM     31  N   UNL     1      -5.575  12.870  19.093  0.00  0.00    +0.000 NA
ATOM     32  C   UNL     1      -4.613  12.925  20.036  0.00  0.00    +0.000 A 
ATOM     33  N   UNL     1      -3.378  12.372  20.024  0.00  0.00    +0.000 NA
ATOM     34  C   UNL     1      -3.159  11.703  18.875  0.00  0.00    +0.000 A 
ATOM     35  H   UNL     1      -5.974  11.912  16.065  0.00  0.00    +0.000 HD
ATOM     36  H   UNL     1      -6.981  12.875  17.093  0.00  0.00    +0.000 HD
ENDBRANCH  23  25
ENDBRANCH  19  20
ENDBRANCH   1  19
TORSDOF 10
ENDMDL
