MODEL 1
REMARK VINA RESULT:      -7.0      0.000      0.000
REMARK  Name = 
REMARK  6 active torsions:
REMARK  status: ('A' for Active; 'I' for Inactive)
REMARK    1  A    between atoms: N_4  and  C_5
REMARK    2  A    between atoms: C_8  and  C_9
REMARK    3  A    between atoms: C_9  and  N_10
REMARK    4  A    between atoms: C_9  and  P_11
REMARK    5  A    between atoms: P_11  and  O_13
REMARK    6  A    between atoms: P_11  and  O_14
REMARK                            x       y       z     vdW  Elec       q    Type
REMARK                         _______ _______ _______ _____ _____    ______ ____
ROOT
ATOM      1  C   UNL     1       4.900   5.342  16.364  0.00  0.00    +0.000 A 
ATOM      2  C   UNL     1       4.515   3.995  16.449  0.00  0.00    +0.000 A 
ATOM      3  C   UNL     1       3.493   3.574  17.322  0.00  0.00    +0.000 A 
ATOM      4  C   UNL     1       2.820   4.485  18.143  0.00  0.00    +0.000 A 
ATOM      5  C   UNL     1       3.186   5.839  18.029  0.00  0.00    +0.000 A 
ATOM      6  C   UNL     1       4.198   6.257  17.146  0.00  0.00    +0.000 A 
ENDROOT
BRANCH   1  10
ATOM      7  N   UNL     1       7.810   4.502  16.174  0.00  0.00    +0.000 NA
ATOM      8  C   UNL     1       7.157   5.189  15.304  0.00  0.00    +0.000 C 
ATOM      9  N   UNL     1       7.722   5.489  14.106  0.00  0.00    +0.000 N 
ATOM     10  N   UNL     1       5.906   5.709  15.442  0.00  0.00    +0.000 N 
ATOM     11  H   UNL     1       8.720   4.229  15.805  0.00  0.00    +0.000 HD
ATOM     12  H   UNL     1       8.721   5.324  14.052  0.00  0.00    +0.000 HD
ATOM     13  H   UNL     1       7.479   6.386  13.714  0.00  0.00    +0.000 HD
ATOM     14  H   UNL     1       5.531   6.194  14.641  0.00  0.00    +0.000 HD
ENDBRANCH   1  10
BRANCH   4  15
ATOM     15  C   UNL     1       1.647   4.025  19.035  0.00  0.00    +0.000 C 
BRANCH  15  16
ATOM     16  N   UNL     1       0.838   2.969  18.374  0.00  0.00    +0.000 NA
ATOM     17  H   UNL     1      -0.139   3.148  18.634  0.00  0.00    +0.000 HD
ATOM     18  H   UNL     1       1.074   2.076  18.807  0.00  0.00    +0.000 HD
ENDBRANCH  15  16
BRANCH  15  19
ATOM     19  P   UNL     1       2.075   3.358  20.685  0.00  0.00    +0.000 P 
ATOM     20  O   UNL     1       2.197   4.753  21.314  0.00  0.00    +0.000 OA
BRANCH  19  21
ATOM     21  O   UNL     1       0.539   2.866  20.966  0.00  0.00    +0.000 OA
ATOM     22  H   UNL     1       0.180   2.415  20.174  0.00  0.00    +0.000 HD
ENDBRANCH  19  21
BRANCH  19  23
ATOM     23  O   UNL     1       2.479   2.728  22.243  0.00  0.00    +0.000 OA
ATOM     24  H   UNL     1       2.340   3.490  22.843  0.00  0.00    +0.000 HD
ENDBRANCH  19  23
ENDBRANCH  15  19
ENDBRANCH   4  15
TORSDOF 6
ENDMDL
MODEL 2
REMARK VINA RESULT:      -6.9      0.180      1.207
REMARK  Name = 
REMARK  6 active torsions:
REMARK  status: ('A' for Active; 'I' for Inactive)
REMARK    1  A    between atoms: N_4  and  C_5
REMARK    2  A    between atoms: C_8  and  C_9
REMARK    3  A    between atoms: C_9  and  N_10
REMARK    4  A    between atoms: C_9  and  P_11
REMARK    5  A    between atoms: P_11  and  O_13
REMARK    6  A    between atoms: P_11  and  O_14
REMARK                            x       y       z     vdW  Elec       q    Type
REMARK                         _______ _______ _______ _____ _____    ______ ____
ROOT
ATOM      1  C   UNL     1       4.846   5.203  16.316  0.00  0.00    +0.000 A 
ATOM      2  C   UNL     1       4.225   6.121  17.178  0.00  0.00    +0.000 A 
ATOM      3  C   UNL     1       3.163   5.740  18.020  0.00  0.00    +0.000 A 
ATOM      4  C   UNL     1       2.681   4.427  18.029  0.00  0.00    +0.000 A 
ATOM      5  C   UNL     1       3.328   3.503  17.189  0.00  0.00    +0.000 A 
ATOM      6  C   UNL     1       4.398   3.885  16.359  0.00  0.00    +0.000 A 
ENDROOT
BRANCH   1  10
ATOM      7  N   UNL     1       7.795   4.501  16.451  0.00  0.00    +0.000 NA
ATOM      8  C   UNL     1       7.214   5.176  15.522  0.00  0.00    +0.000 C 
ATOM      9  N   UNL     1       7.898   5.527  14.403  0.00  0.00    +0.000 N 
ATOM     10  N   UNL     1       5.932   5.636  15.522  0.00  0.00    +0.000 N 
ATOM     11  H   UNL     1       8.754   4.278  16.185  0.00  0.00    +0.000 HD
ATOM     12  H   UNL     1       8.904   5.409  14.462  0.00  0.00    +0.000 HD
ATOM     13  H   UNL     1       7.659   6.420  13.999  0.00  0.00    +0.000 HD
ATOM     14  H   UNL     1       5.629   6.120  14.691  0.00  0.00    +0.000 HD
ENDBRANCH   1  10
BRANCH   4  15
ATOM     15  C   UNL     1       1.571   4.003  19.016  0.00  0.00    +0.000 C 
BRANCH  15  16
ATOM     16  N   UNL     1       0.689   2.960  18.433  0.00  0.00    +0.000 NA
ATOM     17  H   UNL     1       1.247   2.473  17.722  0.00  0.00    +0.000 HD
ATOM     18  H   UNL     1      -0.055   3.431  17.919  0.00  0.00    +0.000 HD
ENDBRANCH  15  16
BRANCH  15  19
ATOM     19  P   UNL     1       2.114   3.341  20.634  0.00  0.00    +0.000 P 
ATOM     20  O   UNL     1       2.268   4.739  21.252  0.00  0.00    +0.000 OA
BRANCH  19  21
ATOM     21  O   UNL     1       0.604   2.839  21.019  0.00  0.00    +0.000 OA
ATOM     22  H   UNL     1      -0.018   3.595  20.995  0.00  0.00    +0.000 HD
ENDBRANCH  19  21
BRANCH  19  23
ATOM     23  O   UNL     1       2.627   2.717  22.163  0.00  0.00    +0.000 OA
ATOM     24  H   UNL     1       3.455   3.208  22.346  0.00  0.00    +0.000 HD
ENDBRANCH  19  23
ENDBRANCH  15  19
ENDBRANCH   4  15
TORSDOF 6
ENDMDL
MODEL 3
REMARK VINA RESULT:      -6.6      1.815      2.105
REMARK  Name = 
REMARK  6 active torsions:
REMARK  status: ('A' for Active; 'I' for Inactive)
REMARK    1  A    between atoms: N_4  and  C_5
REMARK    2  A    between atoms: C_8  and  C_9
REMARK    3  A    between atoms: C_9  and  N_10
REMARK    4  A    between atoms: C_9  and  P_11
REMARK    5  A    between atoms: P_11  and  O_13
REMARK    6  A    between atoms: P_11  and  O_14
REMARK                            x       y       z     vdW  Elec       q    Type
REMARK                         _______ _______ _______ _____ _____    ______ ____
ROOT
ATOM      1  C   UNL     1       5.976   5.306  16.821  0.00  0.00    +0.000 A 
ATOM      2  C   UNL     1       6.260   4.494  17.930  0.00  0.00    +0.000 A 
ATOM      3  C   UNL     1       5.297   4.245  18.928  0.00  0.00    +0.000 A 
ATOM      4  C   UNL     1       4.016   4.802  18.853  0.00  0.00    +0.000 A 
ATOM      5  C   UNL     1       3.725   5.586  17.722  0.00  0.00    +0.000 A 
ATOM      6  C   UNL     1       4.685   5.821  16.721  0.00  0.00    +0.000 A 
ENDROOT
BRANCH   1  10
ATOM      7  N   UNL     1       6.505   3.790  14.246  0.00  0.00    +0.000 NA
ATOM      8  C   UNL     1       7.075   4.881  14.619  0.00  0.00    +0.000 C 
ATOM      9  N   UNL     1       7.907   5.541  13.772  0.00  0.00    +0.000 N 
ATOM     10  N   UNL     1       6.970   5.488  15.833  0.00  0.00    +0.000 N 
ATOM     11  H   UNL     1       6.749   3.569  13.281  0.00  0.00    +0.000 HD
ATOM     12  H   UNL     1       8.193   5.012  12.955  0.00  0.00    +0.000 HD
ATOM     13  H   UNL     1       8.694   6.007  14.198  0.00  0.00    +0.000 HD
ATOM     14  H   UNL     1       7.461   6.362  15.942  0.00  0.00    +0.000 HD
ENDBRANCH   1  10
BRANCH   4  15
ATOM     15  C   UNL     1       2.945   4.455  19.910  0.00  0.00    +0.000 C 
BRANCH  15  16
ATOM     16  N   UNL     1       2.319   5.677  20.478  0.00  0.00    +0.000 NA
ATOM     17  H   UNL     1       2.590   5.706  21.468  0.00  0.00    +0.000 HD
ATOM     18  H   UNL     1       1.308   5.540  20.477  0.00  0.00    +0.000 HD
ENDBRANCH  15  16
BRANCH  15  19
ATOM     19  P   UNL     1       1.555   3.399  19.360  0.00  0.00    +0.000 P 
ATOM     20  O   UNL     1       2.421   2.133  19.311  0.00  0.00    +0.000 OA
BRANCH  19  21
ATOM     21  O   UNL     1       0.859   3.415  20.842  0.00  0.00    +0.000 OA
ATOM     22  H   UNL     1       0.345   4.241  20.963  0.00  0.00    +0.000 HD
ENDBRANCH  19  21
BRANCH  19  23
ATOM     23  O   UNL     1       0.241   2.401  18.841  0.00  0.00    +0.000 OA
ATOM     24  H   UNL     1       0.519   1.499  19.104  0.00  0.00    +0.000 HD
ENDBRANCH  19  23
ENDBRANCH  15  19
ENDBRANCH   4  15
TORSDOF 6
ENDMDL
MODEL 4
REMARK VINA RESULT:      -6.6      1.927      2.282
REMARK  Name = 
REMARK  6 active torsions:
REMARK  status: ('A' for Active; 'I' for Inactive)
REMARK    1  A    between atoms: N_4  and  C_5
REMARK    2  A    between atoms: C_8  and  C_9
REMARK    3  A    between atoms: C_9  and  N_10
REMARK    4  A    between atoms: C_9  and  P_11
REMARK    5  A    between atoms: P_11  and  O_13
REMARK    6  A    between atoms: P_11  and  O_14
REMARK                            x       y       z     vdW  Elec       q    Type
REMARK                         _______ _______ _______ _____ _____    ______ ____
ROOT
ATOM      1  C   UNL     1       6.133   5.415  16.797  0.00  0.00    +0.000 A 
ATOM      2  C   UNL     1       4.828   5.902  16.619  0.00  0.00    +0.000 A 
ATOM      3  C   UNL     1       3.871   5.844  17.651  0.00  0.00    +0.000 A 
ATOM      4  C   UNL     1       4.184   5.294  18.898  0.00  0.00    +0.000 A 
ATOM      5  C   UNL     1       5.502   4.840  19.084  0.00  0.00    +0.000 A 
ATOM      6  C   UNL     1       6.459   4.912  18.055  0.00  0.00    +0.000 A 
ENDROOT
BRANCH   1  10
ATOM      7  N   UNL     1       6.470   3.771  14.269  0.00  0.00    +0.000 NA
ATOM      8  C   UNL     1       7.076   4.871  14.549  0.00  0.00    +0.000 C 
ATOM      9  N   UNL     1       7.856   5.477  13.618  0.00  0.00    +0.000 N 
ATOM     10  N   UNL     1       7.060   5.536  15.738  0.00  0.00    +0.000 N 
ATOM     11  H   UNL     1       6.646   3.501  13.302  0.00  0.00    +0.000 HD
ATOM     12  H   UNL     1       8.080   4.906  12.810  0.00  0.00    +0.000 HD
ATOM     13  H   UNL     1       8.675   5.953  13.967  0.00  0.00    +0.000 HD
ATOM     14  H   UNL     1       7.566   6.407  15.771  0.00  0.00    +0.000 HD
ENDBRANCH   1  10
BRANCH   4  15
ATOM     15  C   UNL     1       3.152   5.311  20.047  0.00  0.00    +0.000 C 
BRANCH  15  16
ATOM     16  N   UNL     1       2.510   6.643  20.188  0.00  0.00    +0.000 NA
ATOM     17  H   UNL     1       2.333   6.981  19.234  0.00  0.00    +0.000 HD
ATOM     18  H   UNL     1       3.201   7.284  20.578  0.00  0.00    +0.000 HD
ENDBRANCH  15  16
BRANCH  15  19
ATOM     19  P   UNL     1       1.776   4.109  19.939  0.00  0.00    +0.000 P 
ATOM     20  O   UNL     1       2.648   3.039  19.268  0.00  0.00    +0.000 OA
BRANCH  19  21
ATOM     21  O   UNL     1       1.828   3.794  21.545  0.00  0.00    +0.000 OA
ATOM     22  H   UNL     1       1.289   3.002  21.750  0.00  0.00    +0.000 HD
ENDBRANCH  19  21
BRANCH  19  23
ATOM     23  O   UNL     1       0.476   2.974  19.838  0.00  0.00    +0.000 OA
ATOM     24  H   UNL     1       0.372   2.660  20.760  0.00  0.00    +0.000 HD
ENDBRANCH  19  23
ENDBRANCH  15  19
ENDBRANCH   4  15
TORSDOF 6
ENDMDL
MODEL 5
REMARK VINA RESULT:      -6.5      4.430      6.642
REMARK  Name = 
REMARK  6 active torsions:
REMARK  status: ('A' for Active; 'I' for Inactive)
REMARK    1  A    between atoms: N_4  and  C_5
REMARK    2  A    between atoms: C_8  and  C_9
REMARK    3  A    between atoms: C_9  and  N_10
REMARK    4  A    between atoms: C_9  and  P_11
REMARK    5  A    between atoms: P_11  and  O_13
REMARK    6  A    between atoms: P_11  and  O_14
REMARK                            x       y       z     vdW  Elec       q    Type
REMARK                         _______ _______ _______ _____ _____    ______ ____
ROOT
ATOM      1  C   UNL     1       3.519   3.887  19.463  0.00  0.00    +0.000 A 
ATOM      2  C   UNL     1       4.451   4.937  19.499  0.00  0.00    +0.000 A 
ATOM      3  C   UNL     1       5.041   5.440  18.324  0.00  0.00    +0.000 A 
ATOM      4  C   UNL     1       4.722   4.911  17.069  0.00  0.00    +0.000 A 
ATOM      5  C   UNL     1       3.762   3.883  17.034  0.00  0.00    +0.000 A 
ATOM      6  C   UNL     1       3.165   3.392  18.209  0.00  0.00    +0.000 A 
ENDROOT
BRANCH   1  10
ATOM      7  N   UNL     1       0.611   3.781  20.324  0.00  0.00    +0.000 NA
ATOM      8  C   UNL     1       1.612   3.277  20.956  0.00  0.00    +0.000 C 
ATOM      9  N   UNL     1       1.407   2.500  22.051  0.00  0.00    +0.000 N 
ATOM     10  N   UNL     1       2.932   3.450  20.672  0.00  0.00    +0.000 N 
ATOM     11  H   UNL     1      -0.267   3.480  20.745  0.00  0.00    +0.000 HD
ATOM     12  H   UNL     1       0.467   2.535  22.430  0.00  0.00    +0.000 HD
ATOM     13  H   UNL     1       2.098   2.575  22.782  0.00  0.00    +0.000 HD
ATOM     14  H   UNL     1       3.585   2.949  21.254  0.00  0.00    +0.000 HD
ENDBRANCH   1  10
BRANCH   4  15
ATOM     15  C   UNL     1       5.313   5.526  15.782  0.00  0.00    +0.000 C 
BRANCH  15  16
ATOM     16  N   UNL     1       6.487   6.387  16.074  0.00  0.00    +0.000 NA
ATOM     17  H   UNL     1       6.768   6.174  17.039  0.00  0.00    +0.000 HD
ATOM     18  H   UNL     1       6.169   7.356  16.092  0.00  0.00    +0.000 HD
ENDBRANCH  15  16
BRANCH  15  19
ATOM     19  P   UNL     1       5.868   4.357  14.487  0.00  0.00    +0.000 P 
ATOM     20  O   UNL     1       7.052   5.243  14.072  0.00  0.00    +0.000 OA
BRANCH  19  21
ATOM     21  O   UNL     1       6.457   3.300  15.590  0.00  0.00    +0.000 OA
ATOM     22  H   UNL     1       7.336   2.974  15.306  0.00  0.00    +0.000 HD
ENDBRANCH  19  21
BRANCH  19  23
ATOM     23  O   UNL     1       6.393   3.254  13.264  0.00  0.00    +0.000 OA
ATOM     24  H   UNL     1       5.557   2.866  12.930  0.00  0.00    +0.000 HD
ENDBRANCH  19  23
ENDBRANCH  15  19
ENDBRANCH   4  15
TORSDOF 6
ENDMDL
MODEL 6
REMARK VINA RESULT:      -6.4      1.865      2.231
REMARK  Name = 
REMARK  6 active torsions:
REMARK  status: ('A' for Active; 'I' for Inactive)
REMARK    1  A    between atoms: N_4  and  C_5
REMARK    2  A    between atoms: C_8  and  C_9
REMARK    3  A    between atoms: C_9  and  N_10
REMARK    4  A    between atoms: C_9  and  P_11
REMARK    5  A    between atoms: P_11  and  O_13
REMARK    6  A    between atoms: P_11  and  O_14
REMARK                            x       y       z     vdW  Elec       q    Type
REMARK                         _______ _______ _______ _____ _____    ______ ____
ROOT
ATOM      1  C   UNL     1       6.180   4.939  16.715  0.00  0.00    +0.000 A 
ATOM      2  C   UNL     1       4.873   4.580  16.350  0.00  0.00    +0.000 A 
ATOM      3  C   UNL     1       3.890   4.291  17.317  0.00  0.00    +0.000 A 
ATOM      4  C   UNL     1       4.180   4.349  18.684  0.00  0.00    +0.000 A 
ATOM      5  C   UNL     1       5.481   4.743  19.045  0.00  0.00    +0.000 A 
ATOM      6  C   UNL     1       6.456   5.044  18.077  0.00  0.00    +0.000 A 
ENDROOT
BRANCH   1  10
ATOM      7  N   UNL     1       6.560   3.760  13.944  0.00  0.00    +0.000 NA
ATOM      8  C   UNL     1       7.147   4.804  14.416  0.00  0.00    +0.000 C 
ATOM      9  N   UNL     1       7.923   5.573  13.610  0.00  0.00    +0.000 N 
ATOM     10  N   UNL     1       7.112   5.254  15.701  0.00  0.00    +0.000 N 
ATOM     11  H   UNL     1       6.747   3.664  12.947  0.00  0.00    +0.000 HD
ATOM     12  H   UNL     1       8.161   5.153  12.718  0.00  0.00    +0.000 HD
ATOM     13  H   UNL     1       8.732   5.993  14.043  0.00  0.00    +0.000 HD
ATOM     14  H   UNL     1       7.604   6.114  15.888  0.00  0.00    +0.000 HD
ENDBRANCH   1  10
BRANCH   4  15
ATOM     15  C   UNL     1       3.073   4.112  19.734  0.00  0.00    +0.000 C 
BRANCH  15  16
ATOM     16  N   UNL     1       2.601   5.387  20.332  0.00  0.00    +0.000 NA
ATOM     17  H   UNL     1       3.062   6.140  19.807  0.00  0.00    +0.000 HD
ATOM     18  H   UNL     1       2.977   5.447  21.278  0.00  0.00    +0.000 HD
ENDBRANCH  15  16
BRANCH  15  19
ATOM     19  P   UNL     1       1.565   3.247  19.163  0.00  0.00    +0.000 P 
ATOM     20  O   UNL     1       2.156   1.855  19.430  0.00  0.00    +0.000 OA
BRANCH  19  21
ATOM     21  O   UNL     1       0.731   3.652  20.513  0.00  0.00    +0.000 OA
ATOM     22  H   UNL     1       1.329   3.654  21.289  0.00  0.00    +0.000 HD
ENDBRANCH  19  21
BRANCH  19  23
ATOM     23  O   UNL     1       0.139   2.430  18.623  0.00  0.00    +0.000 OA
ATOM     24  H   UNL     1       0.455   1.523  18.425  0.00  0.00    +0.000 HD
ENDBRANCH  19  23
ENDBRANCH  15  19
ENDBRANCH   4  15
TORSDOF 6
ENDMDL
MODEL 7
REMARK VINA RESULT:      -6.4      4.382      6.506
REMARK  Name = 
REMARK  6 active torsions:
REMARK  status: ('A' for Active; 'I' for Inactive)
REMARK    1  A    between atoms: N_4  and  C_5
REMARK    2  A    between atoms: C_8  and  C_9
REMARK    3  A    between atoms: C_9  and  N_10
REMARK    4  A    between atoms: C_9  and  P_11
REMARK    5  A    between atoms: P_11  and  O_13
REMARK    6  A    between atoms: P_11  and  O_14
REMARK                            x       y       z     vdW  Elec       q    Type
REMARK                         _______ _______ _______ _____ _____    ______ ____
ROOT
ATOM      1  C   UNL     1       3.506   4.631  19.601  0.00  0.00    +0.000 A 
ATOM      2  C   UNL     1       2.938   5.245  18.473  0.00  0.00    +0.000 A 
ATOM      3  C   UNL     1       3.730   5.693  17.399  0.00  0.00    +0.000 A 
ATOM      4  C   UNL     1       5.122   5.547  17.415  0.00  0.00    +0.000 A 
ATOM      5  C   UNL     1       5.683   4.900  18.531  0.00  0.00    +0.000 A 
ATOM      6  C   UNL     1       4.886   4.442  19.596  0.00  0.00    +0.000 A 
ENDROOT
BRANCH   1  10
ATOM      7  N   UNL     1       1.812   2.120  19.783  0.00  0.00    +0.000 NA
ATOM      8  C   UNL     1       2.035   2.960  20.733  0.00  0.00    +0.000 C 
ATOM      9  N   UNL     1       1.610   2.693  21.994  0.00  0.00    +0.000 N 
ATOM     10  N   UNL     1       2.656   4.168  20.630  0.00  0.00    +0.000 N 
ATOM     11  H   UNL     1       1.338   1.292  20.142  0.00  0.00    +0.000 HD
ATOM     12  H   UNL     1       0.950   1.926  22.070  0.00  0.00    +0.000 HD
ATOM     13  H   UNL     1       1.309   3.488  22.538  0.00  0.00    +0.000 HD
ATOM     14  H   UNL     1       2.777   4.683  21.487  0.00  0.00    +0.000 HD
ENDBRANCH   1  10
BRANCH   4  15
ATOM     15  C   UNL     1       5.971   5.968  16.196  0.00  0.00    +0.000 C 
BRANCH  15  16
ATOM     16  N   UNL     1       7.352   6.344  16.594  0.00  0.00    +0.000 NA
ATOM     17  H   UNL     1       7.592   7.180  16.048  0.00  0.00    +0.000 HD
ATOM     18  H   UNL     1       7.983   5.615  16.265  0.00  0.00    +0.000 HD
ENDBRANCH  15  16
BRANCH  15  19
ATOM     19  P   UNL     1       6.163   4.734  14.858  0.00  0.00    +0.000 P 
ATOM     20  O   UNL     1       7.598   5.177  14.537  0.00  0.00    +0.000 OA
BRANCH  19  21
ATOM     21  O   UNL     1       6.297   3.494  15.918  0.00  0.00    +0.000 OA
ATOM     22  H   UNL     1       6.555   2.675  15.447  0.00  0.00    +0.000 HD
ENDBRANCH  19  21
BRANCH  19  23
ATOM     23  O   UNL     1       6.344   3.569  13.593  0.00  0.00    +0.000 OA
ATOM     24  H   UNL     1       6.114   4.071  12.783  0.00  0.00    +0.000 HD
ENDBRANCH  19  23
ENDBRANCH  15  19
ENDBRANCH   4  15
TORSDOF 6
ENDMDL
MODEL 8
REMARK VINA RESULT:      -6.4      1.950      2.214
REMARK  Name = 
REMARK  6 active torsions:
REMARK  status: ('A' for Active; 'I' for Inactive)
REMARK    1  A    between atoms: N_4  and  C_5
REMARK    2  A    between atoms: C_8  and  C_9
REMARK    3  A    between atoms: C_9  and  N_10
REMARK    4  A    between atoms: C_9  and  P_11
REMARK    5  A    between atoms: P_11  and  O_13
REMARK    6  A    between atoms: P_11  and  O_14
REMARK                            x       y       z     vdW  Elec       q    Type
REMARK                         _______ _______ _______ _____ _____    ______ ____
ROOT
ATOM      1  C   UNL     1       6.257   5.618  16.632  0.00  0.00    +0.000 A 
ATOM      2  C   UNL     1       6.307   4.591  17.588  0.00  0.00    +0.000 A 
ATOM      3  C   UNL     1       5.356   4.500  18.623  0.00  0.00    +0.000 A 
ATOM      4  C   UNL     1       4.322   5.435  18.741  0.00  0.00    +0.000 A 
ATOM      5  C   UNL     1       4.255   6.441  17.760  0.00  0.00    +0.000 A 
ATOM      6  C   UNL     1       5.199   6.520  16.720  0.00  0.00    +0.000 A 
ENDROOT
BRANCH   1  10
ATOM      7  N   UNL     1       6.376   4.070  14.024  0.00  0.00    +0.000 NA
ATOM      8  C   UNL     1       7.150   5.037  14.373  0.00  0.00    +0.000 C 
ATOM      9  N   UNL     1       8.043   5.551  13.487  0.00  0.00    +0.000 N 
ATOM     10  N   UNL     1       7.216   5.635  15.595  0.00  0.00    +0.000 N 
ATOM     11  H   UNL     1       6.528   3.824  13.047  0.00  0.00    +0.000 HD
ATOM     12  H   UNL     1       8.188   4.991  12.654  0.00  0.00    +0.000 HD
ATOM     13  H   UNL     1       8.921   5.863  13.874  0.00  0.00    +0.000 HD
ATOM     14  H   UNL     1       7.860   6.406  15.682  0.00  0.00    +0.000 HD
ENDBRANCH   1  10
BRANCH   4  15
ATOM     15  C   UNL     1       3.238   5.277  19.830  0.00  0.00    +0.000 C 
BRANCH  15  16
ATOM     16  N   UNL     1       2.449   6.523  20.003  0.00  0.00    +0.000 NA
ATOM     17  H   UNL     1       1.536   6.238  20.376  0.00  0.00    +0.000 HD
ATOM     18  H   UNL     1       2.257   6.904  19.077  0.00  0.00    +0.000 HD
ENDBRANCH  15  16
BRANCH  15  19
ATOM     19  P   UNL     1       2.008   3.944  19.583  0.00  0.00    +0.000 P 
ATOM     20  O   UNL     1       1.005   4.569  20.565  0.00  0.00    +0.000 OA
BRANCH  19  21
ATOM     21  O   UNL     1       1.595   4.499  18.099  0.00  0.00    +0.000 OA
ATOM     22  H   UNL     1       1.277   3.759  17.541  0.00  0.00    +0.000 HD
ENDBRANCH  19  21
BRANCH  19  23
ATOM     23  O   UNL     1       0.845   2.686  19.351  0.00  0.00    +0.000 OA
ATOM     24  H   UNL     1       0.419   2.920  18.501  0.00  0.00    +0.000 HD
ENDBRANCH  19  23
ENDBRANCH  15  19
ENDBRANCH   4  15
TORSDOF 6
ENDMDL
MODEL 9
REMARK VINA RESULT:      -6.4      4.287      6.510
REMARK  Name = 
REMARK  6 active torsions:
REMARK  status: ('A' for Active; 'I' for Inactive)
REMARK    1  A    between atoms: N_4  and  C_5
REMARK    2  A    between atoms: C_8  and  C_9
REMARK    3  A    between atoms: C_9  and  N_10
REMARK    4  A    between atoms: C_9  and  P_11
REMARK    5  A    between atoms: P_11  and  O_13
REMARK    6  A    between atoms: P_11  and  O_14
REMARK                            x       y       z     vdW  Elec       q    Type
REMARK                         _______ _______ _______ _____ _____    ______ ____
ROOT
ATOM      1  C   UNL     1       3.250   4.338  19.672  0.00  0.00    +0.000 A 
ATOM      2  C   UNL     1       3.595   3.466  18.627  0.00  0.00    +0.000 A 
ATOM      3  C   UNL     1       4.200   3.933  17.445  0.00  0.00    +0.000 A 
ATOM      4  C   UNL     1       4.481   5.292  17.263  0.00  0.00    +0.000 A 
ATOM      5  C   UNL     1       4.166   6.157  18.326  0.00  0.00    +0.000 A 
ATOM      6  C   UNL     1       3.573   5.684  19.511  0.00  0.00    +0.000 A 
ENDROOT
BRANCH   1  10
ATOM      7  N   UNL     1       0.459   3.275  20.209  0.00  0.00    +0.000 NA
ATOM      8  C   UNL     1       1.470   3.198  21.002  0.00  0.00    +0.000 C 
ATOM      9  N   UNL     1       1.386   2.474  22.148  0.00  0.00    +0.000 N 
ATOM     10  N   UNL     1       2.680   3.805  20.849  0.00  0.00    +0.000 N 
ATOM     11  H   UNL     1      -0.315   2.713  20.561  0.00  0.00    +0.000 HD
ATOM     12  H   UNL     1       0.446   2.202  22.414  0.00  0.00    +0.000 HD
ATOM     13  H   UNL     1       1.898   2.836  22.939  0.00  0.00    +0.000 HD
ATOM     14  H   UNL     1       3.373   3.606  21.553  0.00  0.00    +0.000 HD
ENDBRANCH   1  10
BRANCH   4  15
ATOM     15  C   UNL     1       5.220   5.780  15.998  0.00  0.00    +0.000 C 
BRANCH  15  16
ATOM     16  N   UNL     1       6.396   6.620  16.340  0.00  0.00    +0.000 NA
ATOM     17  H   UNL     1       6.282   6.890  17.324  0.00  0.00    +0.000 HD
ATOM     18  H   UNL     1       6.326   7.489  15.811  0.00  0.00    +0.000 HD
ENDBRANCH  15  16
BRANCH  15  19
ATOM     19  P   UNL     1       5.847   4.493  14.858  0.00  0.00    +0.000 P 
ATOM     20  O   UNL     1       6.782   5.469  14.130  0.00  0.00    +0.000 OA
BRANCH  19  21
ATOM     21  O   UNL     1       6.749   3.790  16.030  0.00  0.00    +0.000 OA
ATOM     22  H   UNL     1       6.197   3.171  16.553  0.00  0.00    +0.000 HD
ENDBRANCH  19  21
BRANCH  19  23
ATOM     23  O   UNL     1       6.439   3.276  13.782  0.00  0.00    +0.000 OA
ATOM     24  H   UNL     1       6.911   2.654  14.374  0.00  0.00    +0.000 HD
ENDBRANCH  19  23
ENDBRANCH  15  19
ENDBRANCH   4  15
TORSDOF 6
ENDMDL
