MODEL 1
REMARK VINA RESULT:      -7.5      0.000      0.000
REMARK  Name = 
REMARK  11 active torsions:
REMARK  status: ('A' for Active; 'I' for Inactive)
REMARK    1  A    between atoms: C_1  and  C_2
REMARK    2  A    between atoms: N_11  and  C_12
REMARK    3  A    between atoms: C_14  and  C_15
REMARK    4  A    between atoms: C_15  and  N_16
REMARK    5  A    between atoms: N_16  and  C_17
REMARK    6  A    between atoms: N_16  and  C_18
REMARK    7  A    between atoms: C_18  and  C_19
REMARK    8  A    between atoms: C_19  and  O_20
REMARK    9  A    between atoms: O_20  and  N_21
REMARK   10  A    between atoms: C_22  and  O_23
REMARK   11  A    between atoms: C_24  and  O_25
REMARK                            x       y       z     vdW  Elec       q    Type
REMARK                         _______ _______ _______ _____ _____    ______ ____
ROOT
ATOM      1  C   UNL     1       5.252   5.979  18.033  0.00  0.00    +0.000 C 
ATOM      2  O   UNL     1       5.564   6.196  16.644  0.00  0.00    +0.000 OA
ATOM      3  C   UNL     1       6.962   5.876  16.433  0.00  0.00    +0.000 C 
ATOM      4  C   UNL     1       7.551   5.547  17.811  0.00  0.00    +0.000 C 
ATOM      5  C   UNL     1       6.348   5.098  18.621  0.00  0.00    +0.000 C 
ENDROOT
BRANCH   1  16
ATOM      6  C   UNL     1       2.693   7.658  18.065  0.00  0.00    +0.000 C 
ATOM      7  C   UNL     1       2.748   6.187  18.263  0.00  0.00    +0.000 A 
ATOM      8  N   UNL     1       1.713   5.430  18.579  0.00  0.00    +0.000 NA
ATOM      9  C   UNL     1       2.231   4.166  18.771  0.00  0.00    +0.000 A 
ATOM     10  C   UNL     1       1.641   2.966  19.195  0.00  0.00    +0.000 A 
ATOM     11  N   UNL     1       0.301   2.864  19.547  0.00  0.00    +0.000 N 
ATOM     12  N   UNL     1       2.412   1.862  19.277  0.00  0.00    +0.000 NA
ATOM     13  C   UNL     1       3.729   1.983  18.999  0.00  0.00    +0.000 A 
ATOM     14  N   UNL     1       4.411   3.083  18.622  0.00  0.00    +0.000 NA
ATOM     15  C   UNL     1       3.593   4.145  18.517  0.00  0.00    +0.000 A 
ATOM     16  N   UNL     1       3.915   5.441  18.197  0.00  0.00    +0.000 N 
ATOM     17  H   UNL     1      -0.272   3.613  19.177  0.00  0.00    +0.000 HD
ATOM     18  H   UNL     1      -0.046   1.916  19.479  0.00  0.00    +0.000 HD
ENDBRANCH   1  16
BRANCH   4  19
ATOM     19  O   UNL     1       8.098   6.717  18.454  0.00  0.00    +0.000 OA
ATOM     20  H   UNL     1       8.850   6.453  19.013  0.00  0.00    +0.000 HD
ENDBRANCH   4  19
BRANCH   5  21
ATOM     21  O   UNL     1       6.540   5.324  20.019  0.00  0.00    +0.000 OA
ATOM     22  H   UNL     1       7.056   6.155  20.090  0.00  0.00    +0.000 HD
ENDBRANCH   5  21
BRANCH   3  23
ATOM     23  C   UNL     1       7.107   4.692  15.450  0.00  0.00    +0.000 C 
BRANCH  23  24
ATOM     24  N   UNL     1       6.696   4.969  14.056  0.00  0.00    +0.000 NA
ATOM     25  C   UNL     1       7.836   5.238  13.180  0.00  0.00    +0.000 C 
BRANCH  24  26
ATOM     26  C   UNL     1       5.871   3.873  13.500  0.00  0.00    +0.000 C 
BRANCH  26  27
ATOM     27  C   UNL     1       6.401   3.329  12.167  0.00  0.00    +0.000 C 
BRANCH  27  28
ATOM     28  O   UNL     1       5.542   2.296  11.671  0.00  0.00    +0.000 OA
BRANCH  28  29
ATOM     29  N   UNL     1       6.388   1.173  11.269  0.00  0.00    +0.000 NA
ATOM     30  H   UNL     1       6.211   0.511  12.027  0.00  0.00    +0.000 HD
ATOM     31  H   UNL     1       7.320   1.549  11.450  0.00  0.00    +0.000 HD
ENDBRANCH  28  29
ENDBRANCH  27  28
ENDBRANCH  26  27
ENDBRANCH  24  26
ENDBRANCH  23  24
ENDBRANCH   3  23
TORSDOF 9
ENDMDL
MODEL 2
REMARK VINA RESULT:      -7.3      1.656      1.846
REMARK  Name = 
REMARK  11 active torsions:
REMARK  status: ('A' for Active; 'I' for Inactive)
REMARK    1  A    between atoms: C_1  and  C_2
REMARK    2  A    between atoms: N_11  and  C_12
REMARK    3  A    between atoms: C_14  and  C_15
REMARK    4  A    between atoms: C_15  and  N_16
REMARK    5  A    between atoms: N_16  and  C_17
REMARK    6  A    between atoms: N_16  and  C_18
REMARK    7  A    between atoms: C_18  and  C_19
REMARK    8  A    between atoms: C_19  and  O_20
REMARK    9  A    between atoms: O_20  and  N_21
REMARK   10  A    between atoms: C_22  and  O_23
REMARK   11  A    between atoms: C_24  and  O_25
REMARK                            x       y       z     vdW  Elec       q    Type
REMARK                         _______ _______ _______ _____ _____    ______ ____
ROOT
ATOM      1  C   UNL     1       4.974   5.498  16.880  0.00  0.00    +0.000 C 
ATOM      2  O   UNL     1       4.783   5.580  15.454  0.00  0.00    +0.000 OA
ATOM      3  C   UNL     1       5.962   5.045  14.802  0.00  0.00    +0.000 C 
ATOM      4  C   UNL     1       6.969   4.719  15.912  0.00  0.00    +0.000 C 
ATOM      5  C   UNL     1       6.100   4.503  17.137  0.00  0.00    +0.000 C 
ENDROOT
BRANCH   1  16
ATOM      6  C   UNL     1       3.014   7.563  18.000  0.00  0.00    +0.000 C 
ATOM      7  C   UNL     1       2.859   6.091  18.120  0.00  0.00    +0.000 A 
ATOM      8  N   UNL     1       1.910   5.487  18.810  0.00  0.00    +0.000 NA
ATOM      9  C   UNL     1       2.208   4.142  18.740  0.00  0.00    +0.000 A 
ATOM     10  C   UNL     1       1.616   3.018  19.337  0.00  0.00    +0.000 A 
ATOM     11  N   UNL     1       0.534   3.103  20.203  0.00  0.00    +0.000 N 
ATOM     12  N   UNL     1       2.128   1.800  19.067  0.00  0.00    +0.000 NA
ATOM     13  C   UNL     1       3.223   1.729  18.278  0.00  0.00    +0.000 A 
ATOM     14  N   UNL     1       3.897   2.735  17.684  0.00  0.00    +0.000 NA
ATOM     15  C   UNL     1       3.325   3.922  17.951  0.00  0.00    +0.000 A 
ATOM     16  N   UNL     1       3.737   5.173  17.562  0.00  0.00    +0.000 N 
ATOM     17  H   UNL     1       0.017   3.971  20.121  0.00  0.00    +0.000 HD
ATOM     18  H   UNL     1       0.012   2.238  20.259  0.00  0.00    +0.000 HD
ENDBRANCH   1  16
BRANCH   4  19
ATOM     19  O   UNL     1       7.844   5.833  16.187  0.00  0.00    +0.000 OA
ATOM     20  H   UNL     1       7.488   6.632  15.762  0.00  0.00    +0.000 HD
ENDBRANCH   4  19
BRANCH   5  21
ATOM     21  O   UNL     1       6.812   4.784  18.344  0.00  0.00    +0.000 OA
ATOM     22  H   UNL     1       6.895   3.927  18.814  0.00  0.00    +0.000 HD
ENDBRANCH   5  21
BRANCH   3  23
ATOM     23  C   UNL     1       5.602   3.795  13.968  0.00  0.00    +0.000 C 
BRANCH  23  24
ATOM     24  N   UNL     1       5.773   3.935  12.504  0.00  0.00    +0.000 NA
ATOM     25  C   UNL     1       7.173   4.124  12.121  0.00  0.00    +0.000 C 
BRANCH  24  26
ATOM     26  C   UNL     1       5.193   2.787  11.773  0.00  0.00    +0.000 C 
BRANCH  26  27
ATOM     27  C   UNL     1       3.765   3.042  11.275  0.00  0.00    +0.000 C 
BRANCH  27  28
ATOM     28  O   UNL     1       3.732   4.181  10.409  0.00  0.00    +0.000 OA
BRANCH  28  29
ATOM     29  N   UNL     1       2.934   3.823   9.238  0.00  0.00    +0.000 NA
ATOM     30  H   UNL     1       2.100   4.396   9.385  0.00  0.00    +0.000 HD
ATOM     31  H   UNL     1       2.652   2.870   9.470  0.00  0.00    +0.000 HD
ENDBRANCH  28  29
ENDBRANCH  27  28
ENDBRANCH  26  27
ENDBRANCH  24  26
ENDBRANCH  23  24
ENDBRANCH   3  23
TORSDOF 9
ENDMDL
MODEL 3
REMARK VINA RESULT:      -7.2      2.950      5.273
REMARK  Name = 
REMARK  11 active torsions:
REMARK  status: ('A' for Active; 'I' for Inactive)
REMARK    1  A    between atoms: C_1  and  C_2
REMARK    2  A    between atoms: N_11  and  C_12
REMARK    3  A    between atoms: C_14  and  C_15
REMARK    4  A    between atoms: C_15  and  N_16
REMARK    5  A    between atoms: N_16  and  C_17
REMARK    6  A    between atoms: N_16  and  C_18
REMARK    7  A    between atoms: C_18  and  C_19
REMARK    8  A    between atoms: C_19  and  O_20
REMARK    9  A    between atoms: O_20  and  N_21
REMARK   10  A    between atoms: C_22  and  O_23
REMARK   11  A    between atoms: C_24  and  O_25
REMARK                            x       y       z     vdW  Elec       q    Type
REMARK                         _______ _______ _______ _____ _____    ______ ____
ROOT
ATOM      1  C   UNL     1       3.426   4.264  18.923  0.00  0.00    +0.000 C 
ATOM      2  O   UNL     1       4.808   4.562  18.650  0.00  0.00    +0.000 OA
ATOM      3  C   UNL     1       5.152   4.000  17.358  0.00  0.00    +0.000 C 
ATOM      4  C   UNL     1       3.920   3.223  16.875  0.00  0.00    +0.000 C 
ATOM      5  C   UNL     1       2.765   3.887  17.602  0.00  0.00    +0.000 C 
ENDROOT
BRANCH   1  16
ATOM      6  C   UNL     1       1.896   3.997  21.560  0.00  0.00    +0.000 C 
ATOM      7  C   UNL     1       2.036   5.254  20.781  0.00  0.00    +0.000 A 
ATOM      8  N   UNL     1       1.435   6.393  21.074  0.00  0.00    +0.000 NA
ATOM      9  C   UNL     1       1.753   7.248  20.040  0.00  0.00    +0.000 A 
ATOM     10  C   UNL     1       1.347   8.561  19.752  0.00  0.00    +0.000 A 
ATOM     11  N   UNL     1       0.448   9.266  20.540  0.00  0.00    +0.000 N 
ATOM     12  N   UNL     1       1.846   9.163  18.652  0.00  0.00    +0.000 NA
ATOM     13  C   UNL     1       2.668   8.448  17.852  0.00  0.00    +0.000 A 
ATOM     14  N   UNL     1       3.094   7.177  18.004  0.00  0.00    +0.000 NA
ATOM     15  C   UNL     1       2.602   6.637  19.133  0.00  0.00    +0.000 A 
ATOM     16  N   UNL     1       2.775   5.361  19.612  0.00  0.00    +0.000 N 
ATOM     17  H   UNL     1       0.359   8.897  21.480  0.00  0.00    +0.000 HD
ATOM     18  H   UNL     1       0.531  10.268  20.424  0.00  0.00    +0.000 HD
ENDBRANCH   1  16
BRANCH   4  19
ATOM     19  O   UNL     1       3.960   1.841  17.289  0.00  0.00    +0.000 OA
ATOM     20  H   UNL     1       4.230   1.795  18.223  0.00  0.00    +0.000 HD
ENDBRANCH   4  19
BRANCH   5  21
ATOM     21  O   UNL     1       1.667   2.990  17.777  0.00  0.00    +0.000 OA
ATOM     22  H   UNL     1       0.979   3.495  18.259  0.00  0.00    +0.000 HD
ENDBRANCH   5  21
BRANCH   3  23
ATOM     23  C   UNL     1       5.550   5.117  16.367  0.00  0.00    +0.000 C 
BRANCH  23  24
ATOM     24  N   UNL     1       6.815   5.821  16.678  0.00  0.00    +0.000 NA
ATOM     25  C   UNL     1       6.591   7.184  17.159  0.00  0.00    +0.000 C 
BRANCH  24  26
ATOM     26  C   UNL     1       7.638   5.065  17.648  0.00  0.00    +0.000 C 
BRANCH  26  27
ATOM     27  C   UNL     1       7.988   5.869  18.906  0.00  0.00    +0.000 C 
BRANCH  27  28
ATOM     28  O   UNL     1       7.335   5.313  20.053  0.00  0.00    +0.000 OA
BRANCH  28  29
ATOM     29  N   UNL     1       8.337   5.178  21.109  0.00  0.00    +0.000 NA
ATOM     30  H   UNL     1       7.757   5.272  21.945  0.00  0.00    +0.000 HD
ATOM     31  H   UNL     1       8.838   6.064  21.026  0.00  0.00    +0.000 HD
ENDBRANCH  28  29
ENDBRANCH  27  28
ENDBRANCH  26  27
ENDBRANCH  24  26
ENDBRANCH  23  24
ENDBRANCH   3  23
TORSDOF 9
ENDMDL
MODEL 4
REMARK VINA RESULT:      -7.2      1.455      1.691
REMARK  Name = 
REMARK  11 active torsions:
REMARK  status: ('A' for Active; 'I' for Inactive)
REMARK    1  A    between atoms: C_1  and  C_2
REMARK    2  A    between atoms: N_11  and  C_12
REMARK    3  A    between atoms: C_14  and  C_15
REMARK    4  A    between atoms: C_15  and  N_16
REMARK    5  A    between atoms: N_16  and  C_17
REMARK    6  A    between atoms: N_16  and  C_18
REMARK    7  A    between atoms: C_18  and  C_19
REMARK    8  A    between atoms: C_19  and  O_20
REMARK    9  A    between atoms: O_20  and  N_21
REMARK   10  A    between atoms: C_22  and  O_23
REMARK   11  A    between atoms: C_24  and  O_25
REMARK                            x       y       z     vdW  Elec       q    Type
REMARK                         _______ _______ _______ _____ _____    ______ ____
ROOT
ATOM      1  C   UNL     1       5.033   5.256  16.813  0.00  0.00    +0.000 C 
ATOM      2  O   UNL     1       4.813   5.443  15.402  0.00  0.00    +0.000 OA
ATOM      3  C   UNL     1       5.899   4.808  14.681  0.00  0.00    +0.000 C 
ATOM      4  C   UNL     1       6.889   4.297  15.736  0.00  0.00    +0.000 C 
ATOM      5  C   UNL     1       6.034   4.118  16.978  0.00  0.00    +0.000 C 
ENDROOT
BRANCH   1  16
ATOM      6  C   UNL     1       3.213   7.495  17.832  0.00  0.00    +0.000 C 
ATOM      7  C   UNL     1       2.970   6.044  18.032  0.00  0.00    +0.000 A 
ATOM      8  N   UNL     1       1.992   5.537  18.760  0.00  0.00    +0.000 NA
ATOM      9  C   UNL     1       2.207   4.175  18.761  0.00  0.00    +0.000 A 
ATOM     10  C   UNL     1       1.553   3.123  19.422  0.00  0.00    +0.000 A 
ATOM     11  N   UNL     1       0.486   3.321  20.289  0.00  0.00    +0.000 N 
ATOM     12  N   UNL     1       1.987   1.863  19.215  0.00  0.00    +0.000 NA
ATOM     13  C   UNL     1       3.068   1.683  18.425  0.00  0.00    +0.000 A 
ATOM     14  N   UNL     1       3.797   2.612  17.773  0.00  0.00    +0.000 NA
ATOM     15  C   UNL     1       3.301   3.845  17.978  0.00  0.00    +0.000 A 
ATOM     16  N   UNL     1       3.784   5.045  17.520  0.00  0.00    +0.000 N 
ATOM     17  H   UNL     1       0.022   4.213  20.162  0.00  0.00    +0.000 HD
ATOM     18  H   UNL     1      -0.087   2.493  20.394  0.00  0.00    +0.000 HD
ENDBRANCH   1  16
BRANCH   4  19
ATOM     19  O   UNL     1       7.902   5.279  16.041  0.00  0.00    +0.000 OA
ATOM     20  H   UNL     1       7.839   6.012  15.404  0.00  0.00    +0.000 HD
ENDBRANCH   4  19
BRANCH   5  21
ATOM     21  O   UNL     1       6.808   4.240  18.172  0.00  0.00    +0.000 OA
ATOM     22  H   UNL     1       6.376   3.661  18.835  0.00  0.00    +0.000 HD
ENDBRANCH   5  21
BRANCH   3  23
ATOM     23  C   UNL     1       5.364   3.661  13.794  0.00  0.00    +0.000 C 
BRANCH  23  24
ATOM     24  N   UNL     1       5.707   3.756  12.357  0.00  0.00    +0.000 NA
ATOM     25  C   UNL     1       7.140   3.951  12.136  0.00  0.00    +0.000 C 
BRANCH  24  26
ATOM     26  C   UNL     1       5.228   2.577  11.601  0.00  0.00    +0.000 C 
BRANCH  26  27
ATOM     27  C   UNL     1       6.294   1.486  11.437  0.00  0.00    +0.000 C 
BRANCH  27  28
ATOM     28  O   UNL     1       5.723   0.315  10.843  0.00  0.00    +0.000 OA
BRANCH  28  29
ATOM     29  N   UNL     1       6.344  -0.849  11.474  0.00  0.00    +0.000 NA
ATOM     30  H   UNL     1       5.522  -1.344  11.825  0.00  0.00    +0.000 HD
ATOM     31  H   UNL     1       6.776  -0.424  12.296  0.00  0.00    +0.000 HD
ENDBRANCH  28  29
ENDBRANCH  27  28
ENDBRANCH  26  27
ENDBRANCH  24  26
ENDBRANCH  23  24
ENDBRANCH   3  23
TORSDOF 9
ENDMDL
MODEL 5
REMARK VINA RESULT:      -7.1      2.615      4.696
REMARK  Name = 
REMARK  11 active torsions:
REMARK  status: ('A' for Active; 'I' for Inactive)
REMARK    1  A    between atoms: C_1  and  C_2
REMARK    2  A    between atoms: N_11  and  C_12
REMARK    3  A    between atoms: C_14  and  C_15
REMARK    4  A    between atoms: C_15  and  N_16
REMARK    5  A    between atoms: N_16  and  C_17
REMARK    6  A    between atoms: N_16  and  C_18
REMARK    7  A    between atoms: C_18  and  C_19
REMARK    8  A    between atoms: C_19  and  O_20
REMARK    9  A    between atoms: O_20  and  N_21
REMARK   10  A    between atoms: C_22  and  O_23
REMARK   11  A    between atoms: C_24  and  O_25
REMARK                            x       y       z     vdW  Elec       q    Type
REMARK                         _______ _______ _______ _____ _____    ______ ____
ROOT
ATOM      1  C   UNL     1       3.576   3.502  19.192  0.00  0.00    +0.000 C 
ATOM      2  O   UNL     1       4.765   3.809  18.440  0.00  0.00    +0.000 OA
ATOM      3  C   UNL     1       4.808   2.944  17.277  0.00  0.00    +0.000 C 
ATOM      4  C   UNL     1       3.618   1.982  17.400  0.00  0.00    +0.000 C 
ATOM      5  C   UNL     1       2.631   2.738  18.272  0.00  0.00    +0.000 C 
ENDROOT
BRANCH   1  16
ATOM      6  C   UNL     1       1.971   3.569  21.798  0.00  0.00    +0.000 C 
ATOM      7  C   UNL     1       2.222   4.742  20.922  0.00  0.00    +0.000 A 
ATOM      8  N   UNL     1       1.701   5.942  21.103  0.00  0.00    +0.000 NA
ATOM      9  C   UNL     1       2.104   6.683  20.012  0.00  0.00    +0.000 A 
ATOM     10  C   UNL     1       1.804   7.992  19.605  0.00  0.00    +0.000 A 
ATOM     11  N   UNL     1       0.941   8.824  20.307  0.00  0.00    +0.000 N 
ATOM     12  N   UNL     1       2.370   8.462  18.474  0.00  0.00    +0.000 NA
ATOM     13  C   UNL     1       3.155   7.624  17.759  0.00  0.00    +0.000 A 
ATOM     14  N   UNL     1       3.482   6.344  18.028  0.00  0.00    +0.000 NA
ATOM     15  C   UNL     1       2.926   5.937  19.183  0.00  0.00    +0.000 A 
ATOM     16  N   UNL     1       2.993   4.698  19.770  0.00  0.00    +0.000 N 
ATOM     17  H   UNL     1       0.804   8.543  21.270  0.00  0.00    +0.000 HD
ATOM     18  H   UNL     1       1.102   9.804  20.110  0.00  0.00    +0.000 HD
ENDBRANCH   1  16
BRANCH   4  19
ATOM     19  O   UNL     1       3.977   0.770  18.096  0.00  0.00    +0.000 OA
ATOM     20  H   UNL     1       4.096   0.053  17.450  0.00  0.00    +0.000 HD
ENDBRANCH   4  19
BRANCH   5  21
ATOM     21  O   UNL     1       1.772   1.848  18.988  0.00  0.00    +0.000 OA
ATOM     22  H   UNL     1       1.027   2.396  19.314  0.00  0.00    +0.000 HD
ENDBRANCH   5  21
BRANCH   3  23
ATOM     23  C   UNL     1       4.740   3.776  15.977  0.00  0.00    +0.000 C 
BRANCH  23  24
ATOM     24  N   UNL     1       6.044   4.239  15.450  0.00  0.00    +0.000 NA
ATOM     25  C   UNL     1       6.219   3.920  14.033  0.00  0.00    +0.000 C 
BRANCH  24  26
ATOM     26  C   UNL     1       6.242   5.688  15.677  0.00  0.00    +0.000 C 
BRANCH  26  27
ATOM     27  C   UNL     1       7.120   5.999  16.895  0.00  0.00    +0.000 C 
BRANCH  27  28
ATOM     28  O   UNL     1       7.850   4.834  17.297  0.00  0.00    +0.000 OA
BRANCH  28  29
ATOM     29  N   UNL     1       7.713   4.704  18.746  0.00  0.00    +0.000 NA
ATOM     30  H   UNL     1       8.172   5.559  19.065  0.00  0.00    +0.000 HD
ATOM     31  H   UNL     1       8.375   3.952  18.944  0.00  0.00    +0.000 HD
ENDBRANCH  28  29
ENDBRANCH  27  28
ENDBRANCH  26  27
ENDBRANCH  24  26
ENDBRANCH  23  24
ENDBRANCH   3  23
TORSDOF 9
ENDMDL
MODEL 6
REMARK VINA RESULT:      -7.0      1.282      1.284
REMARK  Name = 
REMARK  11 active torsions:
REMARK  status: ('A' for Active; 'I' for Inactive)
REMARK    1  A    between atoms: C_1  and  C_2
REMARK    2  A    between atoms: N_11  and  C_12
REMARK    3  A    between atoms: C_14  and  C_15
REMARK    4  A    between atoms: C_15  and  N_16
REMARK    5  A    between atoms: N_16  and  C_17
REMARK    6  A    between atoms: N_16  and  C_18
REMARK    7  A    between atoms: C_18  and  C_19
REMARK    8  A    between atoms: C_19  and  O_20
REMARK    9  A    between atoms: O_20  and  N_21
REMARK   10  A    between atoms: C_22  and  O_23
REMARK   11  A    between atoms: C_24  and  O_25
REMARK                            x       y       z     vdW  Elec       q    Type
REMARK                         _______ _______ _______ _____ _____    ______ ____
ROOT
ATOM      1  C   UNL     1       5.073   5.875  18.219  0.00  0.00    +0.000 C 
ATOM      2  O   UNL     1       4.761   5.954  16.815  0.00  0.00    +0.000 OA
ATOM      3  C   UNL     1       5.967   5.672  16.060  0.00  0.00    +0.000 C 
ATOM      4  C   UNL     1       7.100   5.519  17.084  0.00  0.00    +0.000 C 
ATOM      5  C   UNL     1       6.384   5.110  18.358  0.00  0.00    +0.000 C 
ENDROOT
BRANCH   1  16
ATOM      6  C   UNL     1       2.465   7.337  18.876  0.00  0.00    +0.000 C 
ATOM      7  C   UNL     1       2.807   5.962  19.324  0.00  0.00    +0.000 A 
ATOM      8  N   UNL     1       2.074   5.233  20.145  0.00  0.00    +0.000 NA
ATOM      9  C   UNL     1       2.810   4.090  20.373  0.00  0.00    +0.000 A 
ATOM     10  C   UNL     1       2.593   2.987  21.215  0.00  0.00    +0.000 A 
ATOM     11  N   UNL     1       1.492   2.881  22.054  0.00  0.00    +0.000 N 
ATOM     12  N   UNL     1       3.500   1.989  21.216  0.00  0.00    +0.000 NA
ATOM     13  C   UNL     1       4.604   2.130  20.448  0.00  0.00    +0.000 A 
ATOM     14  N   UNL     1       4.937   3.152  19.635  0.00  0.00    +0.000 NA
ATOM     15  C   UNL     1       3.984   4.101  19.637  0.00  0.00    +0.000 A 
ATOM     16  N   UNL     1       3.975   5.302  18.973  0.00  0.00    +0.000 N 
ATOM     17  H   UNL     1       0.720   3.481  21.787  0.00  0.00    +0.000 HD
ATOM     18  H   UNL     1       1.289   1.923  22.309  0.00  0.00    +0.000 HD
ENDBRANCH   1  16
BRANCH   4  19
ATOM     19  O   UNL     1       7.765   6.773  17.340  0.00  0.00    +0.000 OA
ATOM     20  H   UNL     1       7.872   6.888  18.300  0.00  0.00    +0.000 HD
ENDBRANCH   4  19
BRANCH   5  21
ATOM     21  O   UNL     1       7.119   5.492  19.522  0.00  0.00    +0.000 OA
ATOM     22  H   UNL     1       7.813   4.810  19.640  0.00  0.00    +0.000 HD
ENDBRANCH   5  21
BRANCH   3  23
ATOM     23  C   UNL     1       5.788   4.397  15.206  0.00  0.00    +0.000 C 
BRANCH  23  24
ATOM     24  N   UNL     1       5.956   4.581  13.747  0.00  0.00    +0.000 NA
ATOM     25  C   UNL     1       7.360   4.715  13.358  0.00  0.00    +0.000 C 
BRANCH  24  26
ATOM     26  C   UNL     1       5.315   3.488  12.981  0.00  0.00    +0.000 C 
BRANCH  26  27
ATOM     27  C   UNL     1       6.270   2.789  12.005  0.00  0.00    +0.000 C 
BRANCH  27  28
ATOM     28  O   UNL     1       5.590   1.742  11.304  0.00  0.00    +0.000 OA
BRANCH  28  29
ATOM     29  N   UNL     1       6.461   0.567  11.310  0.00  0.00    +0.000 NA
ATOM     30  H   UNL     1       5.804  -0.167  11.041  0.00  0.00    +0.000 HD
ATOM     31  H   UNL     1       6.617   0.438  12.311  0.00  0.00    +0.000 HD
ENDBRANCH  28  29
ENDBRANCH  27  28
ENDBRANCH  26  27
ENDBRANCH  24  26
ENDBRANCH  23  24
ENDBRANCH   3  23
TORSDOF 9
ENDMDL
MODEL 7
REMARK VINA RESULT:      -7.0      2.462      6.441
REMARK  Name = 
REMARK  11 active torsions:
REMARK  status: ('A' for Active; 'I' for Inactive)
REMARK    1  A    between atoms: C_1  and  C_2
REMARK    2  A    between atoms: N_11  and  C_12
REMARK    3  A    between atoms: C_14  and  C_15
REMARK    4  A    between atoms: C_15  and  N_16
REMARK    5  A    between atoms: N_16  and  C_17
REMARK    6  A    between atoms: N_16  and  C_18
REMARK    7  A    between atoms: C_18  and  C_19
REMARK    8  A    between atoms: C_19  and  O_20
REMARK    9  A    between atoms: O_20  and  N_21
REMARK   10  A    between atoms: C_22  and  O_23
REMARK   11  A    between atoms: C_24  and  O_25
REMARK                            x       y       z     vdW  Elec       q    Type
REMARK                         _______ _______ _______ _____ _____    ______ ____
ROOT
ATOM      1  C   UNL     1       5.415   5.786  18.452  0.00  0.00    +0.000 C 
ATOM      2  O   UNL     1       5.600   4.617  19.272  0.00  0.00    +0.000 OA
ATOM      3  C   UNL     1       4.307   4.206  19.783  0.00  0.00    +0.000 C 
ATOM      4  C   UNL     1       3.295   5.264  19.322  0.00  0.00    +0.000 C 
ATOM      5  C   UNL     1       3.938   5.864  18.084  0.00  0.00    +0.000 C 
ENDROOT
BRANCH   1  16
ATOM      6  C   UNL     1       7.731   7.742  18.031  0.00  0.00    +0.000 C 
ATOM      7  C   UNL     1       7.329   6.681  17.073  0.00  0.00    +0.000 A 
ATOM      8  N   UNL     1       7.853   6.510  15.873  0.00  0.00    +0.000 NA
ATOM      9  C   UNL     1       7.117   5.499  15.294  0.00  0.00    +0.000 A 
ATOM     10  C   UNL     1       7.149   4.934  14.009  0.00  0.00    +0.000 A 
ATOM     11  N   UNL     1       8.007   5.374  13.010  0.00  0.00    +0.000 N 
ATOM     12  N   UNL     1       6.299   3.924  13.728  0.00  0.00    +0.000 NA
ATOM     13  C   UNL     1       5.420   3.546  14.683  0.00  0.00    +0.000 A 
ATOM     14  N   UNL     1       5.271   4.037  15.930  0.00  0.00    +0.000 NA
ATOM     15  C   UNL     1       6.166   5.011  16.175  0.00  0.00    +0.000 A 
ATOM     16  N   UNL     1       6.305   5.775  17.307  0.00  0.00    +0.000 N 
ATOM     17  H   UNL     1       8.803   5.893  13.360  0.00  0.00    +0.000 HD
ATOM     18  H   UNL     1       8.167   4.671  12.299  0.00  0.00    +0.000 HD
ENDBRANCH   1  16
BRANCH   4  19
ATOM     19  O   UNL     1       3.145   6.322  20.292  0.00  0.00    +0.000 OA
ATOM     20  H   UNL     1       2.419   6.099  20.899  0.00  0.00    +0.000 HD
ENDBRANCH   4  19
BRANCH   5  21
ATOM     21  O   UNL     1       3.500   7.205  17.861  0.00  0.00    +0.000 OA
ATOM     22  H   UNL     1       2.677   7.137  17.332  0.00  0.00    +0.000 HD
ENDBRANCH   5  21
BRANCH   3  23
ATOM     23  C   UNL     1       3.939   2.798  19.264  0.00  0.00    +0.000 C 
BRANCH  23  24
ATOM     24  N   UNL     1       2.617   2.687  18.608  0.00  0.00    +0.000 NA
ATOM     25  C   UNL     1       2.692   2.017  17.310  0.00  0.00    +0.000 C 
BRANCH  24  26
ATOM     26  C   UNL     1       1.630   2.008  19.478  0.00  0.00    +0.000 C 
BRANCH  26  27
ATOM     27  C   UNL     1       0.617   2.968  20.113  0.00  0.00    +0.000 C 
BRANCH  27  28
ATOM     28  O   UNL     1       1.152   3.537  21.314  0.00  0.00    +0.000 OA
BRANCH  28  29
ATOM     29  N   UNL     1       1.875   2.480  22.020  0.00  0.00    +0.000 NA
ATOM     30  H   UNL     1       2.429   2.079  21.261  0.00  0.00    +0.000 HD
ATOM     31  H   UNL     1       1.127   1.807  22.194  0.00  0.00    +0.000 HD
ENDBRANCH  28  29
ENDBRANCH  27  28
ENDBRANCH  26  27
ENDBRANCH  24  26
ENDBRANCH  23  24
ENDBRANCH   3  23
TORSDOF 9
ENDMDL
MODEL 8
REMARK VINA RESULT:      -6.9      2.511      4.248
REMARK  Name = 
REMARK  11 active torsions:
REMARK  status: ('A' for Active; 'I' for Inactive)
REMARK    1  A    between atoms: C_1  and  C_2
REMARK    2  A    between atoms: N_11  and  C_12
REMARK    3  A    between atoms: C_14  and  C_15
REMARK    4  A    between atoms: C_15  and  N_16
REMARK    5  A    between atoms: N_16  and  C_17
REMARK    6  A    between atoms: N_16  and  C_18
REMARK    7  A    between atoms: C_18  and  C_19
REMARK    8  A    between atoms: C_19  and  O_20
REMARK    9  A    between atoms: O_20  and  N_21
REMARK   10  A    between atoms: C_22  and  O_23
REMARK   11  A    between atoms: C_24  and  O_25
REMARK                            x       y       z     vdW  Elec       q    Type
REMARK                         _______ _______ _______ _____ _____    ______ ____
ROOT
ATOM      1  C   UNL     1       3.542   4.564  18.902  0.00  0.00    +0.000 C 
ATOM      2  O   UNL     1       4.817   5.040  18.431  0.00  0.00    +0.000 OA
ATOM      3  C   UNL     1       5.079   4.443  17.136  0.00  0.00    +0.000 C 
ATOM      4  C   UNL     1       3.931   3.461  16.864  0.00  0.00    +0.000 C 
ATOM      5  C   UNL     1       2.787   4.000  17.704  0.00  0.00    +0.000 C 
ENDROOT
BRANCH   1  16
ATOM      6  C   UNL     1       2.022   4.138  21.524  0.00  0.00    +0.000 C 
ATOM      7  C   UNL     1       2.086   5.420  20.777  0.00  0.00    +0.000 A 
ATOM      8  N   UNL     1       1.413   6.511  21.093  0.00  0.00    +0.000 NA
ATOM      9  C   UNL     1       1.680   7.410  20.082  0.00  0.00    +0.000 A 
ATOM     10  C   UNL     1       1.195   8.701  19.823  0.00  0.00    +0.000 A 
ATOM     11  N   UNL     1       0.249   9.329  20.624  0.00  0.00    +0.000 N 
ATOM     12  N   UNL     1       1.658   9.359  18.741  0.00  0.00    +0.000 NA
ATOM     13  C   UNL     1       2.527   8.717  17.928  0.00  0.00    +0.000 A 
ATOM     14  N   UNL     1       3.031   7.472  18.052  0.00  0.00    +0.000 NA
ATOM     15  C   UNL     1       2.570   6.875  19.165  0.00  0.00    +0.000 A 
ATOM     16  N   UNL     1       2.820   5.601  19.615  0.00  0.00    +0.000 N 
ATOM     17  H   UNL     1       0.180   8.933  21.554  0.00  0.00    +0.000 HD
ATOM     18  H   UNL     1       0.271  10.336  20.532  0.00  0.00    +0.000 HD
ENDBRANCH   1  16
BRANCH   4  19
ATOM     19  O   UNL     1       4.235   2.134  17.342  0.00  0.00    +0.000 OA
ATOM     20  H   UNL     1       4.194   1.509  16.597  0.00  0.00    +0.000 HD
ENDBRANCH   4  19
BRANCH   5  21
ATOM     21  O   UNL     1       1.871   2.967  18.072  0.00  0.00    +0.000 OA
ATOM     22  H   UNL     1       2.354   2.122  17.953  0.00  0.00    +0.000 HD
ENDBRANCH   5  21
BRANCH   3  23
ATOM     23  C   UNL     1       5.174   5.531  16.044  0.00  0.00    +0.000 C 
BRANCH  23  24
ATOM     24  N   UNL     1       6.547   5.894  15.625  0.00  0.00    +0.000 NA
ATOM     25  C   UNL     1       7.347   6.419  16.732  0.00  0.00    +0.000 C 
BRANCH  24  26
ATOM     26  C   UNL     1       7.243   4.756  14.985  0.00  0.00    +0.000 C 
BRANCH  26  27
ATOM     27  C   UNL     1       6.528   4.233  13.733  0.00  0.00    +0.000 C 
BRANCH  27  28
ATOM     28  O   UNL     1       7.289   4.537  12.559  0.00  0.00    +0.000 OA
BRANCH  28  29
ATOM     29  N   UNL     1       8.083   5.731  12.844  0.00  0.00    +0.000 NA
ATOM     30  H   UNL     1       7.414   6.292  13.373  0.00  0.00    +0.000 HD
ATOM     31  H   UNL     1       8.131   6.166  11.921  0.00  0.00    +0.000 HD
ENDBRANCH  28  29
ENDBRANCH  27  28
ENDBRANCH  26  27
ENDBRANCH  24  26
ENDBRANCH  23  24
ENDBRANCH   3  23
TORSDOF 9
ENDMDL
MODEL 9
REMARK VINA RESULT:      -6.7      2.938      4.902
REMARK  Name = 
REMARK  11 active torsions:
REMARK  status: ('A' for Active; 'I' for Inactive)
REMARK    1  A    between atoms: C_1  and  C_2
REMARK    2  A    between atoms: N_11  and  C_12
REMARK    3  A    between atoms: C_14  and  C_15
REMARK    4  A    between atoms: C_15  and  N_16
REMARK    5  A    between atoms: N_16  and  C_17
REMARK    6  A    between atoms: N_16  and  C_18
REMARK    7  A    between atoms: C_18  and  C_19
REMARK    8  A    between atoms: C_19  and  O_20
REMARK    9  A    between atoms: O_20  and  N_21
REMARK   10  A    between atoms: C_22  and  O_23
REMARK   11  A    between atoms: C_24  and  O_25
REMARK                            x       y       z     vdW  Elec       q    Type
REMARK                         _______ _______ _______ _____ _____    ______ ____
ROOT
ATOM      1  C   UNL     1       3.118   5.751  19.655  0.00  0.00    +0.000 C 
ATOM      2  O   UNL     1       4.437   5.556  19.111  0.00  0.00    +0.000 OA
ATOM      3  C   UNL     1       4.607   4.147  18.813  0.00  0.00    +0.000 C 
ATOM      4  C   UNL     1       3.342   3.436  19.312  0.00  0.00    +0.000 C 
ATOM      5  C   UNL     1       2.285   4.525  19.296  0.00  0.00    +0.000 C 
ENDROOT
BRANCH   1  16
ATOM      6  C   UNL     1       3.877   7.188  17.062  0.00  0.00    +0.000 C 
ATOM      7  C   UNL     1       2.905   7.696  18.064  0.00  0.00    +0.000 A 
ATOM      8  N   UNL     1       2.319   8.879  18.013  0.00  0.00    +0.000 NA
ATOM      9  C   UNL     1       1.594   8.976  19.182  0.00  0.00    +0.000 A 
ATOM     10  C   UNL     1       0.834  10.022  19.729  0.00  0.00    +0.000 A 
ATOM     11  N   UNL     1       0.702  11.262  19.117  0.00  0.00    +0.000 N 
ATOM     12  N   UNL     1       0.212   9.819  20.908  0.00  0.00    +0.000 NA
ATOM     13  C   UNL     1       0.400   8.634  21.532  0.00  0.00    +0.000 A 
ATOM     14  N   UNL     1       1.133   7.577  21.125  0.00  0.00    +0.000 NA
ATOM     15  C   UNL     1       1.698   7.814  19.929  0.00  0.00    +0.000 A 
ATOM     16  N   UNL     1       2.541   7.004  19.209  0.00  0.00    +0.000 N 
ATOM     17  H   UNL     1       0.918  11.250  18.128  0.00  0.00    +0.000 HD
ATOM     18  H   UNL     1      -0.125  11.759  19.422  0.00  0.00    +0.000 HD
ENDBRANCH   1  16
BRANCH   4  19
ATOM     19  O   UNL     1       3.483   2.985  20.676  0.00  0.00    +0.000 OA
ATOM     20  H   UNL     1       4.307   2.475  20.761  0.00  0.00    +0.000 HD
ENDBRANCH   4  19
BRANCH   5  21
ATOM     21  O   UNL     1       1.251   4.270  20.248  0.00  0.00    +0.000 OA
ATOM     22  H   UNL     1       1.322   3.319  20.476  0.00  0.00    +0.000 HD
ENDBRANCH   5  21
BRANCH   3  23
ATOM     23  C   UNL     1       4.825   3.933  17.298  0.00  0.00    +0.000 C 
BRANCH  23  24
ATOM     24  N   UNL     1       6.062   4.530  16.744  0.00  0.00    +0.000 NA
ATOM     25  C   UNL     1       7.159   4.543  17.712  0.00  0.00    +0.000 C 
BRANCH  24  26
ATOM     26  C   UNL     1       6.486   3.851  15.499  0.00  0.00    +0.000 C 
BRANCH  26  27
ATOM     27  C   UNL     1       6.713   4.815  14.328  0.00  0.00    +0.000 C 
BRANCH  27  28
ATOM     28  O   UNL     1       7.957   5.508  14.483  0.00  0.00    +0.000 OA
BRANCH  28  29
ATOM     29  N   UNL     1       8.436   5.862  13.148  0.00  0.00    +0.000 NA
ATOM     30  H   UNL     1       8.001   5.131  12.582  0.00  0.00    +0.000 HD
ATOM     31  H   UNL     1       9.422   5.603  13.214  0.00  0.00    +0.000 HD
ENDBRANCH  28  29
ENDBRANCH  27  28
ENDBRANCH  26  27
ENDBRANCH  24  26
ENDBRANCH  23  24
ENDBRANCH   3  23
TORSDOF 9
ENDMDL
