MODEL 1
REMARK VINA RESULT:      -6.7      0.000      0.000
REMARK  Name = 
REMARK  5 active torsions:
REMARK  status: ('A' for Active; 'I' for Inactive)
REMARK    1  A    between atoms: C_3  and  C_4
REMARK    2  A    between atoms: C_4  and  C_5
REMARK    3  A    between atoms: C_5  and  C_6
REMARK    4  A    between atoms: C_6  and  O_7
REMARK    5  A    between atoms: O_7  and  C_8
REMARK                            x       y       z     vdW  Elec       q    Type
REMARK                         _______ _______ _______ _____ _____    ______ ____
ROOT
ATOM      1  O   UNL     1       2.290   6.118  19.147  0.00  0.00    +0.000 OA
ENDROOT
BRANCH   1   2
ATOM      2  C   UNL     1       3.541   5.744  18.722  0.00  0.00    +0.000 A 
ATOM      3  C   UNL     1       4.673   5.608  19.547  0.00  0.00    +0.000 A 
ATOM      4  C   UNL     1       5.907   5.216  19.017  0.00  0.00    +0.000 A 
ATOM      5  C   UNL     1       5.989   4.953  17.663  0.00  0.00    +0.000 A 
ATOM      6  C   UNL     1       4.872   5.093  16.835  0.00  0.00    +0.000 A 
ATOM      7  C   UNL     1       3.648   5.495  17.349  0.00  0.00    +0.000 A 
ATOM      8  C   UNL     1       5.231   4.801  15.411  0.00  0.00    +0.000 C 
ATOM      9  C   UNL     1       6.541   4.019  15.590  0.00  0.00    +0.000 C 
ATOM     10  C   UNL     1       7.194   4.550  16.874  0.00  0.00    +0.000 C 
ENDBRANCH   1   2
BRANCH   1  11
ATOM     11  C   UNL     1       1.943   5.753  20.483  0.00  0.00    +0.000 C 
BRANCH  11  12
ATOM     12  C   UNL     1       1.188   4.428  20.465  0.00  0.00    +0.000 C 
BRANCH  12  13
ATOM     13  C   UNL     1       2.030   3.329  21.111  0.00  0.00    +0.000 C 
BRANCH  13  16
ATOM     14  C   UNL     1       3.400   1.659  18.287  0.00  0.00    +0.000 A 
ATOM     15  N   UNL     1       2.419   2.298  18.882  0.00  0.00    +0.000 NA
ATOM     16  C   UNL     1       2.891   2.614  20.134  0.00  0.00    +0.000 A 
ATOM     17  C   UNL     1       4.181   2.152  20.288  0.00  0.00    +0.000 A 
ATOM     18  N   UNL     1       4.490   1.549  19.101  0.00  0.00    +0.000 N 
ATOM     19  H   UNL     1       5.362   1.095  18.865  0.00  0.00    +0.000 HD
ENDBRANCH  13  16
ENDBRANCH  12  13
ENDBRANCH  11  12
ENDBRANCH   1  11
TORSDOF 5
ENDMDL
MODEL 2
REMARK VINA RESULT:      -6.6      2.510      5.203
REMARK  Name = 
REMARK  5 active torsions:
REMARK  status: ('A' for Active; 'I' for Inactive)
REMARK    1  A    between atoms: C_3  and  C_4
REMARK    2  A    between atoms: C_4  and  C_5
REMARK    3  A    between atoms: C_5  and  C_6
REMARK    4  A    between atoms: C_6  and  O_7
REMARK    5  A    between atoms: O_7  and  C_8
REMARK                            x       y       z     vdW  Elec       q    Type
REMARK                         _______ _______ _______ _____ _____    ______ ____
ROOT
ATOM      1  O   UNL     1       4.116   7.240  18.238  0.00  0.00    +0.000 OA
ENDROOT
BRANCH   1   2
ATOM      2  C   UNL     1       3.284   6.298  18.793  0.00  0.00    +0.000 A 
ATOM      3  C   UNL     1       2.581   6.447  20.003  0.00  0.00    +0.000 A 
ATOM      4  C   UNL     1       1.751   5.427  20.483  0.00  0.00    +0.000 A 
ATOM      5  C   UNL     1       1.627   4.272  19.736  0.00  0.00    +0.000 A 
ATOM      6  C   UNL     1       2.328   4.113  18.538  0.00  0.00    +0.000 A 
ATOM      7  C   UNL     1       3.164   5.111  18.061  0.00  0.00    +0.000 A 
ATOM      8  C   UNL     1       2.066   2.761  17.949  0.00  0.00    +0.000 C 
ATOM      9  C   UNL     1       0.778   2.363  18.685  0.00  0.00    +0.000 C 
ATOM     10  C   UNL     1       0.829   3.049  20.058  0.00  0.00    +0.000 C 
ENDBRANCH   1   2
BRANCH   1  11
ATOM     11  C   UNL     1       4.769   6.866  17.024  0.00  0.00    +0.000 C 
BRANCH  11  12
ATOM     12  C   UNL     1       6.278   6.999  17.202  0.00  0.00    +0.000 C 
BRANCH  12  13
ATOM     13  C   UNL     1       6.940   5.623  17.168  0.00  0.00    +0.000 C 
BRANCH  13  16
ATOM     14  C   UNL     1       7.027   4.647  13.750  0.00  0.00    +0.000 A 
ATOM     15  N   UNL     1       7.371   5.457  14.725  0.00  0.00    +0.000 NA
ATOM     16  C   UNL     1       6.785   4.942  15.857  0.00  0.00    +0.000 A 
ATOM     17  C   UNL     1       6.075   3.801  15.549  0.00  0.00    +0.000 A 
ATOM     18  N   UNL     1       6.242   3.627  14.204  0.00  0.00    +0.000 N 
ATOM     19  H   UNL     1       5.853   2.884  13.639  0.00  0.00    +0.000 HD
ENDBRANCH  13  16
ENDBRANCH  12  13
ENDBRANCH  11  12
ENDBRANCH   1  11
TORSDOF 5
ENDMDL
MODEL 3
REMARK VINA RESULT:      -6.6      0.764      1.709
REMARK  Name = 
REMARK  5 active torsions:
REMARK  status: ('A' for Active; 'I' for Inactive)
REMARK    1  A    between atoms: C_3  and  C_4
REMARK    2  A    between atoms: C_4  and  C_5
REMARK    3  A    between atoms: C_5  and  C_6
REMARK    4  A    between atoms: C_6  and  O_7
REMARK    5  A    between atoms: O_7  and  C_8
REMARK                            x       y       z     vdW  Elec       q    Type
REMARK                         _______ _______ _______ _____ _____    ______ ____
ROOT
ATOM      1  O   UNL     1       2.069   6.221  19.743  0.00  0.00    +0.000 OA
ENDROOT
BRANCH   1   2
ATOM      2  C   UNL     1       3.092   5.762  18.951  0.00  0.00    +0.000 A 
ATOM      3  C   UNL     1       2.944   5.240  17.652  0.00  0.00    +0.000 A 
ATOM      4  C   UNL     1       4.054   4.802  16.921  0.00  0.00    +0.000 A 
ATOM      5  C   UNL     1       5.305   4.903  17.499  0.00  0.00    +0.000 A 
ATOM      6  C   UNL     1       5.460   5.413  18.791  0.00  0.00    +0.000 A 
ATOM      7  C   UNL     1       4.365   5.835  19.529  0.00  0.00    +0.000 A 
ATOM      8  C   UNL     1       6.898   5.369  19.205  0.00  0.00    +0.000 C 
ATOM      9  C   UNL     1       7.595   5.233  17.842  0.00  0.00    +0.000 C 
ATOM     10  C   UNL     1       6.620   4.478  16.927  0.00  0.00    +0.000 C 
ENDBRANCH   1   2
BRANCH   1  11
ATOM     11  C   UNL     1       1.716   5.398  20.856  0.00  0.00    +0.000 C 
BRANCH  11  12
ATOM     12  C   UNL     1       0.989   4.155  20.353  0.00  0.00    +0.000 C 
BRANCH  12  13
ATOM     13  C   UNL     1       1.619   2.896  20.946  0.00  0.00    +0.000 C 
BRANCH  13  16
ATOM     14  C   UNL     1       3.744   1.476  18.474  0.00  0.00    +0.000 A 
ATOM     15  N   UNL     1       2.556   1.838  18.899  0.00  0.00    +0.000 NA
ATOM     16  C   UNL     1       2.762   2.392  20.141  0.00  0.00    +0.000 A 
ATOM     17  C   UNL     1       4.102   2.357  20.462  0.00  0.00    +0.000 A 
ATOM     18  N   UNL     1       4.713   1.773  19.388  0.00  0.00    +0.000 N 
ATOM     19  H   UNL     1       5.701   1.586  19.286  0.00  0.00    +0.000 HD
ENDBRANCH  13  16
ENDBRANCH  12  13
ENDBRANCH  11  12
ENDBRANCH   1  11
TORSDOF 5
ENDMDL
MODEL 4
REMARK VINA RESULT:      -6.6      2.576      5.365
REMARK  Name = 
REMARK  5 active torsions:
REMARK  status: ('A' for Active; 'I' for Inactive)
REMARK    1  A    between atoms: C_3  and  C_4
REMARK    2  A    between atoms: C_4  and  C_5
REMARK    3  A    between atoms: C_5  and  C_6
REMARK    4  A    between atoms: C_6  and  O_7
REMARK    5  A    between atoms: O_7  and  C_8
REMARK                            x       y       z     vdW  Elec       q    Type
REMARK                         _______ _______ _______ _____ _____    ______ ____
ROOT
ATOM      1  O   UNL     1       5.296   5.973  18.323  0.00  0.00    +0.000 OA
ENDROOT
BRANCH   1   2
ATOM      2  C   UNL     1       4.153   5.380  18.801  0.00  0.00    +0.000 A 
ATOM      3  C   UNL     1       3.332   5.899  19.819  0.00  0.00    +0.000 A 
ATOM      4  C   UNL     1       2.181   5.219  20.233  0.00  0.00    +0.000 A 
ATOM      5  C   UNL     1       1.860   4.028  19.611  0.00  0.00    +0.000 A 
ATOM      6  C   UNL     1       2.674   3.501  18.604  0.00  0.00    +0.000 A 
ATOM      7  C   UNL     1       3.824   4.160  18.197  0.00  0.00    +0.000 A 
ATOM      8  C   UNL     1       2.141   2.184  18.130  0.00  0.00    +0.000 C 
ATOM      9  C   UNL     1       0.690   2.255  18.630  0.00  0.00    +0.000 C 
ATOM     10  C   UNL     1       0.707   3.119  19.899  0.00  0.00    +0.000 C 
ENDBRANCH   1   2
BRANCH   1  11
ATOM     11  C   UNL     1       6.517   5.585  18.952  0.00  0.00    +0.000 C 
BRANCH  11  12
ATOM     12  C   UNL     1       7.479   5.046  17.897  0.00  0.00    +0.000 C 
BRANCH  12  13
ATOM     13  C   UNL     1       7.349   5.847  16.603  0.00  0.00    +0.000 C 
BRANCH  13  16
ATOM     14  C   UNL     1       6.909   4.405  13.384  0.00  0.00    +0.000 A 
ATOM     15  N   UNL     1       7.422   5.320  14.174  0.00  0.00    +0.000 NA
ATOM     16  C   UNL     1       6.982   5.003  15.438  0.00  0.00    +0.000 A 
ATOM     17  C   UNL     1       6.191   3.874  15.398  0.00  0.00    +0.000 A 
ATOM     18  N   UNL     1       6.157   3.506  14.082  0.00  0.00    +0.000 N 
ATOM     19  H   UNL     1       5.661   2.717  13.690  0.00  0.00    +0.000 HD
ENDBRANCH  13  16
ENDBRANCH  12  13
ENDBRANCH  11  12
ENDBRANCH   1  11
TORSDOF 5
ENDMDL
MODEL 5
REMARK VINA RESULT:      -6.5      2.459      5.456
REMARK  Name = 
REMARK  5 active torsions:
REMARK  status: ('A' for Active; 'I' for Inactive)
REMARK    1  A    between atoms: C_3  and  C_4
REMARK    2  A    between atoms: C_4  and  C_5
REMARK    3  A    between atoms: C_5  and  C_6
REMARK    4  A    between atoms: C_6  and  O_7
REMARK    5  A    between atoms: O_7  and  C_8
REMARK                            x       y       z     vdW  Elec       q    Type
REMARK                         _______ _______ _______ _____ _____    ______ ____
ROOT
ATOM      1  O   UNL     1       4.125   5.989  17.046  0.00  0.00    +0.000 OA
ENDROOT
BRANCH   1   2
ATOM      2  C   UNL     1       3.391   4.974  17.609  0.00  0.00    +0.000 A 
ATOM      3  C   UNL     1       3.148   3.721  17.018  0.00  0.00    +0.000 A 
ATOM      4  C   UNL     1       2.389   2.748  17.679  0.00  0.00    +0.000 A 
ATOM      5  C   UNL     1       1.890   3.042  18.933  0.00  0.00    +0.000 A 
ATOM      6  C   UNL     1       2.119   4.287  19.524  0.00  0.00    +0.000 A 
ATOM      7  C   UNL     1       2.858   5.262  18.871  0.00  0.00    +0.000 A 
ATOM      8  C   UNL     1       1.433   4.375  20.852  0.00  0.00    +0.000 C 
ATOM      9  C   UNL     1       1.198   2.889  21.162  0.00  0.00    +0.000 C 
ATOM     10  C   UNL     1       1.037   2.181  19.810  0.00  0.00    +0.000 C 
ENDBRANCH   1   2
BRANCH   1  11
ATOM     11  C   UNL     1       5.248   6.447  17.799  0.00  0.00    +0.000 C 
BRANCH  11  12
ATOM     12  C   UNL     1       6.162   5.267  18.111  0.00  0.00    +0.000 C 
BRANCH  12  13
ATOM     13  C   UNL     1       7.363   5.262  17.167  0.00  0.00    +0.000 C 
BRANCH  13  16
ATOM     14  C   UNL     1       6.995   4.693  13.677  0.00  0.00    +0.000 A 
ATOM     15  N   UNL     1       7.473   5.384  14.685  0.00  0.00    +0.000 NA
ATOM     16  C   UNL     1       7.032   4.739  15.817  0.00  0.00    +0.000 A 
ATOM     17  C   UNL     1       6.275   3.639  15.473  0.00  0.00    +0.000 A 
ATOM     18  N   UNL     1       6.264   3.623  14.106  0.00  0.00    +0.000 N 
ATOM     19  H   UNL     1       5.796   2.951  13.515  0.00  0.00    +0.000 HD
ENDBRANCH  13  16
ENDBRANCH  12  13
ENDBRANCH  11  12
ENDBRANCH   1  11
TORSDOF 5
ENDMDL
MODEL 6
REMARK VINA RESULT:      -6.5      2.810      5.607
REMARK  Name = 
REMARK  5 active torsions:
REMARK  status: ('A' for Active; 'I' for Inactive)
REMARK    1  A    between atoms: C_3  and  C_4
REMARK    2  A    between atoms: C_4  and  C_5
REMARK    3  A    between atoms: C_5  and  C_6
REMARK    4  A    between atoms: C_6  and  O_7
REMARK    5  A    between atoms: O_7  and  C_8
REMARK                            x       y       z     vdW  Elec       q    Type
REMARK                         _______ _______ _______ _____ _____    ______ ____
ROOT
ATOM      1  O   UNL     1       4.468   5.628  16.362  0.00  0.00    +0.000 OA
ENDROOT
BRANCH   1   2
ATOM      2  C   UNL     1       3.665   5.391  17.451  0.00  0.00    +0.000 A 
ATOM      3  C   UNL     1       3.355   6.330  18.452  0.00  0.00    +0.000 A 
ATOM      4  C   UNL     1       2.519   5.992  19.523  0.00  0.00    +0.000 A 
ATOM      5  C   UNL     1       1.994   4.715  19.570  0.00  0.00    +0.000 A 
ATOM      6  C   UNL     1       2.303   3.774  18.585  0.00  0.00    +0.000 A 
ATOM      7  C   UNL     1       3.142   4.095  17.528  0.00  0.00    +0.000 A 
ATOM      8  C   UNL     1       1.656   2.459  18.890  0.00  0.00    +0.000 C 
ATOM      9  C   UNL     1       0.566   2.889  19.884  0.00  0.00    +0.000 C 
ATOM     10  C   UNL     1       1.109   4.122  20.620  0.00  0.00    +0.000 C 
ENDBRANCH   1   2
BRANCH   1  11
ATOM     11  C   UNL     1       5.041   4.478  15.740  0.00  0.00    +0.000 C 
BRANCH  11  12
ATOM     12  C   UNL     1       6.537   4.704  15.543  0.00  0.00    +0.000 C 
BRANCH  12  13
ATOM     13  C   UNL     1       7.281   4.510  16.862  0.00  0.00    +0.000 C 
BRANCH  13  16
ATOM     14  C   UNL     1       7.939   7.905  17.687  0.00  0.00    +0.000 A 
ATOM     15  N   UNL     1       7.569   6.980  16.832  0.00  0.00    +0.000 NA
ATOM     16  C   UNL     1       7.616   5.795  17.528  0.00  0.00    +0.000 A 
ATOM     17  C   UNL     1       8.024   6.021  18.826  0.00  0.00    +0.000 A 
ATOM     18  N   UNL     1       8.223   7.370  18.911  0.00  0.00    +0.000 N 
ATOM     19  H   UNL     1       8.531   7.884  19.725  0.00  0.00    +0.000 HD
ENDBRANCH  13  16
ENDBRANCH  12  13
ENDBRANCH  11  12
ENDBRANCH   1  11
TORSDOF 5
ENDMDL
MODEL 7
REMARK VINA RESULT:      -6.5      1.285      1.974
REMARK  Name = 
REMARK  5 active torsions:
REMARK  status: ('A' for Active; 'I' for Inactive)
REMARK    1  A    between atoms: C_3  and  C_4
REMARK    2  A    between atoms: C_4  and  C_5
REMARK    3  A    between atoms: C_5  and  C_6
REMARK    4  A    between atoms: C_6  and  O_7
REMARK    5  A    between atoms: O_7  and  C_8
REMARK                            x       y       z     vdW  Elec       q    Type
REMARK                         _______ _______ _______ _____ _____    ______ ____
ROOT
ATOM      1  O   UNL     1       2.059   5.729  18.961  0.00  0.00    +0.000 OA
ENDROOT
BRANCH   1   2
ATOM      2  C   UNL     1       3.307   6.001  18.456  0.00  0.00    +0.000 A 
ATOM      3  C   UNL     1       3.567   6.676  17.249  0.00  0.00    +0.000 A 
ATOM      4  C   UNL     1       4.879   6.909  16.822  0.00  0.00    +0.000 A 
ATOM      5  C   UNL     1       5.919   6.471  17.619  0.00  0.00    +0.000 A 
ATOM      6  C   UNL     1       5.670   5.792  18.815  0.00  0.00    +0.000 A 
ATOM      7  C   UNL     1       4.374   5.544  19.239  0.00  0.00    +0.000 A 
ATOM      8  C   UNL     1       6.955   5.379  19.464  0.00  0.00    +0.000 C 
ATOM      9  C   UNL     1       7.954   6.310  18.760  0.00  0.00    +0.000 C 
ATOM     10  C   UNL     1       7.388   6.580  17.359  0.00  0.00    +0.000 C 
ENDBRANCH   1   2
BRANCH   1  11
ATOM     11  C   UNL     1       1.997   5.419  20.353  0.00  0.00    +0.000 C 
BRANCH  11  12
ATOM     12  C   UNL     1       1.035   4.254  20.567  0.00  0.00    +0.000 C 
BRANCH  12  13
ATOM     13  C   UNL     1       1.782   3.047  21.132  0.00  0.00    +0.000 C 
BRANCH  13  16
ATOM     14  C   UNL     1       3.481   1.636  18.346  0.00  0.00    +0.000 A 
ATOM     15  N   UNL     1       2.394   2.104  18.914  0.00  0.00    +0.000 NA
ATOM     16  C   UNL     1       2.774   2.486  20.179  0.00  0.00    +0.000 A 
ATOM     17  C   UNL     1       4.117   2.239  20.368  0.00  0.00    +0.000 A 
ATOM     18  N   UNL     1       4.552   1.699  19.190  0.00  0.00    +0.000 N 
ATOM     19  H   UNL     1       5.492   1.394  18.978  0.00  0.00    +0.000 HD
ENDBRANCH  13  16
ENDBRANCH  12  13
ENDBRANCH  11  12
ENDBRANCH   1  11
TORSDOF 5
ENDMDL
MODEL 8
REMARK VINA RESULT:      -6.4      2.951      5.848
REMARK  Name = 
REMARK  5 active torsions:
REMARK  status: ('A' for Active; 'I' for Inactive)
REMARK    1  A    between atoms: C_3  and  C_4
REMARK    2  A    between atoms: C_4  and  C_5
REMARK    3  A    between atoms: C_5  and  C_6
REMARK    4  A    between atoms: C_6  and  O_7
REMARK    5  A    between atoms: O_7  and  C_8
REMARK                            x       y       z     vdW  Elec       q    Type
REMARK                         _______ _______ _______ _____ _____    ______ ____
ROOT
ATOM      1  O   UNL     1       4.496   5.529  16.533  0.00  0.00    +0.000 OA
ENDROOT
BRANCH   1   2
ATOM      2  C   UNL     1       3.637   4.728  17.244  0.00  0.00    +0.000 A 
ATOM      3  C   UNL     1       3.236   3.432  16.869  0.00  0.00    +0.000 A 
ATOM      4  C   UNL     1       2.357   2.691  17.667  0.00  0.00    +0.000 A 
ATOM      5  C   UNL     1       1.898   3.257  18.841  0.00  0.00    +0.000 A 
ATOM      6  C   UNL     1       2.284   4.546  19.217  0.00  0.00    +0.000 A 
ATOM      7  C   UNL     1       3.143   5.294  18.425  0.00  0.00    +0.000 A 
ATOM      8  C   UNL     1       1.613   4.947  20.494  0.00  0.00    +0.000 C 
ATOM      9  C   UNL     1       1.188   3.579  21.047  0.00  0.00    +0.000 C 
ATOM     10  C   UNL     1       0.940   2.674  19.831  0.00  0.00    +0.000 C 
ENDBRANCH   1   2
BRANCH   1  11
ATOM     11  C   UNL     1       5.156   4.918  15.424  0.00  0.00    +0.000 C 
BRANCH  11  12
ATOM     12  C   UNL     1       6.665   4.981  15.637  0.00  0.00    +0.000 C 
BRANCH  12  13
ATOM     13  C   UNL     1       6.995   4.885  17.125  0.00  0.00    +0.000 C 
BRANCH  13  16
ATOM     14  C   UNL     1       8.018   8.240  17.704  0.00  0.00    +0.000 A 
ATOM     15  N   UNL     1       7.467   7.320  16.947  0.00  0.00    +0.000 NA
ATOM     16  C   UNL     1       7.514   6.160  17.684  0.00  0.00    +0.000 A 
ATOM     17  C   UNL     1       8.107   6.395  18.906  0.00  0.00    +0.000 A 
ATOM     18  N   UNL     1       8.419   7.726  18.903  0.00  0.00    +0.000 N 
ATOM     19  H   UNL     1       8.872   8.240  19.646  0.00  0.00    +0.000 HD
ENDBRANCH  13  16
ENDBRANCH  12  13
ENDBRANCH  11  12
ENDBRANCH   1  11
TORSDOF 5
ENDMDL
MODEL 9
REMARK VINA RESULT:      -6.4      2.829      5.397
REMARK  Name = 
REMARK  5 active torsions:
REMARK  status: ('A' for Active; 'I' for Inactive)
REMARK    1  A    between atoms: C_3  and  C_4
REMARK    2  A    between atoms: C_4  and  C_5
REMARK    3  A    between atoms: C_5  and  C_6
REMARK    4  A    between atoms: C_6  and  O_7
REMARK    5  A    between atoms: O_7  and  C_8
REMARK                            x       y       z     vdW  Elec       q    Type
REMARK                         _______ _______ _______ _____ _____    ______ ____
ROOT
ATOM      1  O   UNL     1       6.651   5.195  19.706  0.00  0.00    +0.000 OA
ENDROOT
BRANCH   1   2
ATOM      2  C   UNL     1       5.360   4.991  19.286  0.00  0.00    +0.000 A 
ATOM      3  C   UNL     1       4.507   5.983  18.767  0.00  0.00    +0.000 A 
ATOM      4  C   UNL     1       3.205   5.672  18.360  0.00  0.00    +0.000 A 
ATOM      5  C   UNL     1       2.776   4.363  18.467  0.00  0.00    +0.000 A 
ATOM      6  C   UNL     1       3.614   3.373  18.988  0.00  0.00    +0.000 A 
ATOM      7  C   UNL     1       4.900   3.674  19.408  0.00  0.00    +0.000 A 
ATOM      8  C   UNL     1       2.902   2.057  19.048  0.00  0.00    +0.000 C 
ATOM      9  C   UNL     1       1.746   2.301  18.065  0.00  0.00    +0.000 C 
ATOM     10  C   UNL     1       1.432   3.803  18.125  0.00  0.00    +0.000 C 
ENDBRANCH   1   2
BRANCH   1  11
ATOM     11  C   UNL     1       7.576   5.633  18.710  0.00  0.00    +0.000 C 
BRANCH  11  12
ATOM     12  C   UNL     1       7.410   4.781  17.456  0.00  0.00    +0.000 C 
BRANCH  12  13
ATOM     13  C   UNL     1       6.993   5.653  16.274  0.00  0.00    +0.000 C 
BRANCH  13  16
ATOM     14  C   UNL     1       7.112   4.417  12.942  0.00  0.00    +0.000 A 
ATOM     15  N   UNL     1       7.466   5.286  13.860  0.00  0.00    +0.000 NA
ATOM     16  C   UNL     1       6.839   4.880  15.014  0.00  0.00    +0.000 A 
ATOM     17  C   UNL     1       6.095   3.743  14.778  0.00  0.00    +0.000 A 
ATOM     18  N   UNL     1       6.282   3.461  13.454  0.00  0.00    +0.000 N 
ATOM     19  H   UNL     1       5.877   2.691  12.939  0.00  0.00    +0.000 HD
ENDBRANCH  13  16
ENDBRANCH  12  13
ENDBRANCH  11  12
ENDBRANCH   1  11
TORSDOF 5
ENDMDL
