MODEL 1
REMARK VINA RESULT:      -7.3      0.000      0.000
REMARK  Name = 
REMARK  8 active torsions:
REMARK  status: ('A' for Active; 'I' for Inactive)
REMARK    1  A    between atoms: C_1  and  O_2
REMARK    2  A    between atoms: O_2  and  C_3
REMARK    3  A    between atoms: C_6  and  C_7
REMARK    4  A    between atoms: C_9  and  N_10
REMARK    5  A    between atoms: C_16  and  O_17
REMARK    6  A    between atoms: C_19  and  C_20
REMARK    7  A    between atoms: C_23  and  O_24
REMARK    8  A    between atoms: O_24  and  C_25
REMARK                            x       y       z     vdW  Elec       q    Type
REMARK                         _______ _______ _______ _____ _____    ______ ____
ROOT
ATOM      1  C   UNL     1       0.973  10.662  18.566  0.00  0.00    +0.000 C 
ATOM      2  C   UNL     1       2.112  11.673  18.275  0.00  0.00    +0.000 C 
ATOM      3  C   UNL     1       1.968  12.988  19.068  0.00  0.00    +0.000 C 
ATOM      4  C   UNL     1       0.632  13.649  18.616  0.00  0.00    +0.000 C 
ATOM      5  C   UNL     1      -0.522  12.627  18.688  0.00  0.00    +0.000 C 
ATOM      6  C   UNL     1      -0.086  11.363  19.480  0.00  0.00    +0.000 C 
ATOM      7  C   UNL     1       0.553  11.761  20.840  0.00  0.00    +0.000 C 
ATOM      8  C   UNL     1       1.784  12.659  20.587  0.00  0.00    +0.000 C 
ENDROOT
BRANCH   1  12
ATOM      9  C   UNL     1       2.547   6.694  19.443  0.00  0.00    +0.000 A 
ATOM     10  C   UNL     1       1.831   7.392  20.417  0.00  0.00    +0.000 A 
ATOM     11  C   UNL     1       1.314   8.670  20.163  0.00  0.00    +0.000 A 
ATOM     12  C   UNL     1       1.528   9.289  18.929  0.00  0.00    +0.000 A 
ATOM     13  C   UNL     1       2.228   8.554  17.950  0.00  0.00    +0.000 A 
ATOM     14  C   UNL     1       2.755   7.289  18.206  0.00  0.00    +0.000 A 
BRANCH   9  16
ATOM     15  C   UNL     1       2.230   4.778  20.787  0.00  0.00    +0.000 C 
ATOM     16  O   UNL     1       3.006   5.457  19.801  0.00  0.00    +0.000 OA
ENDBRANCH   9  16
ENDBRANCH   1  12
BRANCH   7  17
ATOM     17  C   UNL     1      -0.452  12.299  21.858  0.00  0.00    +0.000 A 
ATOM     18  C   UNL     1      -1.474  11.465  22.332  0.00  0.00    +0.000 A 
ATOM     19  C   UNL     1      -2.443  11.950  23.221  0.00  0.00    +0.000 A 
ATOM     20  C   UNL     1      -2.413  13.274  23.657  0.00  0.00    +0.000 A 
ATOM     21  C   UNL     1      -1.405  14.112  23.195  0.00  0.00    +0.000 A 
ATOM     22  C   UNL     1      -0.430  13.623  22.319  0.00  0.00    +0.000 A 
BRANCH  20  23
ATOM     23  O   UNL     1      -3.427  13.644  24.497  0.00  0.00    +0.000 OA
ATOM     24  C   UNL     1      -4.477  12.694  24.657  0.00  0.00    +0.000 C 
ENDBRANCH  20  23
ENDBRANCH   7  17
BRANCH   3  25
ATOM     25  N   UNL     1       3.140  13.887  18.902  0.00  0.00    +0.000 NA
ATOM     26  C   UNL     1       3.650  14.557  20.108  0.00  0.00    +0.000 C 
ATOM     27  C   UNL     1       3.028  15.939  20.128  0.00  0.00    +0.000 C 
ATOM     28  C   UNL     1       2.876  16.294  18.665  0.00  0.00    +0.000 C 
ATOM     29  C   UNL     1       2.978  14.972  17.911  0.00  0.00    +0.000 C 
ENDBRANCH   3  25
BRANCH   5  30
ATOM     30  O   UNL     1      -1.694  13.256  19.184  0.00  0.00    +0.000 OA
ATOM     31  H   UNL     1      -2.389  13.218  18.503  0.00  0.00    +0.000 HD
ENDBRANCH   5  30
TORSDOF 6
ENDMDL
MODEL 2
REMARK VINA RESULT:      -7.2      0.510      1.070
REMARK  Name = 
REMARK  8 active torsions:
REMARK  status: ('A' for Active; 'I' for Inactive)
REMARK    1  A    between atoms: C_1  and  O_2
REMARK    2  A    between atoms: O_2  and  C_3
REMARK    3  A    between atoms: C_6  and  C_7
REMARK    4  A    between atoms: C_9  and  N_10
REMARK    5  A    between atoms: C_16  and  O_17
REMARK    6  A    between atoms: C_19  and  C_20
REMARK    7  A    between atoms: C_23  and  O_24
REMARK    8  A    between atoms: O_24  and  C_25
REMARK                            x       y       z     vdW  Elec       q    Type
REMARK                         _______ _______ _______ _____ _____    ______ ____
ROOT
ATOM      1  C   UNL     1       0.933  10.766  18.590  0.00  0.00    +0.000 C 
ATOM      2  C   UNL     1       2.092  11.760  18.322  0.00  0.00    +0.000 C 
ATOM      3  C   UNL     1       1.945  13.083  19.100  0.00  0.00    +0.000 C 
ATOM      4  C   UNL     1       0.630  13.758  18.605  0.00  0.00    +0.000 C 
ATOM      5  C   UNL     1      -0.539  12.752  18.655  0.00  0.00    +0.000 C 
ATOM      6  C   UNL     1      -0.141  11.489  19.469  0.00  0.00    +0.000 C 
ATOM      7  C   UNL     1       0.466  11.891  20.843  0.00  0.00    +0.000 C 
ATOM      8  C   UNL     1       1.715  12.770  20.615  0.00  0.00    +0.000 C 
ENDROOT
BRANCH   1  12
ATOM      9  C   UNL     1       2.426   6.785  19.543  0.00  0.00    +0.000 A 
ATOM     10  C   UNL     1       1.710   7.509  20.497  0.00  0.00    +0.000 A 
ATOM     11  C   UNL     1       1.219   8.791  20.218  0.00  0.00    +0.000 A 
ATOM     12  C   UNL     1       1.459   9.389  18.980  0.00  0.00    +0.000 A 
ATOM     13  C   UNL     1       2.160   8.629  18.020  0.00  0.00    +0.000 A 
ATOM     14  C   UNL     1       2.662   7.359  18.301  0.00  0.00    +0.000 A 
BRANCH   9  16
ATOM     15  C   UNL     1       2.025   4.868  20.862  0.00  0.00    +0.000 C 
ATOM     16  O   UNL     1       2.859   5.546  19.925  0.00  0.00    +0.000 OA
ENDBRANCH   9  16
ENDBRANCH   1  12
BRANCH   7  17
ATOM     17  C   UNL     1      -0.559  12.451  21.828  0.00  0.00    +0.000 A 
ATOM     18  C   UNL     1      -0.379  13.735  22.362  0.00  0.00    +0.000 A 
ATOM     19  C   UNL     1      -1.271  14.249  23.312  0.00  0.00    +0.000 A 
ATOM     20  C   UNL     1      -2.362  13.498  23.748  0.00  0.00    +0.000 A 
ATOM     21  C   UNL     1      -2.553  12.223  23.226  0.00  0.00    +0.000 A 
ATOM     22  C   UNL     1      -1.669  11.716  22.268  0.00  0.00    +0.000 A 
BRANCH  20  23
ATOM     23  O   UNL     1      -3.146  14.088  24.700  0.00  0.00    +0.000 OA
ATOM     24  C   UNL     1      -2.545  15.161  25.420  0.00  0.00    +0.000 C 
ENDBRANCH  20  23
ENDBRANCH   7  17
BRANCH   3  25
ATOM     25  N   UNL     1       3.133  13.965  18.958  0.00  0.00    +0.000 NA
ATOM     26  C   UNL     1       3.614  14.646  20.170  0.00  0.00    +0.000 C 
ATOM     27  C   UNL     1       3.009  16.036  20.151  0.00  0.00    +0.000 C 
ATOM     28  C   UNL     1       2.907  16.372  18.679  0.00  0.00    +0.000 C 
ATOM     29  C   UNL     1       3.016  15.038  17.947  0.00  0.00    +0.000 C 
ENDBRANCH   3  25
BRANCH   5  30
ATOM     30  O   UNL     1      -1.715  13.401  19.114  0.00  0.00    +0.000 OA
ATOM     31  H   UNL     1      -2.484  13.040  18.639  0.00  0.00    +0.000 HD
ENDBRANCH   5  30
TORSDOF 6
ENDMDL
MODEL 3
REMARK VINA RESULT:      -7.2      2.696      4.700
REMARK  Name = 
REMARK  8 active torsions:
REMARK  status: ('A' for Active; 'I' for Inactive)
REMARK    1  A    between atoms: C_1  and  O_2
REMARK    2  A    between atoms: O_2  and  C_3
REMARK    3  A    between atoms: C_6  and  C_7
REMARK    4  A    between atoms: C_9  and  N_10
REMARK    5  A    between atoms: C_16  and  O_17
REMARK    6  A    between atoms: C_19  and  C_20
REMARK    7  A    between atoms: C_23  and  O_24
REMARK    8  A    between atoms: O_24  and  C_25
REMARK                            x       y       z     vdW  Elec       q    Type
REMARK                         _______ _______ _______ _____ _____    ______ ____
ROOT
ATOM      1  C   UNL     1       1.145  11.017  19.286  0.00  0.00    +0.000 C 
ATOM      2  C   UNL     1       1.067  11.414  20.782  0.00  0.00    +0.000 C 
ATOM      3  C   UNL     1      -0.270  12.083  21.161  0.00  0.00    +0.000 C 
ATOM      4  C   UNL     1      -0.375  13.394  20.325  0.00  0.00    +0.000 C 
ATOM      5  C   UNL     1      -0.105  13.102  18.834  0.00  0.00    +0.000 C 
ATOM      6  C   UNL     1      -0.128  11.571  18.563  0.00  0.00    +0.000 C 
ATOM      7  C   UNL     1      -1.411  10.928  19.159  0.00  0.00    +0.000 C 
ATOM      8  C   UNL     1      -1.454  11.180  20.682  0.00  0.00    +0.000 C 
ENDROOT
BRANCH   1  12
ATOM      9  C   UNL     1       2.372   6.847  18.969  0.00  0.00    +0.000 A 
ATOM     10  C   UNL     1       2.522   7.704  17.878  0.00  0.00    +0.000 A 
ATOM     11  C   UNL     1       2.135   9.049  17.951  0.00  0.00    +0.000 A 
ATOM     12  C   UNL     1       1.563   9.560  19.118  0.00  0.00    +0.000 A 
ATOM     13  C   UNL     1       1.448   8.685  20.219  0.00  0.00    +0.000 A 
ATOM     14  C   UNL     1       1.818   7.343  20.142  0.00  0.00    +0.000 A 
BRANCH   9  16
ATOM     15  C   UNL     1       4.147   5.295  19.101  0.00  0.00    +0.000 C 
ATOM     16  O   UNL     1       2.781   5.556  18.785  0.00  0.00    +0.000 OA
ENDBRANCH   9  16
ENDBRANCH   1  12
BRANCH   7  17
ATOM     17  C   UNL     1      -2.688  11.285  18.399  0.00  0.00    +0.000 A 
ATOM     18  C   UNL     1      -3.748  11.906  19.076  0.00  0.00    +0.000 A 
ATOM     19  C   UNL     1      -4.951  12.191  18.418  0.00  0.00    +0.000 A 
ATOM     20  C   UNL     1      -5.124  11.866  17.072  0.00  0.00    +0.000 A 
ATOM     21  C   UNL     1      -4.081  11.250  16.389  0.00  0.00    +0.000 A 
ATOM     22  C   UNL     1      -2.875  10.979  17.044  0.00  0.00    +0.000 A 
BRANCH  20  23
ATOM     23  O   UNL     1      -6.350  12.161  16.544  0.00  0.00    +0.000 OA
ATOM     24  C   UNL     1      -6.889  13.431  16.901  0.00  0.00    +0.000 C 
ENDBRANCH  20  23
ENDBRANCH   7  17
BRANCH   3  25
ATOM     25  N   UNL     1      -0.396  12.321  22.623  0.00  0.00    +0.000 NA
ATOM     26  C   UNL     1      -1.378  11.505  23.354  0.00  0.00    +0.000 C 
ATOM     27  C   UNL     1      -2.640  12.340  23.458  0.00  0.00    +0.000 C 
ATOM     28  C   UNL     1      -2.132  13.763  23.533  0.00  0.00    +0.000 C 
ATOM     29  C   UNL     1      -0.696  13.713  23.021  0.00  0.00    +0.000 C 
ENDBRANCH   3  25
BRANCH   5  30
ATOM     30  O   UNL     1      -0.996  13.855  18.026  0.00  0.00    +0.000 OA
ATOM     31  H   UNL     1      -1.817  14.017  18.523  0.00  0.00    +0.000 HD
ENDBRANCH   5  30
TORSDOF 6
ENDMDL
MODEL 4
REMARK VINA RESULT:      -6.9      2.648      4.161
REMARK  Name = 
REMARK  8 active torsions:
REMARK  status: ('A' for Active; 'I' for Inactive)
REMARK    1  A    between atoms: C_1  and  O_2
REMARK    2  A    between atoms: O_2  and  C_3
REMARK    3  A    between atoms: C_6  and  C_7
REMARK    4  A    between atoms: C_9  and  N_10
REMARK    5  A    between atoms: C_16  and  O_17
REMARK    6  A    between atoms: C_19  and  C_20
REMARK    7  A    between atoms: C_23  and  O_24
REMARK    8  A    between atoms: O_24  and  C_25
REMARK                            x       y       z     vdW  Elec       q    Type
REMARK                         _______ _______ _______ _____ _____    ______ ____
ROOT
ATOM      1  C   UNL     1       1.212  10.870  19.193  0.00  0.00    +0.000 C 
ATOM      2  C   UNL     1       1.318  11.633  20.537  0.00  0.00    +0.000 C 
ATOM      3  C   UNL     1       0.066  12.478  20.851  0.00  0.00    +0.000 C 
ATOM      4  C   UNL     1      -0.061  13.542  19.720  0.00  0.00    +0.000 C 
ATOM      5  C   UNL     1       0.030  12.865  18.336  0.00  0.00    +0.000 C 
ATOM      6  C   UNL     1      -0.101  11.322  18.471  0.00  0.00    +0.000 C 
ATOM      7  C   UNL     1      -1.344  10.950  19.327  0.00  0.00    +0.000 C 
ATOM      8  C   UNL     1      -1.208  11.579  20.731  0.00  0.00    +0.000 C 
ENDROOT
BRANCH   1  12
ATOM      9  C   UNL     1       2.100   6.616  19.530  0.00  0.00    +0.000 A 
ATOM     10  C   UNL     1       1.591   7.312  20.627  0.00  0.00    +0.000 A 
ATOM     11  C   UNL     1       1.297   8.680  20.547  0.00  0.00    +0.000 A 
ATOM     12  C   UNL     1       1.533   9.389  19.367  0.00  0.00    +0.000 A 
ATOM     13  C   UNL     1       2.020   8.661  18.262  0.00  0.00    +0.000 A 
ATOM     14  C   UNL     1       2.327   7.303  18.344  0.00  0.00    +0.000 A 
BRANCH   9  16
ATOM     15  C   UNL     1       1.732   4.705  20.866  0.00  0.00    +0.000 C 
ATOM     16  O   UNL     1       2.352   5.286  19.721  0.00  0.00    +0.000 OA
ENDBRANCH   9  16
ENDBRANCH   1  12
BRANCH   7  17
ATOM     17  C   UNL     1      -2.675  11.204  18.621  0.00  0.00    +0.000 A 
ATOM     18  C   UNL     1      -3.648  12.002  19.240  0.00  0.00    +0.000 A 
ATOM     19  C   UNL     1      -4.899  12.202  18.642  0.00  0.00    +0.000 A 
ATOM     20  C   UNL     1      -5.207  11.615  17.415  0.00  0.00    +0.000 A 
ATOM     21  C   UNL     1      -4.251  10.821  16.791  0.00  0.00    +0.000 A 
ATOM     22  C   UNL     1      -2.998  10.633  17.382  0.00  0.00    +0.000 A 
BRANCH  20  23
ATOM     23  O   UNL     1      -6.468  11.853  16.944  0.00  0.00    +0.000 OA
ATOM     24  C   UNL     1      -7.272  12.721  17.737  0.00  0.00    +0.000 C 
ENDBRANCH  20  23
ENDBRANCH   7  17
BRANCH   3  25
ATOM     25  N   UNL     1       0.111  13.083  22.208  0.00  0.00    +0.000 NA
ATOM     26  C   UNL     1      -1.059  12.879  23.075  0.00  0.00    +0.000 C 
ATOM     27  C   UNL     1      -1.926  14.114  22.928  0.00  0.00    +0.000 C 
ATOM     28  C   UNL     1      -0.934  15.230  22.681  0.00  0.00    +0.000 C 
ATOM     29  C   UNL     1       0.357  14.541  22.250  0.00  0.00    +0.000 C 
ENDBRANCH   3  25
BRANCH   5  30
ATOM     30  O   UNL     1      -0.903  13.459  17.446  0.00  0.00    +0.000 OA
ATOM     31  H   UNL     1      -0.929  12.943  16.621  0.00  0.00    +0.000 HD
ENDBRANCH   5  30
TORSDOF 6
ENDMDL
MODEL 5
REMARK VINA RESULT:      -6.8      2.476      5.267
REMARK  Name = 
REMARK  8 active torsions:
REMARK  status: ('A' for Active; 'I' for Inactive)
REMARK    1  A    between atoms: C_1  and  O_2
REMARK    2  A    between atoms: O_2  and  C_3
REMARK    3  A    between atoms: C_6  and  C_7
REMARK    4  A    between atoms: C_9  and  N_10
REMARK    5  A    between atoms: C_16  and  O_17
REMARK    6  A    between atoms: C_19  and  C_20
REMARK    7  A    between atoms: C_23  and  O_24
REMARK    8  A    between atoms: O_24  and  C_25
REMARK                            x       y       z     vdW  Elec       q    Type
REMARK                         _______ _______ _______ _____ _____    ______ ____
ROOT
ATOM      1  C   UNL     1       0.192  10.241  20.236  0.00  0.00    +0.000 C 
ATOM      2  C   UNL     1      -1.057  10.383  19.329  0.00  0.00    +0.000 C 
ATOM      3  C   UNL     1      -1.304  11.834  18.866  0.00  0.00    +0.000 C 
ATOM      4  C   UNL     1      -1.560  12.683  20.147  0.00  0.00    +0.000 C 
ATOM      5  C   UNL     1      -0.448  12.431  21.187  0.00  0.00    +0.000 C 
ATOM      6  C   UNL     1       0.745  11.673  20.541  0.00  0.00    +0.000 C 
ATOM      7  C   UNL     1       1.192  12.371  19.226  0.00  0.00    +0.000 C 
ATOM      8  C   UNL     1       0.008  12.406  18.235  0.00  0.00    +0.000 C 
ENDROOT
BRANCH   1  12
ATOM      9  C   UNL     1       2.781   7.111  18.656  0.00  0.00    +0.000 A 
ATOM     10  C   UNL     1       2.353   7.059  19.983  0.00  0.00    +0.000 A 
ATOM     11  C   UNL     1       1.521   8.052  20.518  0.00  0.00    +0.000 A 
ATOM     12  C   UNL     1       1.119   9.138  19.737  0.00  0.00    +0.000 A 
ATOM     13  C   UNL     1       1.539   9.156  18.390  0.00  0.00    +0.000 A 
ATOM     14  C   UNL     1       2.378   8.177  17.861  0.00  0.00    +0.000 A 
BRANCH   9  16
ATOM     15  C   UNL     1       4.145   5.289  19.281  0.00  0.00    +0.000 C 
ATOM     16  O   UNL     1       3.591   6.092  18.241  0.00  0.00    +0.000 OA
ENDBRANCH   9  16
ENDBRANCH   1  12
BRANCH   7  17
ATOM     17  C   UNL     1       1.900  13.706  19.448  0.00  0.00    +0.000 A 
ATOM     18  C   UNL     1       1.452  14.851  18.774  0.00  0.00    +0.000 A 
ATOM     19  C   UNL     1       2.119  16.075  18.915  0.00  0.00    +0.000 A 
ATOM     20  C   UNL     1       3.245  16.185  19.731  0.00  0.00    +0.000 A 
ATOM     21  C   UNL     1       3.700  15.058  20.405  0.00  0.00    +0.000 A 
ATOM     22  C   UNL     1       3.025  13.840  20.275  0.00  0.00    +0.000 A 
BRANCH  20  23
ATOM     23  O   UNL     1       3.833  17.419  19.765  0.00  0.00    +0.000 OA
ATOM     24  C   UNL     1       5.248  17.428  19.929  0.00  0.00    +0.000 C 
ENDBRANCH  20  23
ENDBRANCH   7  17
BRANCH   3  25
ATOM     25  N   UNL     1      -2.408  11.938  17.877  0.00  0.00    +0.000 NA
ATOM     26  C   UNL     1      -3.754  11.554  18.329  0.00  0.00    +0.000 C 
ATOM     27  C   UNL     1      -3.962  10.117  17.894  0.00  0.00    +0.000 C 
ATOM     28  C   UNL     1      -3.170  10.004  16.610  0.00  0.00    +0.000 C 
ATOM     29  C   UNL     1      -2.210  11.190  16.616  0.00  0.00    +0.000 C 
ENDBRANCH   3  25
BRANCH   5  30
ATOM     30  O   UNL     1      -0.094  13.652  21.821  0.00  0.00    +0.000 OA
ATOM     31  H   UNL     1      -0.063  14.360  21.153  0.00  0.00    +0.000 HD
ENDBRANCH   5  30
TORSDOF 6
ENDMDL
MODEL 6
REMARK VINA RESULT:      -6.8      2.501      5.380
REMARK  Name = 
REMARK  8 active torsions:
REMARK  status: ('A' for Active; 'I' for Inactive)
REMARK    1  A    between atoms: C_1  and  O_2
REMARK    2  A    between atoms: O_2  and  C_3
REMARK    3  A    between atoms: C_6  and  C_7
REMARK    4  A    between atoms: C_9  and  N_10
REMARK    5  A    between atoms: C_16  and  O_17
REMARK    6  A    between atoms: C_19  and  C_20
REMARK    7  A    between atoms: C_23  and  O_24
REMARK    8  A    between atoms: O_24  and  C_25
REMARK                            x       y       z     vdW  Elec       q    Type
REMARK                         _______ _______ _______ _____ _____    ______ ____
ROOT
ATOM      1  C   UNL     1       0.244  10.194  20.084  0.00  0.00    +0.000 C 
ATOM      2  C   UNL     1      -1.050  10.356  19.247  0.00  0.00    +0.000 C 
ATOM      3  C   UNL     1      -1.343  11.821  18.865  0.00  0.00    +0.000 C 
ATOM      4  C   UNL     1      -1.547  12.606  20.196  0.00  0.00    +0.000 C 
ATOM      5  C   UNL     1      -0.381  12.327  21.167  0.00  0.00    +0.000 C 
ATOM      6  C   UNL     1       0.790  11.620  20.428  0.00  0.00    +0.000 C 
ATOM      7  C   UNL     1       1.159  12.386  19.126  0.00  0.00    +0.000 C 
ATOM      8  C   UNL     1      -0.073  12.445  18.197  0.00  0.00    +0.000 C 
ENDROOT
BRANCH   1  12
ATOM      9  C   UNL     1       2.924   7.125  18.536  0.00  0.00    +0.000 A 
ATOM     10  C   UNL     1       2.583   8.220  17.741  0.00  0.00    +0.000 A 
ATOM     11  C   UNL     1       1.723   9.221  18.213  0.00  0.00    +0.000 A 
ATOM     12  C   UNL     1       1.163   9.132  19.489  0.00  0.00    +0.000 A 
ATOM     13  C   UNL     1       1.543   8.033  20.287  0.00  0.00    +0.000 A 
ATOM     14  C   UNL     1       2.387   7.028  19.813  0.00  0.00    +0.000 A 
BRANCH   9  16
ATOM     15  C   UNL     1       4.644   6.719  16.972  0.00  0.00    +0.000 C 
ATOM     16  O   UNL     1       3.768   6.209  17.974  0.00  0.00    +0.000 OA
ENDBRANCH   9  16
ENDBRANCH   1  12
BRANCH   7  17
ATOM     17  C   UNL     1       1.857  13.722  19.375  0.00  0.00    +0.000 A 
ATOM     18  C   UNL     1       1.337  14.894  18.806  0.00  0.00    +0.000 A 
ATOM     19  C   UNL     1       1.990  16.122  18.970  0.00  0.00    +0.000 A 
ATOM     20  C   UNL     1       3.172  16.211  19.705  0.00  0.00    +0.000 A 
ATOM     21  C   UNL     1       3.698  15.057  20.275  0.00  0.00    +0.000 A 
ATOM     22  C   UNL     1       3.038  13.833  20.123  0.00  0.00    +0.000 A 
BRANCH  20  23
ATOM     23  O   UNL     1       3.737  17.454  19.770  0.00  0.00    +0.000 OA
ATOM     24  C   UNL     1       5.107  17.493  20.159  0.00  0.00    +0.000 C 
ENDBRANCH  20  23
ENDBRANCH   7  17
BRANCH   3  25
ATOM     25  N   UNL     1      -2.497  11.950  17.937  0.00  0.00    +0.000 NA
ATOM     26  C   UNL     1      -3.810  11.511  18.432  0.00  0.00    +0.000 C 
ATOM     27  C   UNL     1      -4.008  10.094  17.932  0.00  0.00    +0.000 C 
ATOM     28  C   UNL     1      -3.278  10.069  16.606  0.00  0.00    +0.000 C 
ATOM     29  C   UNL     1      -2.345  11.275  16.630  0.00  0.00    +0.000 C 
ENDBRANCH   3  25
BRANCH   5  30
ATOM     30  O   UNL     1      -0.015  13.524  21.838  0.00  0.00    +0.000 OA
ATOM     31  H   UNL     1      -0.028  14.262  21.203  0.00  0.00    +0.000 HD
ENDBRANCH   5  30
TORSDOF 6
ENDMDL
MODEL 7
REMARK VINA RESULT:      -6.7      3.608      6.741
REMARK  Name = 
REMARK  8 active torsions:
REMARK  status: ('A' for Active; 'I' for Inactive)
REMARK    1  A    between atoms: C_1  and  O_2
REMARK    2  A    between atoms: O_2  and  C_3
REMARK    3  A    between atoms: C_6  and  C_7
REMARK    4  A    between atoms: C_9  and  N_10
REMARK    5  A    between atoms: C_16  and  O_17
REMARK    6  A    between atoms: C_19  and  C_20
REMARK    7  A    between atoms: C_23  and  O_24
REMARK    8  A    between atoms: O_24  and  C_25
REMARK                            x       y       z     vdW  Elec       q    Type
REMARK                         _______ _______ _______ _____ _____    ______ ____
ROOT
ATOM      1  C   UNL     1      -1.248  11.639  19.837  0.00  0.00    +0.000 C 
ATOM      2  C   UNL     1      -2.230  12.246  20.872  0.00  0.00    +0.000 C 
ATOM      3  C   UNL     1      -1.754  13.603  21.431  0.00  0.00    +0.000 C 
ATOM      4  C   UNL     1      -0.404  13.345  22.165  0.00  0.00    +0.000 C 
ATOM      5  C   UNL     1       0.559  12.557  21.253  0.00  0.00    +0.000 C 
ATOM      6  C   UNL     1       0.034  12.535  19.790  0.00  0.00    +0.000 C 
ATOM      7  C   UNL     1      -0.327  13.970  19.315  0.00  0.00    +0.000 C 
ATOM      8  C   UNL     1      -1.412  14.561  20.242  0.00  0.00    +0.000 C 
ENDROOT
BRANCH   1  12
ATOM      9  C   UNL     1      -3.453  10.532  16.245  0.00  0.00    +0.000 A 
ATOM     10  C   UNL     1      -2.195   9.981  16.489  0.00  0.00    +0.000 A 
ATOM     11  C   UNL     1      -1.463  10.319  17.636  0.00  0.00    +0.000 A 
ATOM     12  C   UNL     1      -1.969  11.243  18.553  0.00  0.00    +0.000 A 
ATOM     13  C   UNL     1      -3.255  11.765  18.302  0.00  0.00    +0.000 A 
ATOM     14  C   UNL     1      -3.977  11.441  17.154  0.00  0.00    +0.000 A 
BRANCH   9  16
ATOM     15  C   UNL     1      -3.231  10.017  13.951  0.00  0.00    +0.000 C 
ATOM     16  O   UNL     1      -4.075  10.133  15.095  0.00  0.00    +0.000 OA
ENDBRANCH   9  16
ENDBRANCH   1  12
BRANCH   7  17
ATOM     17  C   UNL     1       0.889  14.864  19.078  0.00  0.00    +0.000 A 
ATOM     18  C   UNL     1       1.956  14.394  18.298  0.00  0.00    +0.000 A 
ATOM     19  C   UNL     1       3.108  15.169  18.113  0.00  0.00    +0.000 A 
ATOM     20  C   UNL     1       3.221  16.430  18.699  0.00  0.00    +0.000 A 
ATOM     21  C   UNL     1       2.172  16.908  19.475  0.00  0.00    +0.000 A 
ATOM     22  C   UNL     1       1.016  16.139  19.647  0.00  0.00    +0.000 A 
BRANCH  20  23
ATOM     23  O   UNL     1       4.403  17.081  18.477  0.00  0.00    +0.000 OA
ATOM     24  C   UNL     1       5.307  17.119  19.578  0.00  0.00    +0.000 C 
ENDBRANCH  20  23
ENDBRANCH   7  17
BRANCH   3  25
ATOM     25  N   UNL     1      -2.770  14.250  22.303  0.00  0.00    +0.000 NA
ATOM     26  C   UNL     1      -2.665  14.008  23.750  0.00  0.00    +0.000 C 
ATOM     27  C   UNL     1      -3.619  12.872  24.067  0.00  0.00    +0.000 C 
ATOM     28  C   UNL     1      -4.742  13.048  23.068  0.00  0.00    +0.000 C 
ATOM     29  C   UNL     1      -4.180  13.949  21.973  0.00  0.00    +0.000 C 
ENDBRANCH   3  25
BRANCH   5  30
ATOM     30  O   UNL     1       1.879  13.059  21.396  0.00  0.00    +0.000 OA
ATOM     31  H   UNL     1       2.501  12.451  20.959  0.00  0.00    +0.000 HD
ENDBRANCH   5  30
TORSDOF 6
ENDMDL
MODEL 8
REMARK VINA RESULT:      -6.7      3.620      6.763
REMARK  Name = 
REMARK  8 active torsions:
REMARK  status: ('A' for Active; 'I' for Inactive)
REMARK    1  A    between atoms: C_1  and  O_2
REMARK    2  A    between atoms: O_2  and  C_3
REMARK    3  A    between atoms: C_6  and  C_7
REMARK    4  A    between atoms: C_9  and  N_10
REMARK    5  A    between atoms: C_16  and  O_17
REMARK    6  A    between atoms: C_19  and  C_20
REMARK    7  A    between atoms: C_23  and  O_24
REMARK    8  A    between atoms: O_24  and  C_25
REMARK                            x       y       z     vdW  Elec       q    Type
REMARK                         _______ _______ _______ _____ _____    ______ ____
ROOT
ATOM      1  C   UNL     1      -1.426  11.657  19.914  0.00  0.00    +0.000 C 
ATOM      2  C   UNL     1      -2.360  12.382  20.916  0.00  0.00    +0.000 C 
ATOM      3  C   UNL     1      -1.781  13.718  21.424  0.00  0.00    +0.000 C 
ATOM      4  C   UNL     1      -0.458  13.383  22.177  0.00  0.00    +0.000 C 
ATOM      5  C   UNL     1       0.443  12.485  21.304  0.00  0.00    +0.000 C 
ATOM      6  C   UNL     1      -0.077  12.446  19.840  0.00  0.00    +0.000 C 
ATOM      7  C   UNL     1      -0.320  13.885  19.305  0.00  0.00    +0.000 C 
ATOM      8  C   UNL     1      -1.359  14.596  20.200  0.00  0.00    +0.000 C 
ENDROOT
BRANCH   1  12
ATOM      9  C   UNL     1      -3.408  10.522  16.202  0.00  0.00    +0.000 A 
ATOM     10  C   UNL     1      -4.033  11.402  17.086  0.00  0.00    +0.000 A 
ATOM     11  C   UNL     1      -3.419  11.784  18.287  0.00  0.00    +0.000 A 
ATOM     12  C   UNL     1      -2.171  11.267  18.642  0.00  0.00    +0.000 A 
ATOM     13  C   UNL     1      -1.545  10.402  17.721  0.00  0.00    +0.000 A 
ATOM     14  C   UNL     1      -2.160  10.010  16.533  0.00  0.00    +0.000 A 
BRANCH   9  16
ATOM     15  C   UNL     1      -3.300  10.002  13.902  0.00  0.00    +0.000 C 
ATOM     16  O   UNL     1      -4.099  10.217  15.063  0.00  0.00    +0.000 OA
ENDBRANCH   9  16
ENDBRANCH   1  12
BRANCH   7  17
ATOM     17  C   UNL     1       0.964  14.669  19.041  0.00  0.00    +0.000 A 
ATOM     18  C   UNL     1       1.099  15.971  19.546  0.00  0.00    +0.000 A 
ATOM     19  C   UNL     1       2.242  16.733  19.269  0.00  0.00    +0.000 A 
ATOM     20  C   UNL     1       3.274  16.215  18.487  0.00  0.00    +0.000 A 
ATOM     21  C   UNL     1       3.153  14.926  17.981  0.00  0.00    +0.000 A 
ATOM     22  C   UNL     1       2.018  14.160  18.270  0.00  0.00    +0.000 A 
BRANCH  20  23
ATOM     23  O   UNL     1       4.323  17.061  18.257  0.00  0.00    +0.000 OA
ATOM     24  C   UNL     1       5.362  17.041  19.232  0.00  0.00    +0.000 C 
ENDBRANCH  20  23
ENDBRANCH   7  17
BRANCH   3  25
ATOM     25  N   UNL     1      -2.745  14.478  22.262  0.00  0.00    +0.000 NA
ATOM     26  C   UNL     1      -2.584  14.387  23.721  0.00  0.00    +0.000 C 
ATOM     27  C   UNL     1      -3.546  13.315  24.195  0.00  0.00    +0.000 C 
ATOM     28  C   UNL     1      -4.707  13.412  23.230  0.00  0.00    +0.000 C 
ATOM     29  C   UNL     1      -4.173  14.179  22.024  0.00  0.00    +0.000 C 
ENDBRANCH   3  25
BRANCH   5  30
ATOM     30  O   UNL     1       1.798  12.887  21.436  0.00  0.00    +0.000 OA
ATOM     31  H   UNL     1       2.083  13.323  20.614  0.00  0.00    +0.000 HD
ENDBRANCH   5  30
TORSDOF 6
ENDMDL
MODEL 9
REMARK VINA RESULT:      -6.7      2.510      5.325
REMARK  Name = 
REMARK  8 active torsions:
REMARK  status: ('A' for Active; 'I' for Inactive)
REMARK    1  A    between atoms: C_1  and  O_2
REMARK    2  A    between atoms: O_2  and  C_3
REMARK    3  A    between atoms: C_6  and  C_7
REMARK    4  A    between atoms: C_9  and  N_10
REMARK    5  A    between atoms: C_16  and  O_17
REMARK    6  A    between atoms: C_19  and  C_20
REMARK    7  A    between atoms: C_23  and  O_24
REMARK    8  A    between atoms: O_24  and  C_25
REMARK                            x       y       z     vdW  Elec       q    Type
REMARK                         _______ _______ _______ _____ _____    ______ ____
ROOT
ATOM      1  C   UNL     1       0.172  10.364  20.156  0.00  0.00    +0.000 C 
ATOM      2  C   UNL     1      -1.137  10.448  19.331  0.00  0.00    +0.000 C 
ATOM      3  C   UNL     1      -1.461  11.879  18.856  0.00  0.00    +0.000 C 
ATOM      4  C   UNL     1      -1.659  12.748  20.133  0.00  0.00    +0.000 C 
ATOM      5  C   UNL     1      -0.474  12.555  21.102  0.00  0.00    +0.000 C 
ATOM      6  C   UNL     1       0.698  11.819  20.394  0.00  0.00    +0.000 C 
ATOM      7  C   UNL     1       1.035  12.501  19.038  0.00  0.00    +0.000 C 
ATOM      8  C   UNL     1      -0.212  12.477  18.127  0.00  0.00    +0.000 C 
ENDROOT
BRANCH   1  12
ATOM      9  C   UNL     1       2.759   7.288  18.470  0.00  0.00    +0.000 A 
ATOM     10  C   UNL     1       2.358   7.209  19.804  0.00  0.00    +0.000 A 
ATOM     11  C   UNL     1       1.527   8.184  20.373  0.00  0.00    +0.000 A 
ATOM     12  C   UNL     1       1.100   9.279  19.619  0.00  0.00    +0.000 A 
ATOM     13  C   UNL     1       1.493   9.325  18.265  0.00  0.00    +0.000 A 
ATOM     14  C   UNL     1       2.332   8.364  17.703  0.00  0.00    +0.000 A 
BRANCH   9  16
ATOM     15  C   UNL     1       4.565   6.676  17.078  0.00  0.00    +0.000 C 
ATOM     16  O   UNL     1       3.571   6.284  18.022  0.00  0.00    +0.000 OA
ENDBRANCH   9  16
ENDBRANCH   1  12
BRANCH   7  17
ATOM     17  C   UNL     1       1.713  13.861  19.186  0.00  0.00    +0.000 A 
ATOM     18  C   UNL     1       2.956  13.952  19.829  0.00  0.00    +0.000 A 
ATOM     19  C   UNL     1       3.572  15.195  20.029  0.00  0.00    +0.000 A 
ATOM     20  C   UNL     1       2.965  16.372  19.592  0.00  0.00    +0.000 A 
ATOM     21  C   UNL     1       1.733  16.296  18.952  0.00  0.00    +0.000 A 
ATOM     22  C   UNL     1       1.126  15.054  18.740  0.00  0.00    +0.000 A 
BRANCH  20  23
ATOM     23  O   UNL     1       3.643  17.526  19.871  0.00  0.00    +0.000 OA
ATOM     24  C   UNL     1       5.037  17.381  20.127  0.00  0.00    +0.000 C 
ENDBRANCH  20  23
ENDBRANCH   7  17
BRANCH   3  25
ATOM     25  N   UNL     1      -2.630  11.926  17.939  0.00  0.00    +0.000 NA
ATOM     26  C   UNL     1      -3.867  11.272  18.393  0.00  0.00    +0.000 C 
ATOM     27  C   UNL     1      -3.875   9.888  17.775  0.00  0.00    +0.000 C 
ATOM     28  C   UNL     1      -3.160  10.073  16.454  0.00  0.00    +0.000 C 
ATOM     29  C   UNL     1      -2.400  11.389  16.581  0.00  0.00    +0.000 C 
ENDBRANCH   3  25
BRANCH   5  30
ATOM     30  O   UNL     1      -0.119  13.800  21.685  0.00  0.00    +0.000 OA
ATOM     31  H   UNL     1      -0.814  14.453  21.490  0.00  0.00    +0.000 HD
ENDBRANCH   5  30
TORSDOF 6
ENDMDL
