MODEL 1
REMARK VINA RESULT:      -6.9      0.000      0.000
REMARK  Name = 
REMARK  4 active torsions:
REMARK  status: ('A' for Active; 'I' for Inactive)
REMARK    1  A    between atoms: N1_5  and  C1*_6
REMARK    2  A    between atoms: C3*_8  and  O3*_9
REMARK    3  A    between atoms: C4*_10  and  C5*_11
REMARK    4  A    between atoms: C5*_11  and  O5*_12
REMARK                            x       y       z     vdW  Elec       q    Type
REMARK                         _______ _______ _______ _____ _____    ______ ____
ROOT
ATOM      1  N4    C A   1       7.635   5.197  14.576  0.00  0.00    +0.000 N 
ATOM      2  C4    C A   1       6.859   5.071  15.695  0.00  0.00    +0.000 A 
ATOM      3  C5    C A   1       5.392   5.067  15.564  0.00  0.00    +0.000 A 
ATOM      4  C6    C A   1       4.710   4.914  16.693  0.00  0.00    +0.000 A 
ATOM      5  N1    C A   1       5.341   4.800  17.911  0.00  0.00    +0.000 N 
ATOM      6  C2    C A   1       6.737   4.850  17.996  0.00  0.00    +0.000 A 
ATOM      7  O2    C A   1       7.306   4.801  19.091  0.00  0.00    +0.000 OA
ATOM      8  N3    C A   1       7.465   4.957  16.836  0.00  0.00    +0.000 NA
ATOM      9  H41   C A   1       7.252   4.911  13.686  0.00  0.00    +0.000 HD
ATOM     10  H42   C A   1       8.597   4.906  14.726  0.00  0.00    +0.000 HD
ENDROOT
BRANCH   5  11
ATOM     11  C1*   C A   1       4.567   4.682  19.144  0.00  0.00    +0.000 C 
ATOM     12  C2*   C A   1       3.196   5.352  19.110  0.00  0.00    +0.000 C 
ATOM     13  C3*   C A   1       2.396   4.492  20.067  0.00  0.00    +0.000 C 
ATOM     14  C4*   C A   1       2.986   3.096  19.890  0.00  0.00    +0.000 C 
ATOM     15  O4*   C A   1       4.352   3.287  19.455  0.00  0.00    +0.000 OA
BRANCH  13  16
ATOM     16  O3*   C A   1       2.599   4.962  21.401  0.00  0.00    +0.000 OA
ATOM     17  H3*   C A   1       2.988   4.247  21.938  0.00  0.00    +0.000 HD
ENDBRANCH  13  16
BRANCH  14  18
ATOM     18  C5*   C A   1       2.238   2.258  18.844  0.00  0.00    +0.000 C 
BRANCH  18  19
ATOM     19  O5*   C A   1       3.138   1.445  18.092  0.00  0.00    +0.000 OA
ATOM     20  H5*   C A   1       3.992   1.911  18.058  0.00  0.00    +0.000 HD
ENDBRANCH  18  19
ENDBRANCH  14  18
ENDBRANCH   5  11
TORSDOF 4
ENDMDL
MODEL 2
REMARK VINA RESULT:      -6.8      2.326      5.417
REMARK  Name = 
REMARK  4 active torsions:
REMARK  status: ('A' for Active; 'I' for Inactive)
REMARK    1  A    between atoms: N1_5  and  C1*_6
REMARK    2  A    between atoms: C3*_8  and  O3*_9
REMARK    3  A    between atoms: C4*_10  and  C5*_11
REMARK    4  A    between atoms: C5*_11  and  O5*_12
REMARK                            x       y       z     vdW  Elec       q    Type
REMARK                         _______ _______ _______ _____ _____    ______ ____
ROOT
ATOM      1  N4    C A   1       0.843   3.701  20.756  0.00  0.00    +0.000 N 
ATOM      2  C4    C A   1       1.967   3.854  19.992  0.00  0.00    +0.000 A 
ATOM      3  C5    C A   1       2.713   5.123  20.045  0.00  0.00    +0.000 A 
ATOM      4  C6    C A   1       3.807   5.183  19.296  0.00  0.00    +0.000 A 
ATOM      5  N1    C A   1       4.197   4.132  18.495  0.00  0.00    +0.000 N 
ATOM      6  C2    C A   1       3.436   2.959  18.443  0.00  0.00    +0.000 A 
ATOM      7  O2    C A   1       3.752   2.033  17.688  0.00  0.00    +0.000 OA
ATOM      8  N3    C A   1       2.328   2.854  19.248  0.00  0.00    +0.000 NA
ATOM      9  H41   C A   1       0.746   4.259  21.592  0.00  0.00    +0.000 HD
ATOM     10  H42   C A   1       0.572   2.728  20.872  0.00  0.00    +0.000 HD
ENDROOT
BRANCH   5  11
ATOM     11  C1*   C A   1       5.378   4.241  17.643  0.00  0.00    +0.000 C 
ATOM     12  C2*   C A   1       5.510   5.564  16.892  0.00  0.00    +0.000 C 
ATOM     13  C3*   C A   1       7.012   5.710  16.762  0.00  0.00    +0.000 C 
ATOM     14  C4*   C A   1       7.556   5.061  18.032  0.00  0.00    +0.000 C 
ATOM     15  O4*   C A   1       6.573   4.083  18.440  0.00  0.00    +0.000 OA
BRANCH  13  16
ATOM     16  O3*   C A   1       7.453   5.000  15.602  0.00  0.00    +0.000 OA
ATOM     17  H3*   C A   1       8.071   4.297  15.872  0.00  0.00    +0.000 HD
ENDBRANCH  13  16
BRANCH  14  18
ATOM     18  C5*   C A   1       7.770   6.066  19.172  0.00  0.00    +0.000 C 
BRANCH  18  19
ATOM     19  O5*   C A   1       7.929   5.401  20.425  0.00  0.00    +0.000 OA
ATOM     20  H5*   C A   1       7.782   4.450  20.270  0.00  0.00    +0.000 HD
ENDBRANCH  18  19
ENDBRANCH  14  18
ENDBRANCH   5  11
TORSDOF 4
ENDMDL
MODEL 3
REMARK VINA RESULT:      -6.8      1.106      1.106
REMARK  Name = 
REMARK  4 active torsions:
REMARK  status: ('A' for Active; 'I' for Inactive)
REMARK    1  A    between atoms: N1_5  and  C1*_6
REMARK    2  A    between atoms: C3*_8  and  O3*_9
REMARK    3  A    between atoms: C4*_10  and  C5*_11
REMARK    4  A    between atoms: C5*_11  and  O5*_12
REMARK                            x       y       z     vdW  Elec       q    Type
REMARK                         _______ _______ _______ _____ _____    ______ ____
ROOT
ATOM      1  N4    C A   1       7.766   5.264  13.798  0.00  0.00    +0.000 N 
ATOM      2  C4    C A   1       7.049   5.133  14.955  0.00  0.00    +0.000 A 
ATOM      3  C5    C A   1       5.935   4.171  15.014  0.00  0.00    +0.000 A 
ATOM      4  C6    C A   1       5.307   4.082  16.180  0.00  0.00    +0.000 A 
ATOM      5  N1    C A   1       5.657   4.869  17.254  0.00  0.00    +0.000 N 
ATOM      6  C2    C A   1       6.695   5.801  17.143  0.00  0.00    +0.000 A 
ATOM      7  O2    C A   1       6.980   6.546  18.087  0.00  0.00    +0.000 OA
ATOM      8  N3    C A   1       7.394   5.874  15.963  0.00  0.00    +0.000 NA
ATOM      9  H41   C A   1       7.794   4.486  13.155  0.00  0.00    +0.000 HD
ATOM     10  H42   C A   1       8.663   5.720  13.938  0.00  0.00    +0.000 HD
ENDROOT
BRANCH   5  11
ATOM     11  C1*   C A   1       4.918   4.788  18.511  0.00  0.00    +0.000 C 
ATOM     12  C2*   C A   1       3.406   4.952  18.380  0.00  0.00    +0.000 C 
ATOM     13  C3*   C A   1       2.893   4.119  19.537  0.00  0.00    +0.000 C 
ATOM     14  C4*   C A   1       3.910   2.988  19.656  0.00  0.00    +0.000 C 
ATOM     15  O4*   C A   1       5.155   3.507  19.137  0.00  0.00    +0.000 OA
BRANCH  13  16
ATOM     16  O3*   C A   1       2.883   4.918  20.722  0.00  0.00    +0.000 OA
ATOM     17  H3*   C A   1       1.965   5.175  20.928  0.00  0.00    +0.000 HD
ENDBRANCH  13  16
BRANCH  14  18
ATOM     18  C5*   C A   1       3.512   1.740  18.857  0.00  0.00    +0.000 C 
BRANCH  18  19
ATOM     19  O5*   C A   1       2.094   1.585  18.810  0.00  0.00    +0.000 OA
ATOM     20  H5*   C A   1       1.869   0.800  19.341  0.00  0.00    +0.000 HD
ENDBRANCH  18  19
ENDBRANCH  14  18
ENDBRANCH   5  11
TORSDOF 4
ENDMDL
MODEL 4
REMARK VINA RESULT:      -6.8      2.644      5.478
REMARK  Name = 
REMARK  4 active torsions:
REMARK  status: ('A' for Active; 'I' for Inactive)
REMARK    1  A    between atoms: N1_5  and  C1*_6
REMARK    2  A    between atoms: C3*_8  and  O3*_9
REMARK    3  A    between atoms: C4*_10  and  C5*_11
REMARK    4  A    between atoms: C5*_11  and  O5*_12
REMARK                            x       y       z     vdW  Elec       q    Type
REMARK                         _______ _______ _______ _____ _____    ______ ____
ROOT
ATOM      1  N4    C A   1       0.881   2.876  21.253  0.00  0.00    +0.000 N 
ATOM      2  C4    C A   1       1.655   3.432  20.272  0.00  0.00    +0.000 A 
ATOM      3  C5    C A   1       2.548   4.556  20.601  0.00  0.00    +0.000 A 
ATOM      4  C6    C A   1       3.286   5.021  19.601  0.00  0.00    +0.000 A 
ATOM      5  N1    C A   1       3.193   4.504  18.329  0.00  0.00    +0.000 N 
ATOM      6  C2    C A   1       2.300   3.463  18.049  0.00  0.00    +0.000 A 
ATOM      7  O2    C A   1       2.174   3.030  16.899  0.00  0.00    +0.000 OA
ATOM      8  N3    C A   1       1.564   2.930  19.078  0.00  0.00    +0.000 NA
ATOM      9  H41   C A   1       1.182   2.959  22.213  0.00  0.00    +0.000 HD
ATOM     10  H42   C A   1       0.530   1.955  21.006  0.00  0.00    +0.000 HD
ENDROOT
BRANCH   5  11
ATOM     11  C1*   C A   1       3.980   5.066  17.235  0.00  0.00    +0.000 C 
ATOM     12  C2*   C A   1       4.453   6.502  17.453  0.00  0.00    +0.000 C 
ATOM     13  C3*   C A   1       5.745   6.537  16.664  0.00  0.00    +0.000 C 
ATOM     14  C4*   C A   1       6.299   5.121  16.801  0.00  0.00    +0.000 C 
ATOM     15  O4*   C A   1       5.158   4.259  17.013  0.00  0.00    +0.000 OA
BRANCH  13  16
ATOM     16  O3*   C A   1       5.452   6.835  15.297  0.00  0.00    +0.000 OA
ATOM     17  H3*   C A   1       4.829   7.584  15.259  0.00  0.00    +0.000 HD
ENDBRANCH  13  16
BRANCH  14  18
ATOM     18  C5*   C A   1       7.270   4.971  17.980  0.00  0.00    +0.000 C 
BRANCH  18  19
ATOM     19  O5*   C A   1       8.304   4.033  17.682  0.00  0.00    +0.000 OA
ATOM     20  H5*   C A   1       8.080   3.613  16.832  0.00  0.00    +0.000 HD
ENDBRANCH  18  19
ENDBRANCH  14  18
ENDBRANCH   5  11
TORSDOF 4
ENDMDL
MODEL 5
REMARK VINA RESULT:      -6.5      1.752      1.996
REMARK  Name = 
REMARK  4 active torsions:
REMARK  status: ('A' for Active; 'I' for Inactive)
REMARK    1  A    between atoms: N1_5  and  C1*_6
REMARK    2  A    between atoms: C3*_8  and  O3*_9
REMARK    3  A    between atoms: C4*_10  and  C5*_11
REMARK    4  A    between atoms: C5*_11  and  O5*_12
REMARK                            x       y       z     vdW  Elec       q    Type
REMARK                         _______ _______ _______ _____ _____    ______ ____
ROOT
ATOM      1  N4    C A   1       7.456   5.374  14.337  0.00  0.00    +0.000 N 
ATOM      2  C4    C A   1       6.460   5.227  15.262  0.00  0.00    +0.000 A 
ATOM      3  C5    C A   1       5.949   3.880  15.571  0.00  0.00    +0.000 A 
ATOM      4  C6    C A   1       5.003   3.818  16.499  0.00  0.00    +0.000 A 
ATOM      5  N1    C A   1       4.509   4.950  17.109  0.00  0.00    +0.000 N 
ATOM      6  C2    C A   1       4.994   6.214  16.756  0.00  0.00    +0.000 A 
ATOM      7  O2    C A   1       4.518   7.237  17.261  0.00  0.00    +0.000 OA
ATOM      8  N3    C A   1       6.009   6.300  15.835  0.00  0.00    +0.000 NA
ATOM      9  H41   C A   1       8.075   4.595  14.162  0.00  0.00    +0.000 HD
ATOM     10  H42   C A   1       7.927   6.272  14.402  0.00  0.00    +0.000 HD
ENDROOT
BRANCH   5  11
ATOM     11  C1*   C A   1       3.434   4.859  18.092  0.00  0.00    +0.000 C 
ATOM     12  C2*   C A   1       2.354   3.828  17.772  0.00  0.00    +0.000 C 
ATOM     13  C3*   C A   1       1.883   3.418  19.152  0.00  0.00    +0.000 C 
ATOM     14  C4*   C A   1       3.137   3.524  20.015  0.00  0.00    +0.000 C 
ATOM     15  O4*   C A   1       3.980   4.516  19.385  0.00  0.00    +0.000 OA
BRANCH  13  16
ATOM     16  O3*   C A   1       0.883   4.336  19.598  0.00  0.00    +0.000 OA
ATOM     17  H3*   C A   1       0.720   4.197  20.549  0.00  0.00    +0.000 HD
ENDBRANCH  13  16
BRANCH  14  18
ATOM     18  C5*   C A   1       3.907   2.200  20.115  0.00  0.00    +0.000 C 
BRANCH  18  19
ATOM     19  O5*   C A   1       5.273   2.365  19.732  0.00  0.00    +0.000 OA
ATOM     20  H5*   C A   1       5.785   1.665  20.175  0.00  0.00    +0.000 HD
ENDBRANCH  18  19
ENDBRANCH  14  18
ENDBRANCH   5  11
TORSDOF 4
ENDMDL
MODEL 6
REMARK VINA RESULT:      -6.5      1.258      1.284
REMARK  Name = 
REMARK  4 active torsions:
REMARK  status: ('A' for Active; 'I' for Inactive)
REMARK    1  A    between atoms: N1_5  and  C1*_6
REMARK    2  A    between atoms: C3*_8  and  O3*_9
REMARK    3  A    between atoms: C4*_10  and  C5*_11
REMARK    4  A    between atoms: C5*_11  and  O5*_12
REMARK                            x       y       z     vdW  Elec       q    Type
REMARK                         _______ _______ _______ _____ _____    ______ ____
ROOT
ATOM      1  N4    C A   1       7.262   5.298  15.303  0.00  0.00    +0.000 N 
ATOM      2  C4    C A   1       6.480   4.884  16.345  0.00  0.00    +0.000 A 
ATOM      3  C5    C A   1       5.231   4.154  16.070  0.00  0.00    +0.000 A 
ATOM      4  C6    C A   1       4.543   3.762  17.136  0.00  0.00    +0.000 A 
ATOM      5  N1    C A   1       4.959   4.053  18.415  0.00  0.00    +0.000 N 
ATOM      6  C2    C A   1       6.131   4.785  18.632  0.00  0.00    +0.000 A 
ATOM      7  O2    C A   1       6.482   5.095  19.775  0.00  0.00    +0.000 OA
ATOM      8  N3    C A   1       6.887   5.157  17.547  0.00  0.00    +0.000 NA
ATOM      9  H41   C A   1       7.201   4.803  14.425  0.00  0.00    +0.000 HD
ATOM     10  H42   C A   1       8.211   5.526  15.585  0.00  0.00    +0.000 HD
ENDROOT
BRANCH   5  11
ATOM     11  C1*   C A   1       4.158   3.653  19.569  0.00  0.00    +0.000 C 
ATOM     12  C2*   C A   1       3.052   4.632  19.956  0.00  0.00    +0.000 C 
ATOM     13  C3*   C A   1       2.010   3.715  20.562  0.00  0.00    +0.000 C 
ATOM     14  C4*   C A   1       2.158   2.417  19.773  0.00  0.00    +0.000 C 
ATOM     15  O4*   C A   1       3.527   2.379  19.310  0.00  0.00    +0.000 OA
BRANCH  13  16
ATOM     16  O3*   C A   1       2.316   3.506  21.943  0.00  0.00    +0.000 OA
ATOM     17  H3*   C A   1       3.279   3.396  22.045  0.00  0.00    +0.000 HD
ENDBRANCH  13  16
BRANCH  14  18
ATOM     18  C5*   C A   1       1.215   2.341  18.565  0.00  0.00    +0.000 C 
BRANCH  18  19
ATOM     19  O5*   C A   1       1.152   3.592  17.878  0.00  0.00    +0.000 OA
ATOM     20  H5*   C A   1       0.212   3.838  17.809  0.00  0.00    +0.000 HD
ENDBRANCH  18  19
ENDBRANCH  14  18
ENDBRANCH   5  11
TORSDOF 4
ENDMDL
MODEL 7
REMARK VINA RESULT:      -6.5      1.581      1.923
REMARK  Name = 
REMARK  4 active torsions:
REMARK  status: ('A' for Active; 'I' for Inactive)
REMARK    1  A    between atoms: N1_5  and  C1*_6
REMARK    2  A    between atoms: C3*_8  and  O3*_9
REMARK    3  A    between atoms: C4*_10  and  C5*_11
REMARK    4  A    between atoms: C5*_11  and  O5*_12
REMARK                            x       y       z     vdW  Elec       q    Type
REMARK                         _______ _______ _______ _____ _____    ______ ____
ROOT
ATOM      1  N4    C A   1       7.407   4.447  12.735  0.00  0.00    +0.000 N 
ATOM      2  C4    C A   1       6.858   4.632  13.973  0.00  0.00    +0.000 A 
ATOM      3  C5    C A   1       5.611   3.931  14.326  0.00  0.00    +0.000 A 
ATOM      4  C6    C A   1       5.157   4.141  15.555  0.00  0.00    +0.000 A 
ATOM      5  N1    C A   1       5.797   4.990  16.430  0.00  0.00    +0.000 N 
ATOM      6  C2    C A   1       6.957   5.669  16.040  0.00  0.00    +0.000 A 
ATOM      7  O2    C A   1       7.506   6.472  16.802  0.00  0.00    +0.000 OA
ATOM      8  N3    C A   1       7.475   5.428  14.791  0.00  0.00    +0.000 NA
ATOM      9  H41   C A   1       7.201   3.593  12.235  0.00  0.00    +0.000 HD
ATOM     10  H42   C A   1       8.382   4.729  12.687  0.00  0.00    +0.000 HD
ENDROOT
BRANCH   5  11
ATOM     11  C1*   C A   1       5.250   5.243  17.760  0.00  0.00    +0.000 C 
ATOM     12  C2*   C A   1       3.725   5.264  17.836  0.00  0.00    +0.000 C 
ATOM     13  C3*   C A   1       3.468   4.785  19.250  0.00  0.00    +0.000 C 
ATOM     14  C4*   C A   1       4.609   3.809  19.521  0.00  0.00    +0.000 C 
ATOM     15  O4*   C A   1       5.708   4.226  18.679  0.00  0.00    +0.000 OA
BRANCH  13  16
ATOM     16  O3*   C A   1       3.533   5.900  20.141  0.00  0.00    +0.000 OA
ATOM     17  H3*   C A   1       4.176   5.709  20.849  0.00  0.00    +0.000 HD
ENDBRANCH  13  16
BRANCH  14  18
ATOM     18  C5*   C A   1       4.243   2.356  19.188  0.00  0.00    +0.000 C 
BRANCH  18  19
ATOM     19  O5*   C A   1       5.114   1.438  19.851  0.00  0.00    +0.000 OA
ATOM     20  H5*   C A   1       5.928   1.376  19.321  0.00  0.00    +0.000 HD
ENDBRANCH  18  19
ENDBRANCH  14  18
ENDBRANCH   5  11
TORSDOF 4
ENDMDL
MODEL 8
REMARK VINA RESULT:      -6.5      1.267      1.272
REMARK  Name = 
REMARK  4 active torsions:
REMARK  status: ('A' for Active; 'I' for Inactive)
REMARK    1  A    between atoms: N1_5  and  C1*_6
REMARK    2  A    between atoms: C3*_8  and  O3*_9
REMARK    3  A    between atoms: C4*_10  and  C5*_11
REMARK    4  A    between atoms: C5*_11  and  O5*_12
REMARK                            x       y       z     vdW  Elec       q    Type
REMARK                         _______ _______ _______ _____ _____    ______ ____
ROOT
ATOM      1  N4    C A   1       7.754   5.259  13.850  0.00  0.00    +0.000 N 
ATOM      2  C4    C A   1       6.988   5.163  14.979  0.00  0.00    +0.000 A 
ATOM      3  C5    C A   1       5.786   4.312  14.971  0.00  0.00    +0.000 A 
ATOM      4  C6    C A   1       5.112   4.250  16.113  0.00  0.00    +0.000 A 
ATOM      5  N1    C A   1       5.499   4.966  17.223  0.00  0.00    +0.000 N 
ATOM      6  C2    C A   1       6.624   5.797  17.176  0.00  0.00    +0.000 A 
ATOM      7  O2    C A   1       6.946   6.483  18.152  0.00  0.00    +0.000 OA
ATOM      8  N3    C A   1       7.367   5.837  16.021  0.00  0.00    +0.000 NA
ATOM      9  H41   C A   1       7.730   4.501  13.183  0.00  0.00    +0.000 HD
ATOM     10  H42   C A   1       8.685   5.622  14.033  0.00  0.00    +0.000 HD
ENDROOT
BRANCH   5  11
ATOM     11  C1*   C A   1       4.712   4.920  18.453  0.00  0.00    +0.000 C 
ATOM     12  C2*   C A   1       3.461   5.795  18.450  0.00  0.00    +0.000 C 
ATOM     13  C3*   C A   1       2.535   5.032  19.374  0.00  0.00    +0.000 C 
ATOM     14  C4*   C A   1       2.903   3.569  19.139  0.00  0.00    +0.000 C 
ATOM     15  O4*   C A   1       4.283   3.564  18.708  0.00  0.00    +0.000 OA
BRANCH  13  16
ATOM     16  O3*   C A   1       2.804   5.411  20.726  0.00  0.00    +0.000 OA
ATOM     17  H3*   C A   1       3.409   6.176  20.730  0.00  0.00    +0.000 HD
ENDBRANCH  13  16
BRANCH  14  18
ATOM     18  C5*   C A   1       2.036   2.900  18.063  0.00  0.00    +0.000 C 
BRANCH  18  19
ATOM     19  O5*   C A   1       1.110   3.826  17.495  0.00  0.00    +0.000 OA
ATOM     20  H5*   C A   1       0.447   4.031  18.180  0.00  0.00    +0.000 HD
ENDBRANCH  18  19
ENDBRANCH  14  18
ENDBRANCH   5  11
TORSDOF 4
ENDMDL
MODEL 9
REMARK VINA RESULT:      -6.5      2.517      5.375
REMARK  Name = 
REMARK  4 active torsions:
REMARK  status: ('A' for Active; 'I' for Inactive)
REMARK    1  A    between atoms: N1_5  and  C1*_6
REMARK    2  A    between atoms: C3*_8  and  O3*_9
REMARK    3  A    between atoms: C4*_10  and  C5*_11
REMARK    4  A    between atoms: C5*_11  and  O5*_12
REMARK                            x       y       z     vdW  Elec       q    Type
REMARK                         _______ _______ _______ _____ _____    ______ ____
ROOT
ATOM      1  N4    C A   1       1.509   2.602  21.883  0.00  0.00    +0.000 N 
ATOM      2  C4    C A   1       2.213   3.158  20.851  0.00  0.00    +0.000 A 
ATOM      3  C5    C A   1       2.511   4.600  20.871  0.00  0.00    +0.000 A 
ATOM      4  C6    C A   1       3.222   5.058  19.847  0.00  0.00    +0.000 A 
ATOM      5  N1    C A   1       3.623   4.238  18.817  0.00  0.00    +0.000 N 
ATOM      6  C2    C A   1       3.282   2.880  18.817  0.00  0.00    +0.000 A 
ATOM      7  O2    C A   1       3.593   2.150  17.870  0.00  0.00    +0.000 OA
ATOM      8  N3    C A   1       2.592   2.373  19.890  0.00  0.00    +0.000 NA
ATOM      9  H41   C A   1       1.530   3.056  22.785  0.00  0.00    +0.000 HD
ATOM     10  H42   C A   1       1.601   1.590  21.926  0.00  0.00    +0.000 HD
ENDROOT
BRANCH   5  11
ATOM     11  C1*   C A   1       4.361   4.776  17.678  0.00  0.00    +0.000 C 
ATOM     12  C2*   C A   1       4.303   6.294  17.533  0.00  0.00    +0.000 C 
ATOM     13  C3*   C A   1       5.630   6.604  16.871  0.00  0.00    +0.000 C 
ATOM     14  C4*   C A   1       6.578   5.549  17.435  0.00  0.00    +0.000 C 
ATOM     15  O4*   C A   1       5.756   4.411  17.782  0.00  0.00    +0.000 OA
BRANCH  13  16
ATOM     16  O3*   C A   1       5.493   6.457  15.456  0.00  0.00    +0.000 OA
ATOM     17  H3*   C A   1       4.815   7.078  15.133  0.00  0.00    +0.000 HD
ENDBRANCH  13  16
BRANCH  14  18
ATOM     18  C5*   C A   1       7.330   6.027  18.684  0.00  0.00    +0.000 C 
BRANCH  18  19
ATOM     19  O5*   C A   1       6.951   5.274  19.836  0.00  0.00    +0.000 OA
ATOM     20  H5*   C A   1       6.461   4.492  19.524  0.00  0.00    +0.000 HD
ENDBRANCH  18  19
ENDBRANCH  14  18
ENDBRANCH   5  11
TORSDOF 4
ENDMDL
