MODEL 1
REMARK VINA RESULT:      -7.0      0.000      0.000
REMARK  Name = 
REMARK  6 active torsions:
REMARK  status: ('A' for Active; 'I' for Inactive)
REMARK    1  A    between atoms: C_1  and  C_2
REMARK    2  A    between atoms: C_2  and  C_4
REMARK    3  A    between atoms: C_7  and  C_8
REMARK    4  A    between atoms: N_14  and  S_15
REMARK    5  A    between atoms: S_15  and  C_18
REMARK    6  A    between atoms: C_22  and  C_23
REMARK                            x       y       z     vdW  Elec       q    Type
REMARK                         _______ _______ _______ _____ _____    ______ ____
ROOT
ATOM      1  C   UNL     1       6.710   4.607  14.351  0.00  0.00    +0.000 C 
ATOM      2  C   UNL     1       6.022   3.478  14.138  0.00  0.00    +0.000 C 
ATOM      3  C   UNL     1       5.056   2.962  15.145  0.00  0.00    +0.000 C 
ATOM      4  C   UNL     1       5.212   3.523  16.579  0.00  0.00    +0.000 C 
ATOM      5  N   UNL     1       5.640   4.961  16.619  0.00  0.00    +0.000 NA
ATOM      6  C   UNL     1       6.617   5.434  15.596  0.00  0.00    +0.000 C 
ENDROOT
BRANCH   4   7
ATOM      7  C   UNL     1       3.877   3.237  17.262  0.00  0.00    +0.000 A 
ATOM      8  C   UNL     1       3.774   2.225  18.230  0.00  0.00    +0.000 A 
ATOM      9  C   UNL     1       2.558   1.981  18.872  0.00  0.00    +0.000 A 
ATOM     10  C   UNL     1       1.430   2.732  18.545  0.00  0.00    +0.000 A 
ATOM     11  C   UNL     1       1.502   3.691  17.538  0.00  0.00    +0.000 A 
ATOM     12  C   UNL     1       2.712   3.931  16.889  0.00  0.00    +0.000 A 
ENDBRANCH   4   7
BRANCH   1  14
ATOM     13  C   UNL     1       7.442   4.823  11.867  0.00  0.00    +0.000 C 
ATOM     14  C   UNL     1       7.654   5.155  13.321  0.00  0.00    +0.000 C 
ATOM     15  O   UNL     1       8.589   5.872  13.674  0.00  0.00    +0.000 OA
ENDBRANCH   1  14
BRANCH   5  16
ATOM     16  S   UNL     1       5.956   5.670  18.167  0.00  0.00    +0.000 S 
ATOM     17  O   UNL     1       6.375   4.608  19.056  0.00  0.00    +0.000 OA
ATOM     18  O   UNL     1       6.784   6.845  18.008  0.00  0.00    +0.000 OA
BRANCH  16  19
ATOM     19  C   UNL     1       4.362   6.241  18.746  0.00  0.00    +0.000 A 
ATOM     20  C   UNL     1       3.758   5.612  19.841  0.00  0.00    +0.000 A 
ATOM     21  C   UNL     1       2.502   6.041  20.277  0.00  0.00    +0.000 A 
ATOM     22  C   UNL     1       1.851   7.092  19.625  0.00  0.00    +0.000 A 
ATOM     23  C   UNL     1       2.435   7.701  18.507  0.00  0.00    +0.000 A 
ATOM     24  C   UNL     1       1.749   8.832  17.798  0.00  0.00    +0.000 C 
ATOM     25  C   UNL     1       3.680   7.244  18.049  0.00  0.00    +0.000 A 
ENDBRANCH  16  19
ENDBRANCH   5  16
TORSDOF 4
ENDMDL
MODEL 2
REMARK VINA RESULT:      -6.6      0.430      1.738
REMARK  Name = 
REMARK  6 active torsions:
REMARK  status: ('A' for Active; 'I' for Inactive)
REMARK    1  A    between atoms: C_1  and  C_2
REMARK    2  A    between atoms: C_2  and  C_4
REMARK    3  A    between atoms: C_7  and  C_8
REMARK    4  A    between atoms: N_14  and  S_15
REMARK    5  A    between atoms: S_15  and  C_18
REMARK    6  A    between atoms: C_22  and  C_23
REMARK                            x       y       z     vdW  Elec       q    Type
REMARK                         _______ _______ _______ _____ _____    ______ ____
ROOT
ATOM      1  C   UNL     1       6.894   4.747  14.174  0.00  0.00    +0.000 C 
ATOM      2  C   UNL     1       6.271   3.580  13.970  0.00  0.00    +0.000 C 
ATOM      3  C   UNL     1       5.334   3.020  14.980  0.00  0.00    +0.000 C 
ATOM      4  C   UNL     1       5.454   3.603  16.409  0.00  0.00    +0.000 C 
ATOM      5  N   UNL     1       5.800   5.062  16.436  0.00  0.00    +0.000 NA
ATOM      6  C   UNL     1       6.751   5.580  15.410  0.00  0.00    +0.000 C 
ENDROOT
BRANCH   4   7
ATOM      7  C   UNL     1       4.136   3.248  17.092  0.00  0.00    +0.000 A 
ATOM      8  C   UNL     1       2.951   3.920  16.749  0.00  0.00    +0.000 A 
ATOM      9  C   UNL     1       1.741   3.577  17.356  0.00  0.00    +0.000 A 
ATOM     10  C   UNL     1       1.702   2.573  18.322  0.00  0.00    +0.000 A 
ATOM     11  C   UNL     1       2.880   1.946  18.720  0.00  0.00    +0.000 A 
ATOM     12  C   UNL     1       4.091   2.293  18.123  0.00  0.00    +0.000 A 
ENDBRANCH   4   7
BRANCH   1  14
ATOM     13  C   UNL     1       7.526   5.107  11.678  0.00  0.00    +0.000 C 
ATOM     14  C   UNL     1       7.808   5.338  13.140  0.00  0.00    +0.000 C 
ATOM     15  O   UNL     1       8.777   6.008  13.497  0.00  0.00    +0.000 OA
ENDBRANCH   1  14
BRANCH   5  16
ATOM     16  S   UNL     1       6.072   5.803  17.977  0.00  0.00    +0.000 S 
ATOM     17  O   UNL     1       6.618   4.792  18.857  0.00  0.00    +0.000 OA
ATOM     18  O   UNL     1       6.768   7.058  17.803  0.00  0.00    +0.000 OA
BRANCH  16  19
ATOM     19  C   UNL     1       4.438   6.204  18.590  0.00  0.00    +0.000 A 
ATOM     20  C   UNL     1       3.757   7.309  18.067  0.00  0.00    +0.000 A 
ATOM     21  C   UNL     1       2.493   7.638  18.563  0.00  0.00    +0.000 A 
ATOM     22  C   UNL     1       1.912   6.870  19.576  0.00  0.00    +0.000 A 
ATOM     23  C   UNL     1       2.606   5.785  20.128  0.00  0.00    +0.000 A 
ATOM     24  C   UNL     1       1.994   4.950  21.214  0.00  0.00    +0.000 C 
ATOM     25  C   UNL     1       3.889   5.479  19.652  0.00  0.00    +0.000 A 
ENDBRANCH  16  19
ENDBRANCH   5  16
TORSDOF 4
ENDMDL
MODEL 3
REMARK VINA RESULT:      -6.6      0.559      1.389
REMARK  Name = 
REMARK  6 active torsions:
REMARK  status: ('A' for Active; 'I' for Inactive)
REMARK    1  A    between atoms: C_1  and  C_2
REMARK    2  A    between atoms: C_2  and  C_4
REMARK    3  A    between atoms: C_7  and  C_8
REMARK    4  A    between atoms: N_14  and  S_15
REMARK    5  A    between atoms: S_15  and  C_18
REMARK    6  A    between atoms: C_22  and  C_23
REMARK                            x       y       z     vdW  Elec       q    Type
REMARK                         _______ _______ _______ _____ _____    ______ ____
ROOT
ATOM      1  C   UNL     1       6.762   4.681  14.222  0.00  0.00    +0.000 C 
ATOM      2  C   UNL     1       6.200   3.467  14.188  0.00  0.00    +0.000 C 
ATOM      3  C   UNL     1       5.285   3.009  15.268  0.00  0.00    +0.000 C 
ATOM      4  C   UNL     1       5.368   3.795  16.600  0.00  0.00    +0.000 C 
ATOM      5  N   UNL     1       5.641   5.259  16.418  0.00  0.00    +0.000 NA
ATOM      6  C   UNL     1       6.571   5.673  15.327  0.00  0.00    +0.000 C 
ENDROOT
BRANCH   4   7
ATOM      7  C   UNL     1       4.066   3.476  17.328  0.00  0.00    +0.000 A 
ATOM      8  C   UNL     1       4.069   2.660  18.472  0.00  0.00    +0.000 A 
ATOM      9  C   UNL     1       2.880   2.389  19.152  0.00  0.00    +0.000 A 
ATOM     10  C   UNL     1       1.674   2.914  18.691  0.00  0.00    +0.000 A 
ATOM     11  C   UNL     1       1.647   3.668  17.520  0.00  0.00    +0.000 A 
ATOM     12  C   UNL     1       2.831   3.932  16.833  0.00  0.00    +0.000 A 
ENDBRANCH   4   7
BRANCH   1  14
ATOM     13  C   UNL     1       7.383   4.721  11.698  0.00  0.00    +0.000 C 
ATOM     14  C   UNL     1       7.651   5.164  13.113  0.00  0.00    +0.000 C 
ATOM     15  O   UNL     1       8.588   5.918  13.370  0.00  0.00    +0.000 OA
ENDBRANCH   1  14
BRANCH   5  16
ATOM     16  S   UNL     1       5.867   6.224  17.838  0.00  0.00    +0.000 S 
ATOM     17  O   UNL     1       6.332   5.348  18.892  0.00  0.00    +0.000 OA
ATOM     18  O   UNL     1       6.619   7.415  17.507  0.00  0.00    +0.000 OA
BRANCH  16  19
ATOM     19  C   UNL     1       4.223   6.766  18.294  0.00  0.00    +0.000 A 
ATOM     20  C   UNL     1       3.623   7.817  17.592  0.00  0.00    +0.000 A 
ATOM     21  C   UNL     1       2.350   8.257  17.964  0.00  0.00    +0.000 A 
ATOM     22  C   UNL     1       1.680   7.653  19.031  0.00  0.00    +0.000 A 
ATOM     23  C   UNL     1       2.291   6.624  19.759  0.00  0.00    +0.000 A 
ATOM     24  C   UNL     1       1.583   5.964  20.905  0.00  0.00    +0.000 C 
ATOM     25  C   UNL     1       3.584   6.208  19.406  0.00  0.00    +0.000 A 
ENDBRANCH  16  19
ENDBRANCH   5  16
TORSDOF 4
ENDMDL
MODEL 4
REMARK VINA RESULT:      -6.6      2.401      4.688
REMARK  Name = 
REMARK  6 active torsions:
REMARK  status: ('A' for Active; 'I' for Inactive)
REMARK    1  A    between atoms: C_1  and  C_2
REMARK    2  A    between atoms: C_2  and  C_4
REMARK    3  A    between atoms: C_7  and  C_8
REMARK    4  A    between atoms: N_14  and  S_15
REMARK    5  A    between atoms: S_15  and  C_18
REMARK    6  A    between atoms: C_22  and  C_23
REMARK                            x       y       z     vdW  Elec       q    Type
REMARK                         _______ _______ _______ _____ _____    ______ ____
ROOT
ATOM      1  C   UNL     1       5.813   5.459  16.318  0.00  0.00    +0.000 C 
ATOM      2  C   UNL     1       5.795   6.791  16.439  0.00  0.00    +0.000 C 
ATOM      3  C   UNL     1       4.673   7.489  17.122  0.00  0.00    +0.000 C 
ATOM      4  C   UNL     1       3.366   6.673  17.278  0.00  0.00    +0.000 C 
ATOM      5  N   UNL     1       3.596   5.209  17.518  0.00  0.00    +0.000 NA
ATOM      6  C   UNL     1       4.729   4.548  16.806  0.00  0.00    +0.000 C 
ENDROOT
BRANCH   4   7
ATOM      7  C   UNL     1       2.587   7.383  18.380  0.00  0.00    +0.000 A 
ATOM      8  C   UNL     1       2.532   6.845  19.677  0.00  0.00    +0.000 A 
ATOM      9  C   UNL     1       1.839   7.510  20.691  0.00  0.00    +0.000 A 
ATOM     10  C   UNL     1       1.181   8.709  20.420  0.00  0.00    +0.000 A 
ATOM     11  C   UNL     1       1.170   9.218  19.124  0.00  0.00    +0.000 A 
ATOM     12  C   UNL     1       1.852   8.551  18.107  0.00  0.00    +0.000 A 
ENDBRANCH   4   7
BRANCH   1  14
ATOM     13  C   UNL     1       6.971   4.552  14.175  0.00  0.00    +0.000 C 
ATOM     14  C   UNL     1       6.964   4.746  15.668  0.00  0.00    +0.000 C 
ATOM     15  O   UNL     1       7.891   4.330  16.362  0.00  0.00    +0.000 OA
ENDBRANCH   1  14
BRANCH   5  16
ATOM     16  S   UNL     1       2.212   4.173  17.597  0.00  0.00    +0.000 S 
ATOM     17  O   UNL     1       1.035   5.015  17.568  0.00  0.00    +0.000 OA
ATOM     18  O   UNL     1       2.350   3.095  16.643  0.00  0.00    +0.000 OA
BRANCH  16  19
ATOM     19  C   UNL     1       2.285   3.430  19.224  0.00  0.00    +0.000 A 
ATOM     20  C   UNL     1       1.192   3.555  20.090  0.00  0.00    +0.000 A 
ATOM     21  C   UNL     1       1.259   2.997  21.370  0.00  0.00    +0.000 A 
ATOM     22  C   UNL     1       2.409   2.319  21.783  0.00  0.00    +0.000 A 
ATOM     23  C   UNL     1       3.519   2.223  20.933  0.00  0.00    +0.000 A 
ATOM     24  C   UNL     1       4.759   1.497  21.363  0.00  0.00    +0.000 C 
ATOM     25  C   UNL     1       3.462   2.815  19.662  0.00  0.00    +0.000 A 
ENDBRANCH  16  19
ENDBRANCH   5  16
TORSDOF 4
ENDMDL
MODEL 5
REMARK VINA RESULT:      -6.5      2.410      4.710
REMARK  Name = 
REMARK  6 active torsions:
REMARK  status: ('A' for Active; 'I' for Inactive)
REMARK    1  A    between atoms: C_1  and  C_2
REMARK    2  A    between atoms: C_2  and  C_4
REMARK    3  A    between atoms: C_7  and  C_8
REMARK    4  A    between atoms: N_14  and  S_15
REMARK    5  A    between atoms: S_15  and  C_18
REMARK    6  A    between atoms: C_22  and  C_23
REMARK                            x       y       z     vdW  Elec       q    Type
REMARK                         _______ _______ _______ _____ _____    ______ ____
ROOT
ATOM      1  C   UNL     1       5.548   5.340  15.965  0.00  0.00    +0.000 C 
ATOM      2  C   UNL     1       5.549   6.660  16.188  0.00  0.00    +0.000 C 
ATOM      3  C   UNL     1       4.511   7.300  17.039  0.00  0.00    +0.000 C 
ATOM      4  C   UNL     1       3.226   6.469  17.276  0.00  0.00    +0.000 C 
ATOM      5  N   UNL     1       3.475   4.993  17.378  0.00  0.00    +0.000 NA
ATOM      6  C   UNL     1       4.520   4.391  16.499  0.00  0.00    +0.000 C 
ENDROOT
BRANCH   4   7
ATOM      7  C   UNL     1       2.574   7.091  18.507  0.00  0.00    +0.000 A 
ATOM      8  C   UNL     1       1.931   8.337  18.421  0.00  0.00    +0.000 A 
ATOM      9  C   UNL     1       1.313   8.894  19.542  0.00  0.00    +0.000 A 
ATOM     10  C   UNL     1       1.344   8.224  20.765  0.00  0.00    +0.000 A 
ATOM     11  C   UNL     1       2.036   7.021  20.880  0.00  0.00    +0.000 A 
ATOM     12  C   UNL     1       2.662   6.467  19.764  0.00  0.00    +0.000 A 
ENDBRANCH   4   7
BRANCH   1  14
ATOM     13  C   UNL     1       6.239   3.929  13.895  0.00  0.00    +0.000 C 
ATOM     14  C   UNL     1       6.617   4.684  15.142  0.00  0.00    +0.000 C 
ATOM     15  O   UNL     1       7.794   4.771  15.493  0.00  0.00    +0.000 OA
ENDBRANCH   1  14
BRANCH   5  16
ATOM     16  S   UNL     1       2.103   3.948  17.531  0.00  0.00    +0.000 S 
ATOM     17  O   UNL     1       0.917   4.775  17.481  0.00  0.00    +0.000 OA
ATOM     18  O   UNL     1       2.237   2.826  16.628  0.00  0.00    +0.000 OA
BRANCH  16  19
ATOM     19  C   UNL     1       2.211   3.285  19.190  0.00  0.00    +0.000 A 
ATOM     20  C   UNL     1       1.124   3.422  20.061  0.00  0.00    +0.000 A 
ATOM     21  C   UNL     1       1.218   2.927  21.365  0.00  0.00    +0.000 A 
ATOM     22  C   UNL     1       2.389   2.300  21.797  0.00  0.00    +0.000 A 
ATOM     23  C   UNL     1       3.492   2.192  20.941  0.00  0.00    +0.000 A 
ATOM     24  C   UNL     1       4.755   1.519  21.391  0.00  0.00    +0.000 C 
ATOM     25  C   UNL     1       3.408   2.721  19.645  0.00  0.00    +0.000 A 
ENDBRANCH  16  19
ENDBRANCH   5  16
TORSDOF 4
ENDMDL
MODEL 6
REMARK VINA RESULT:      -5.7      5.514      9.038
REMARK  Name = 
REMARK  6 active torsions:
REMARK  status: ('A' for Active; 'I' for Inactive)
REMARK    1  A    between atoms: C_1  and  C_2
REMARK    2  A    between atoms: C_2  and  C_4
REMARK    3  A    between atoms: C_7  and  C_8
REMARK    4  A    between atoms: N_14  and  S_15
REMARK    5  A    between atoms: S_15  and  C_18
REMARK    6  A    between atoms: C_22  and  C_23
REMARK                            x       y       z     vdW  Elec       q    Type
REMARK                         _______ _______ _______ _____ _____    ______ ____
ROOT
ATOM      1  C   UNL     1       1.996  13.488  19.972  0.00  0.00    +0.000 C 
ATOM      2  C   UNL     1       1.415  13.851  18.823  0.00  0.00    +0.000 C 
ATOM      3  C   UNL     1       0.276  13.078  18.256  0.00  0.00    +0.000 C 
ATOM      4  C   UNL     1       0.099  11.640  18.802  0.00  0.00    +0.000 C 
ATOM      5  N   UNL     1       0.453  11.500  20.253  0.00  0.00    +0.000 NA
ATOM      6  C   UNL     1       1.607  12.287  20.777  0.00  0.00    +0.000 C 
ENDROOT
BRANCH   4   7
ATOM      7  C   UNL     1      -1.338  11.262  18.457  0.00  0.00    +0.000 A 
ATOM      8  C   UNL     1      -2.416  11.944  19.044  0.00  0.00    +0.000 A 
ATOM      9  C   UNL     1      -3.731  11.614  18.708  0.00  0.00    +0.000 A 
ATOM     10  C   UNL     1      -3.985  10.590  17.796  0.00  0.00    +0.000 A 
ATOM     11  C   UNL     1      -2.927   9.860  17.260  0.00  0.00    +0.000 A 
ATOM     12  C   UNL     1      -1.614  10.181  17.600  0.00  0.00    +0.000 A 
ENDBRANCH   4   7
BRANCH   1  14
ATOM     13  C   UNL     1       3.945  15.184  19.686  0.00  0.00    +0.000 C 
ATOM     14  C   UNL     1       3.117  14.289  20.570  0.00  0.00    +0.000 C 
ATOM     15  O   UNL     1       3.345  14.207  21.776  0.00  0.00    +0.000 OA
ENDBRANCH   1  14
BRANCH   5  16
ATOM     16  S   UNL     1       0.403   9.916  20.950  0.00  0.00    +0.000 S 
ATOM     17  O   UNL     1       1.104   9.972  22.215  0.00  0.00    +0.000 OA
ATOM     18  O   UNL     1      -0.947   9.399  20.898  0.00  0.00    +0.000 OA
BRANCH  16  19
ATOM     19  C   UNL     1       1.383   8.897  19.852  0.00  0.00    +0.000 A 
ATOM     20  C   UNL     1       1.686   9.361  18.567  0.00  0.00    +0.000 A 
ATOM     21  C   UNL     1       2.430   8.556  17.701  0.00  0.00    +0.000 A 
ATOM     22  C   UNL     1       2.868   7.294  18.114  0.00  0.00    +0.000 A 
ATOM     23  C   UNL     1       2.536   6.811  19.386  0.00  0.00    +0.000 A 
ATOM     24  C   UNL     1       3.001   5.460  19.843  0.00  0.00    +0.000 C 
ATOM     25  C   UNL     1       1.759   7.607  20.240  0.00  0.00    +0.000 A 
ENDBRANCH  16  19
ENDBRANCH   5  16
TORSDOF 4
ENDMDL
MODEL 7
REMARK VINA RESULT:      -5.7      9.967     13.508
REMARK  Name = 
REMARK  6 active torsions:
REMARK  status: ('A' for Active; 'I' for Inactive)
REMARK    1  A    between atoms: C_1  and  C_2
REMARK    2  A    between atoms: C_2  and  C_4
REMARK    3  A    between atoms: C_7  and  C_8
REMARK    4  A    between atoms: N_14  and  S_15
REMARK    5  A    between atoms: S_15  and  C_18
REMARK    6  A    between atoms: C_22  and  C_23
REMARK                            x       y       z     vdW  Elec       q    Type
REMARK                         _______ _______ _______ _____ _____    ______ ____
ROOT
ATOM      1  C   UNL     1      -0.679  11.047  22.244  0.00  0.00    +0.000 C 
ATOM      2  C   UNL     1      -0.271  11.758  21.186  0.00  0.00    +0.000 C 
ATOM      3  C   UNL     1      -0.953  13.021  20.797  0.00  0.00    +0.000 C 
ATOM      4  C   UNL     1      -2.373  13.229  21.377  0.00  0.00    +0.000 C 
ATOM      5  N   UNL     1      -2.541  12.682  22.764  0.00  0.00    +0.000 NA
ATOM      6  C   UNL     1      -1.847  11.408  23.109  0.00  0.00    +0.000 C 
ENDROOT
BRANCH   4   7
ATOM      7  C   UNL     1      -2.639  14.725  21.245  0.00  0.00    +0.000 A 
ATOM      8  C   UNL     1      -3.833  15.190  20.670  0.00  0.00    +0.000 A 
ATOM      9  C   UNL     1      -4.086  16.560  20.573  0.00  0.00    +0.000 A 
ATOM     10  C   UNL     1      -3.145  17.481  21.034  0.00  0.00    +0.000 A 
ATOM     11  C   UNL     1      -1.928  17.034  21.543  0.00  0.00    +0.000 A 
ATOM     12  C   UNL     1      -1.669  15.667  21.633  0.00  0.00    +0.000 A 
ENDBRANCH   4   7
BRANCH   1  14
ATOM     13  C   UNL     1       0.263   8.695  21.664  0.00  0.00    +0.000 C 
ATOM     14  C   UNL     1       0.032   9.794  22.667  0.00  0.00    +0.000 C 
ATOM     15  O   UNL     1       0.420   9.679  23.829  0.00  0.00    +0.000 OA
ENDBRANCH   1  14
BRANCH   5  16
ATOM     16  S   UNL     1      -4.117  12.754  23.478  0.00  0.00    +0.000 S 
ATOM     17  O   UNL     1      -5.085  12.556  22.420  0.00  0.00    +0.000 OA
ATOM     18  O   UNL     1      -4.160  11.918  24.658  0.00  0.00    +0.000 OA
BRANCH  16  19
ATOM     19  C   UNL     1      -4.292  14.444  24.040  0.00  0.00    +0.000 A 
ATOM     20  C   UNL     1      -5.503  15.117  23.839  0.00  0.00    +0.000 A 
ATOM     21  C   UNL     1      -5.632  16.445  24.256  0.00  0.00    +0.000 A 
ATOM     22  C   UNL     1      -4.558  17.098  24.868  0.00  0.00    +0.000 A 
ATOM     23  C   UNL     1      -3.333  16.440  25.039  0.00  0.00    +0.000 A 
ATOM     24  C   UNL     1      -2.174  17.128  25.696  0.00  0.00    +0.000 C 
ATOM     25  C   UNL     1      -3.196  15.118  24.588  0.00  0.00    +0.000 A 
ENDBRANCH  16  19
ENDBRANCH   5  16
TORSDOF 4
ENDMDL
MODEL 8
REMARK VINA RESULT:      -5.7      7.162     11.528
REMARK  Name = 
REMARK  6 active torsions:
REMARK  status: ('A' for Active; 'I' for Inactive)
REMARK    1  A    between atoms: C_1  and  C_2
REMARK    2  A    between atoms: C_2  and  C_4
REMARK    3  A    between atoms: C_7  and  C_8
REMARK    4  A    between atoms: N_14  and  S_15
REMARK    5  A    between atoms: S_15  and  C_18
REMARK    6  A    between atoms: C_22  and  C_23
REMARK                            x       y       z     vdW  Elec       q    Type
REMARK                         _______ _______ _______ _____ _____    ______ ____
ROOT
ATOM      1  C   UNL     1      -2.237  13.255  22.731  0.00  0.00    +0.000 C 
ATOM      2  C   UNL     1      -1.119  13.863  23.145  0.00  0.00    +0.000 C 
ATOM      3  C   UNL     1       0.035  14.064  22.228  0.00  0.00    +0.000 C 
ATOM      4  C   UNL     1       0.053  13.176  20.961  0.00  0.00    +0.000 C 
ATOM      5  N   UNL     1      -1.312  12.900  20.400  0.00  0.00    +0.000 NA
ATOM      6  C   UNL     1      -2.439  12.696  21.356  0.00  0.00    +0.000 C 
ENDROOT
BRANCH   4   7
ATOM      7  C   UNL     1       1.006  13.879  19.999  0.00  0.00    +0.000 A 
ATOM      8  C   UNL     1       2.174  13.237  19.556  0.00  0.00    +0.000 A 
ATOM      9  C   UNL     1       3.033  13.872  18.656  0.00  0.00    +0.000 A 
ATOM     10  C   UNL     1       2.746  15.158  18.202  0.00  0.00    +0.000 A 
ATOM     11  C   UNL     1       1.627  15.832  18.686  0.00  0.00    +0.000 A 
ATOM     12  C   UNL     1       0.773  15.204  19.592  0.00  0.00    +0.000 A 
ENDBRANCH   4   7
BRANCH   1  14
ATOM     13  C   UNL     1      -4.130  14.305  24.170  0.00  0.00    +0.000 C 
ATOM     14  C   UNL     1      -3.421  13.087  23.639  0.00  0.00    +0.000 C 
ATOM     15  O   UNL     1      -3.801  11.956  23.939  0.00  0.00    +0.000 OA
ENDBRANCH   1  14
BRANCH   5  16
ATOM     16  S   UNL     1      -1.430  11.826  19.047  0.00  0.00    +0.000 S 
ATOM     17  O   UNL     1      -2.768  11.275  19.044  0.00  0.00    +0.000 OA
ATOM     18  O   UNL     1      -0.915  12.472  17.861  0.00  0.00    +0.000 OA
BRANCH  16  19
ATOM     19  C   UNL     1      -0.310  10.482  19.426  0.00  0.00    +0.000 A 
ATOM     20  C   UNL     1      -0.319   9.915  20.706  0.00  0.00    +0.000 A 
ATOM     21  C   UNL     1       0.573   8.883  21.009  0.00  0.00    +0.000 A 
ATOM     22  C   UNL     1       1.469   8.420  20.042  0.00  0.00    +0.000 A 
ATOM     23  C   UNL     1       1.506   9.009  18.772  0.00  0.00    +0.000 A 
ATOM     24  C   UNL     1       2.462   8.520  17.723  0.00  0.00    +0.000 C 
ATOM     25  C   UNL     1       0.634  10.068  18.481  0.00  0.00    +0.000 A 
ENDBRANCH  16  19
ENDBRANCH   5  16
TORSDOF 4
ENDMDL
MODEL 9
REMARK VINA RESULT:      -5.6     10.324     13.768
REMARK  Name = 
REMARK  6 active torsions:
REMARK  status: ('A' for Active; 'I' for Inactive)
REMARK    1  A    between atoms: C_1  and  C_2
REMARK    2  A    between atoms: C_2  and  C_4
REMARK    3  A    between atoms: C_7  and  C_8
REMARK    4  A    between atoms: N_14  and  S_15
REMARK    5  A    between atoms: S_15  and  C_18
REMARK    6  A    between atoms: C_22  and  C_23
REMARK                            x       y       z     vdW  Elec       q    Type
REMARK                         _______ _______ _______ _____ _____    ______ ____
ROOT
ATOM      1  C   UNL     1      -1.177  11.207  22.062  0.00  0.00    +0.000 C 
ATOM      2  C   UNL     1      -1.149  11.673  20.807  0.00  0.00    +0.000 C 
ATOM      3  C   UNL     1      -2.083  12.740  20.359  0.00  0.00    +0.000 C 
ATOM      4  C   UNL     1      -3.333  12.958  21.246  0.00  0.00    +0.000 C 
ATOM      5  N   UNL     1      -3.076  12.753  22.710  0.00  0.00    +0.000 NA
ATOM      6  C   UNL     1      -2.138  11.665  23.115  0.00  0.00    +0.000 C 
ENDROOT
BRANCH   4   7
ATOM      7  C   UNL     1      -3.840  14.350  20.877  0.00  0.00    +0.000 A 
ATOM      8  C   UNL     1      -3.040  15.483  21.101  0.00  0.00    +0.000 A 
ATOM      9  C   UNL     1      -3.495  16.753  20.739  0.00  0.00    +0.000 A 
ATOM     10  C   UNL     1      -4.756  16.909  20.167  0.00  0.00    +0.000 A 
ATOM     11  C   UNL     1      -5.586  15.802  20.003  0.00  0.00    +0.000 A 
ATOM     12  C   UNL     1      -5.139  14.534  20.372  0.00  0.00    +0.000 A 
ENDBRANCH   4   7
BRANCH   1  14
ATOM     13  C   UNL     1       0.477   9.275  21.523  0.00  0.00    +0.000 C 
ATOM     14  C   UNL     1      -0.208  10.161  22.531  0.00  0.00    +0.000 C 
ATOM     15  O   UNL     1       0.018  10.039  23.735  0.00  0.00    +0.000 OA
ENDBRANCH   1  14
BRANCH   5  16
ATOM     16  S   UNL     1      -4.423  12.859  23.792  0.00  0.00    +0.000 S 
ATOM     17  O   UNL     1      -5.590  12.380  23.085  0.00  0.00    +0.000 OA
ATOM     18  O   UNL     1      -4.070  12.285  25.072  0.00  0.00    +0.000 OA
BRANCH  16  19
ATOM     19  C   UNL     1      -4.658  14.612  24.065  0.00  0.00    +0.000 A 
ATOM     20  C   UNL     1      -3.678  15.343  24.746  0.00  0.00    +0.000 A 
ATOM     21  C   UNL     1      -3.873  16.707  24.982  0.00  0.00    +0.000 A 
ATOM     22  C   UNL     1      -5.039  17.337  24.541  0.00  0.00    +0.000 A 
ATOM     23  C   UNL     1      -6.039  16.603  23.891  0.00  0.00    +0.000 A 
ATOM     24  C   UNL     1      -7.295  17.267  23.410  0.00  0.00    +0.000 C 
ATOM     25  C   UNL     1      -5.856  15.227  23.687  0.00  0.00    +0.000 A 
ENDBRANCH  16  19
ENDBRANCH   5  16
TORSDOF 4
ENDMDL
