MODEL 1
REMARK VINA RESULT:      -8.1      0.000      0.000
REMARK  Name = 
REMARK  3 active torsions:
REMARK  status: ('A' for Active; 'I' for Inactive)
REMARK    1  A    between atoms: C_1  and  C_2
REMARK    2  A    between atoms: C_5  and  N_6
REMARK    3  A    between atoms: C_10  and  C_11
REMARK                            x       y       z     vdW  Elec       q    Type
REMARK                         _______ _______ _______ _____ _____    ______ ____
ROOT
ATOM      1  N   UNL     1       1.660   6.532  20.894  0.00  0.00    +0.000 N 
ATOM      2  C   UNL     1       2.298   5.468  20.317  0.00  0.00    +0.000 A 
ATOM      3  N   UNL     1       3.261   5.485  19.442  0.00  0.00    +0.000 NA
ATOM      4  N   UNL     1       3.485   4.204  19.080  0.00  0.00    +0.000 N 
ATOM      5  C   UNL     1       4.294   3.620  18.139  0.00  0.00    +0.000 A 
ATOM      6  N   UNL     1       4.002   2.320  18.119  0.00  0.00    +0.000 NA
ATOM      7  N   UNL     1       3.027   2.058  19.086  0.00  0.00    +0.000 NA
ATOM      8  C   UNL     1       2.762   3.209  19.632  0.00  0.00    +0.000 A 
ATOM      9  S   UNL     1       1.687   3.845  20.797  0.00  0.00    +0.000 S 
ATOM     10  H   UNL     1       0.893   6.289  21.509  0.00  0.00    +0.000 HD
ENDROOT
BRANCH   1  15
ATOM     11  C   UNL     1       0.994  11.781  18.649  0.00  0.00    +0.000 C 
ATOM     12  C   UNL     1       1.199  10.422  19.249  0.00  0.00    +0.000 A 
ATOM     13  C   UNL     1       0.859  10.149  20.575  0.00  0.00    +0.000 A 
ATOM     14  C   UNL     1       1.045   8.868  21.111  0.00  0.00    +0.000 A 
ATOM     15  C   UNL     1       1.557   7.822  20.331  0.00  0.00    +0.000 A 
ATOM     16  C   UNL     1       1.929   8.124  19.014  0.00  0.00    +0.000 A 
ATOM     17  C   UNL     1       1.743   9.400  18.474  0.00  0.00    +0.000 A 
ENDBRANCH   1  15
BRANCH   5  18
ATOM     18  C   UNL     1       5.252   4.338  17.301  0.00  0.00    +0.000 A 
ATOM     19  C   UNL     1       5.112   4.397  15.910  0.00  0.00    +0.000 A 
ATOM     20  C   UNL     1       6.058   5.086  15.173  0.00  0.00    +0.000 A 
ATOM     21  N   UNL     1       7.121   5.711  15.714  0.00  0.00    +0.000 NA
ATOM     22  C   UNL     1       7.237   5.650  17.059  0.00  0.00    +0.000 A 
ATOM     23  C   UNL     1       6.341   4.990  17.884  0.00  0.00    +0.000 A 
ENDBRANCH   5  18
TORSDOF 2
ENDMDL
MODEL 2
REMARK VINA RESULT:      -8.1      0.040      1.002
REMARK  Name = 
REMARK  3 active torsions:
REMARK  status: ('A' for Active; 'I' for Inactive)
REMARK    1  A    between atoms: C_1  and  C_2
REMARK    2  A    between atoms: C_5  and  N_6
REMARK    3  A    between atoms: C_10  and  C_11
REMARK                            x       y       z     vdW  Elec       q    Type
REMARK                         _______ _______ _______ _____ _____    ______ ____
ROOT
ATOM      1  N   UNL     1       1.649   6.567  20.895  0.00  0.00    +0.000 N 
ATOM      2  C   UNL     1       2.288   5.499  20.327  0.00  0.00    +0.000 A 
ATOM      3  N   UNL     1       3.259   5.510  19.461  0.00  0.00    +0.000 NA
ATOM      4  N   UNL     1       3.482   4.227  19.106  0.00  0.00    +0.000 N 
ATOM      5  C   UNL     1       4.298   3.637  18.174  0.00  0.00    +0.000 A 
ATOM      6  N   UNL     1       4.003   2.338  18.156  0.00  0.00    +0.000 NA
ATOM      7  N   UNL     1       3.018   2.082  19.114  0.00  0.00    +0.000 NA
ATOM      8  C   UNL     1       2.751   3.236  19.654  0.00  0.00    +0.000 A 
ATOM      9  S   UNL     1       1.667   3.880  20.807  0.00  0.00    +0.000 S 
ATOM     10  H   UNL     1       0.875   6.329  21.503  0.00  0.00    +0.000 HD
ENDROOT
BRANCH   1  15
ATOM     11  C   UNL     1       1.024  11.814  18.633  0.00  0.00    +0.000 C 
ATOM     12  C   UNL     1       1.218  10.455  19.237  0.00  0.00    +0.000 A 
ATOM     13  C   UNL     1       0.900  10.195  20.571  0.00  0.00    +0.000 A 
ATOM     14  C   UNL     1       1.076   8.914  21.111  0.00  0.00    +0.000 A 
ATOM     15  C   UNL     1       1.556   7.856  20.326  0.00  0.00    +0.000 A 
ATOM     16  C   UNL     1       1.907   8.144  19.001  0.00  0.00    +0.000 A 
ATOM     17  C   UNL     1       1.731   9.420  18.458  0.00  0.00    +0.000 A 
ENDBRANCH   1  15
BRANCH   5  18
ATOM     18  C   UNL     1       5.268   4.349  17.343  0.00  0.00    +0.000 A 
ATOM     19  C   UNL     1       6.365   5.013  17.900  0.00  0.00    +0.000 A 
ATOM     20  C   UNL     1       7.242   5.675  17.059  0.00  0.00    +0.000 A 
ATOM     21  N   UNL     1       7.104   5.722  15.720  0.00  0.00    +0.000 NA
ATOM     22  C   UNL     1       6.043   5.069  15.198  0.00  0.00    +0.000 A 
ATOM     23  C   UNL     1       5.112   4.375  15.956  0.00  0.00    +0.000 A 
ENDBRANCH   5  18
TORSDOF 2
ENDMDL
MODEL 3
REMARK VINA RESULT:      -7.8      0.145      1.030
REMARK  Name = 
REMARK  3 active torsions:
REMARK  status: ('A' for Active; 'I' for Inactive)
REMARK    1  A    between atoms: C_1  and  C_2
REMARK    2  A    between atoms: C_5  and  N_6
REMARK    3  A    between atoms: C_10  and  C_11
REMARK                            x       y       z     vdW  Elec       q    Type
REMARK                         _______ _______ _______ _____ _____    ______ ____
ROOT
ATOM      1  N   UNL     1       1.651   6.575  20.916  0.00  0.00    +0.000 N 
ATOM      2  C   UNL     1       2.313   5.515  20.358  0.00  0.00    +0.000 A 
ATOM      3  N   UNL     1       3.272   5.538  19.478  0.00  0.00    +0.000 NA
ATOM      4  N   UNL     1       3.525   4.256  19.141  0.00  0.00    +0.000 N 
ATOM      5  C   UNL     1       4.345   3.672  18.209  0.00  0.00    +0.000 A 
ATOM      6  N   UNL     1       4.085   2.365  18.217  0.00  0.00    +0.000 NA
ATOM      7  N   UNL     1       3.120   2.099  19.193  0.00  0.00    +0.000 NA
ATOM      8  C   UNL     1       2.829   3.254  19.716  0.00  0.00    +0.000 A 
ATOM      9  S   UNL     1       1.743   3.888  20.873  0.00  0.00    +0.000 S 
ATOM     10  H   UNL     1       0.893   6.326  21.539  0.00  0.00    +0.000 HD
ENDROOT
BRANCH   1  15
ATOM     11  C   UNL     1       1.347  11.768  18.471  0.00  0.00    +0.000 C 
ATOM     12  C   UNL     1       1.395  10.404  19.093  0.00  0.00    +0.000 A 
ATOM     13  C   UNL     1       1.877   9.297  18.392  0.00  0.00    +0.000 A 
ATOM     14  C   UNL     1       1.927   8.035  18.999  0.00  0.00    +0.000 A 
ATOM     15  C   UNL     1       1.515   7.850  20.326  0.00  0.00    +0.000 A 
ATOM     16  C   UNL     1       0.999   8.964  21.001  0.00  0.00    +0.000 A 
ATOM     17  C   UNL     1       0.949  10.226  20.401  0.00  0.00    +0.000 A 
ENDBRANCH   1  15
BRANCH   5  18
ATOM     18  C   UNL     1       5.283   4.396  17.352  0.00  0.00    +0.000 A 
ATOM     19  C   UNL     1       5.123   4.441  15.963  0.00  0.00    +0.000 A 
ATOM     20  C   UNL     1       6.050   5.137  15.208  0.00  0.00    +0.000 A 
ATOM     21  N   UNL     1       7.111   5.780  15.729  0.00  0.00    +0.000 NA
ATOM     22  C   UNL     1       7.246   5.732  17.073  0.00  0.00    +0.000 A 
ATOM     23  C   UNL     1       6.370   5.066  17.915  0.00  0.00    +0.000 A 
ENDBRANCH   5  18
TORSDOF 2
ENDMDL
MODEL 4
REMARK VINA RESULT:      -7.8      0.188      1.441
REMARK  Name = 
REMARK  3 active torsions:
REMARK  status: ('A' for Active; 'I' for Inactive)
REMARK    1  A    between atoms: C_1  and  C_2
REMARK    2  A    between atoms: C_5  and  N_6
REMARK    3  A    between atoms: C_10  and  C_11
REMARK                            x       y       z     vdW  Elec       q    Type
REMARK                         _______ _______ _______ _____ _____    ______ ____
ROOT
ATOM      1  N   UNL     1       1.590   6.650  20.893  0.00  0.00    +0.000 N 
ATOM      2  C   UNL     1       2.254   5.584  20.349  0.00  0.00    +0.000 A 
ATOM      3  N   UNL     1       3.234   5.600  19.492  0.00  0.00    +0.000 NA
ATOM      4  N   UNL     1       3.484   4.316  19.160  0.00  0.00    +0.000 N 
ATOM      5  C   UNL     1       4.320   3.726  18.246  0.00  0.00    +0.000 A 
ATOM      6  N   UNL     1       4.048   2.422  18.245  0.00  0.00    +0.000 NA
ATOM      7  N   UNL     1       3.057   2.163  19.197  0.00  0.00    +0.000 NA
ATOM      8  C   UNL     1       2.764   3.320  19.716  0.00  0.00    +0.000 A 
ATOM      9  S   UNL     1       1.657   3.962  20.847  0.00  0.00    +0.000 S 
ATOM     10  H   UNL     1       0.814   6.407  21.497  0.00  0.00    +0.000 HD
ENDROOT
BRANCH   1  15
ATOM     11  C   UNL     1       1.393  11.848  18.449  0.00  0.00    +0.000 C 
ATOM     12  C   UNL     1       1.413  10.484  19.071  0.00  0.00    +0.000 A 
ATOM     13  C   UNL     1       1.888   9.370  18.376  0.00  0.00    +0.000 A 
ATOM     14  C   UNL     1       1.912   8.107  18.982  0.00  0.00    +0.000 A 
ATOM     15  C   UNL     1       1.480   7.927  20.303  0.00  0.00    +0.000 A 
ATOM     16  C   UNL     1       0.971   9.048  20.972  0.00  0.00    +0.000 A 
ATOM     17  C   UNL     1       0.947  10.311  20.372  0.00  0.00    +0.000 A 
ENDBRANCH   1  15
BRANCH   5  18
ATOM     18  C   UNL     1       5.285   4.442  17.414  0.00  0.00    +0.000 A 
ATOM     19  C   UNL     1       6.404   5.076  17.965  0.00  0.00    +0.000 A 
ATOM     20  C   UNL     1       7.275   5.743  17.124  0.00  0.00    +0.000 A 
ATOM     21  N   UNL     1       7.113   5.825  15.790  0.00  0.00    +0.000 NA
ATOM     22  C   UNL     1       6.031   5.202  15.272  0.00  0.00    +0.000 A 
ATOM     23  C   UNL     1       5.104   4.505  16.031  0.00  0.00    +0.000 A 
ENDBRANCH   5  18
TORSDOF 2
ENDMDL
MODEL 5
REMARK VINA RESULT:      -7.2      3.710      7.868
REMARK  Name = 
REMARK  3 active torsions:
REMARK  status: ('A' for Active; 'I' for Inactive)
REMARK    1  A    between atoms: C_1  and  C_2
REMARK    2  A    between atoms: C_5  and  N_6
REMARK    3  A    between atoms: C_10  and  C_11
REMARK                            x       y       z     vdW  Elec       q    Type
REMARK                         _______ _______ _______ _____ _____    ______ ____
ROOT
ATOM      1  N   UNL     1       1.611   7.192  21.375  0.00  0.00    +0.000 N 
ATOM      2  C   UNL     1       1.001   8.413  21.281  0.00  0.00    +0.000 A 
ATOM      3  N   UNL     1       0.149   8.821  20.386  0.00  0.00    +0.000 NA
ATOM      4  N   UNL     1      -0.085  10.127  20.633  0.00  0.00    +0.000 N 
ATOM      5  C   UNL     1      -0.801  11.095  19.978  0.00  0.00    +0.000 A 
ATOM      6  N   UNL     1      -0.565  12.251  20.598  0.00  0.00    +0.000 NA
ATOM      7  N   UNL     1       0.278  12.017  21.688  0.00  0.00    +0.000 NA
ATOM      8  C   UNL     1       0.526  10.740  21.668  0.00  0.00    +0.000 A 
ATOM      9  S   UNL     1       1.482   9.617  22.529  0.00  0.00    +0.000 S 
ATOM     10  H   UNL     1       2.289   7.108  22.121  0.00  0.00    +0.000 HD
ENDROOT
BRANCH   1  15
ATOM     11  C   UNL     1       2.634   3.442  17.140  0.00  0.00    +0.000 C 
ATOM     12  C   UNL     1       2.335   4.427  18.231  0.00  0.00    +0.000 A 
ATOM     13  C   UNL     1       1.605   4.063  19.364  0.00  0.00    +0.000 A 
ATOM     14  C   UNL     1       1.350   4.996  20.379  0.00  0.00    +0.000 A 
ATOM     15  C   UNL     1       1.833   6.309  20.295  0.00  0.00    +0.000 A 
ATOM     16  C   UNL     1       2.530   6.667  19.134  0.00  0.00    +0.000 A 
ATOM     17  C   UNL     1       2.790   5.739  18.121  0.00  0.00    +0.000 A 
ENDBRANCH   1  15
BRANCH   5  18
ATOM     18  C   UNL     1      -1.624  10.866  18.791  0.00  0.00    +0.000 A 
ATOM     19  C   UNL     1      -1.199  10.028  17.754  0.00  0.00    +0.000 A 
ATOM     20  C   UNL     1      -2.021   9.858  16.655  0.00  0.00    +0.000 A 
ATOM     21  N   UNL     1      -3.219  10.457  16.515  0.00  0.00    +0.000 NA
ATOM     22  C   UNL     1      -3.617  11.257  17.529  0.00  0.00    +0.000 A 
ATOM     23  C   UNL     1      -2.869  11.487  18.672  0.00  0.00    +0.000 A 
ENDBRANCH   5  18
TORSDOF 2
ENDMDL
MODEL 6
REMARK VINA RESULT:      -7.2      1.720      6.356
REMARK  Name = 
REMARK  3 active torsions:
REMARK  status: ('A' for Active; 'I' for Inactive)
REMARK    1  A    between atoms: C_1  and  C_2
REMARK    2  A    between atoms: C_5  and  N_6
REMARK    3  A    between atoms: C_10  and  C_11
REMARK                            x       y       z     vdW  Elec       q    Type
REMARK                         _______ _______ _______ _____ _____    ______ ____
ROOT
ATOM      1  N   UNL     1       4.808   2.853  16.931  0.00  0.00    +0.000 N 
ATOM      2  C   UNL     1       4.055   3.382  17.944  0.00  0.00    +0.000 A 
ATOM      3  N   UNL     1       3.553   4.579  18.033  0.00  0.00    +0.000 NA
ATOM      4  N   UNL     1       2.990   4.678  19.256  0.00  0.00    +0.000 N 
ATOM      5  C   UNL     1       2.407   5.712  19.942  0.00  0.00    +0.000 A 
ATOM      6  N   UNL     1       2.155   5.276  21.176  0.00  0.00    +0.000 NA
ATOM      7  N   UNL     1       2.539   3.935  21.271  0.00  0.00    +0.000 NA
ATOM      8  C   UNL     1       3.021   3.629  20.102  0.00  0.00    +0.000 A 
ATOM      9  S   UNL     1       3.771   2.292  19.347  0.00  0.00    +0.000 S 
ATOM     10  H   UNL     1       5.148   1.914  17.095  0.00  0.00    +0.000 HD
ENDROOT
BRANCH   1  15
ATOM     11  C   UNL     1       8.085   5.679  13.147  0.00  0.00    +0.000 C 
ATOM     12  C   UNL     1       7.207   4.968  14.133  0.00  0.00    +0.000 A 
ATOM     13  C   UNL     1       6.123   4.191  13.720  0.00  0.00    +0.000 A 
ATOM     14  C   UNL     1       5.324   3.523  14.658  0.00  0.00    +0.000 A 
ATOM     15  C   UNL     1       5.599   3.600  16.031  0.00  0.00    +0.000 A 
ATOM     16  C   UNL     1       6.665   4.416  16.429  0.00  0.00    +0.000 A 
ATOM     17  C   UNL     1       7.467   5.081  15.497  0.00  0.00    +0.000 A 
ENDBRANCH   1  15
BRANCH   5  18
ATOM     18  C   UNL     1       2.169   7.048  19.397  0.00  0.00    +0.000 A 
ATOM     19  C   UNL     1       2.571   7.394  18.102  0.00  0.00    +0.000 A 
ATOM     20  C   UNL     1       2.323   8.677  17.648  0.00  0.00    +0.000 A 
ATOM     21  N   UNL     1       1.712   9.627  18.381  0.00  0.00    +0.000 NA
ATOM     22  C   UNL     1       1.324   9.273  19.626  0.00  0.00    +0.000 A 
ATOM     23  C   UNL     1       1.523   8.014  20.170  0.00  0.00    +0.000 A 
ENDBRANCH   5  18
TORSDOF 2
ENDMDL
MODEL 7
REMARK VINA RESULT:      -7.2      1.723      6.391
REMARK  Name = 
REMARK  3 active torsions:
REMARK  status: ('A' for Active; 'I' for Inactive)
REMARK    1  A    between atoms: C_1  and  C_2
REMARK    2  A    between atoms: C_5  and  N_6
REMARK    3  A    between atoms: C_10  and  C_11
REMARK                            x       y       z     vdW  Elec       q    Type
REMARK                         _______ _______ _______ _____ _____    ______ ____
ROOT
ATOM      1  N   UNL     1       4.798   2.850  16.923  0.00  0.00    +0.000 N 
ATOM      2  C   UNL     1       4.047   3.376  17.939  0.00  0.00    +0.000 A 
ATOM      3  N   UNL     1       3.550   4.575  18.035  0.00  0.00    +0.000 NA
ATOM      4  N   UNL     1       2.988   4.669  19.258  0.00  0.00    +0.000 N 
ATOM      5  C   UNL     1       2.409   5.702  19.950  0.00  0.00    +0.000 A 
ATOM      6  N   UNL     1       2.154   5.260  21.181  0.00  0.00    +0.000 NA
ATOM      7  N   UNL     1       2.533   3.917  21.269  0.00  0.00    +0.000 NA
ATOM      8  C   UNL     1       3.014   3.615  20.098  0.00  0.00    +0.000 A 
ATOM      9  S   UNL     1       3.758   2.279  19.336  0.00  0.00    +0.000 S 
ATOM     10  H   UNL     1       5.133   1.908  17.082  0.00  0.00    +0.000 HD
ENDROOT
BRANCH   1  15
ATOM     11  C   UNL     1       8.091   5.681  13.158  0.00  0.00    +0.000 C 
ATOM     12  C   UNL     1       7.208   4.969  14.139  0.00  0.00    +0.000 A 
ATOM     13  C   UNL     1       6.126   4.193  13.720  0.00  0.00    +0.000 A 
ATOM     14  C   UNL     1       5.323   3.523  14.653  0.00  0.00    +0.000 A 
ATOM     15  C   UNL     1       5.592   3.598  16.027  0.00  0.00    +0.000 A 
ATOM     16  C   UNL     1       6.657   4.413  16.432  0.00  0.00    +0.000 A 
ATOM     17  C   UNL     1       7.463   5.080  15.504  0.00  0.00    +0.000 A 
ENDBRANCH   1  15
BRANCH   5  18
ATOM     18  C   UNL     1       2.177   7.042  19.412  0.00  0.00    +0.000 A 
ATOM     19  C   UNL     1       1.528   8.031  20.159  0.00  0.00    +0.000 A 
ATOM     20  C   UNL     1       1.333   9.276  19.589  0.00  0.00    +0.000 A 
ATOM     21  N   UNL     1       1.731   9.602  18.345  0.00  0.00    +0.000 NA
ATOM     22  C   UNL     1       2.362   8.637  17.640  0.00  0.00    +0.000 A 
ATOM     23  C   UNL     1       2.609   7.362  18.124  0.00  0.00    +0.000 A 
ENDBRANCH   5  18
TORSDOF 2
ENDMDL
MODEL 8
REMARK VINA RESULT:      -7.2      3.687      7.853
REMARK  Name = 
REMARK  3 active torsions:
REMARK  status: ('A' for Active; 'I' for Inactive)
REMARK    1  A    between atoms: C_1  and  C_2
REMARK    2  A    between atoms: C_5  and  N_6
REMARK    3  A    between atoms: C_10  and  C_11
REMARK                            x       y       z     vdW  Elec       q    Type
REMARK                         _______ _______ _______ _____ _____    ______ ____
ROOT
ATOM      1  N   UNL     1       1.640   7.188  21.287  0.00  0.00    +0.000 N 
ATOM      2  C   UNL     1       1.034   8.411  21.191  0.00  0.00    +0.000 A 
ATOM      3  N   UNL     1       0.172   8.814  20.303  0.00  0.00    +0.000 NA
ATOM      4  N   UNL     1      -0.053  10.123  20.542  0.00  0.00    +0.000 N 
ATOM      5  C   UNL     1      -0.775  11.088  19.887  0.00  0.00    +0.000 A 
ATOM      6  N   UNL     1      -0.525  12.249  20.492  0.00  0.00    +0.000 NA
ATOM      7  N   UNL     1       0.332  12.022  21.574  0.00  0.00    +0.000 NA
ATOM      8  C   UNL     1       0.574  10.743  21.562  0.00  0.00    +0.000 A 
ATOM      9  S   UNL     1       1.538   9.624  22.420  0.00  0.00    +0.000 S 
ATOM     10  H   UNL     1       2.328   7.108  22.025  0.00  0.00    +0.000 HD
ENDROOT
BRANCH   1  15
ATOM     11  C   UNL     1       2.583   3.391  17.076  0.00  0.00    +0.000 C 
ATOM     12  C   UNL     1       2.305   4.388  18.161  0.00  0.00    +0.000 A 
ATOM     13  C   UNL     1       1.561   4.050  19.293  0.00  0.00    +0.000 A 
ATOM     14  C   UNL     1       1.326   4.994  20.301  0.00  0.00    +0.000 A 
ATOM     15  C   UNL     1       1.844   6.294  20.213  0.00  0.00    +0.000 A 
ATOM     16  C   UNL     1       2.554   6.627  19.053  0.00  0.00    +0.000 A 
ATOM     17  C   UNL     1       2.794   5.688  18.046  0.00  0.00    +0.000 A 
ENDBRANCH   1  15
BRANCH   5  18
ATOM     18  C   UNL     1      -1.615  10.851  18.714  0.00  0.00    +0.000 A 
ATOM     19  C   UNL     1      -2.869  11.455  18.575  0.00  0.00    +0.000 A 
ATOM     20  C   UNL     1      -3.618  11.183  17.444  0.00  0.00    +0.000 A 
ATOM     21  N   UNL     1      -3.213  10.363  16.456  0.00  0.00    +0.000 NA
ATOM     22  C   UNL     1      -1.997   9.794  16.603  0.00  0.00    +0.000 A 
ATOM     23  C   UNL     1      -1.170  10.006  17.695  0.00  0.00    +0.000 A 
ENDBRANCH   5  18
TORSDOF 2
ENDMDL
MODEL 9
REMARK VINA RESULT:      -7.1      1.364      1.730
REMARK  Name = 
REMARK  3 active torsions:
REMARK  status: ('A' for Active; 'I' for Inactive)
REMARK    1  A    between atoms: C_1  and  C_2
REMARK    2  A    between atoms: C_5  and  N_6
REMARK    3  A    between atoms: C_10  and  C_11
REMARK                            x       y       z     vdW  Elec       q    Type
REMARK                         _______ _______ _______ _____ _____    ______ ____
ROOT
ATOM      1  N   UNL     1       1.023   6.759  21.092  0.00  0.00    +0.000 N 
ATOM      2  C   UNL     1       1.884   5.863  20.520  0.00  0.00    +0.000 A 
ATOM      3  N   UNL     1       3.070   6.085  20.032  0.00  0.00    +0.000 NA
ATOM      4  N   UNL     1       3.487   4.929  19.473  0.00  0.00    +0.000 N 
ATOM      5  C   UNL     1       4.590   4.585  18.735  0.00  0.00    +0.000 A 
ATOM      6  N   UNL     1       4.413   3.331  18.319  0.00  0.00    +0.000 NA
ATOM      7  N   UNL     1       3.204   2.849  18.830  0.00  0.00    +0.000 NA
ATOM      8  C   UNL     1       2.699   3.835  19.513  0.00  0.00    +0.000 A 
ATOM      9  S   UNL     1       1.269   4.177  20.384  0.00  0.00    +0.000 S 
ATOM     10  H   UNL     1       0.121   6.381  21.351  0.00  0.00    +0.000 HD
ENDROOT
BRANCH   1  15
ATOM     11  C   UNL     1       0.741  12.424  20.163  0.00  0.00    +0.000 C 
ATOM     12  C   UNL     1       0.848  10.950  20.417  0.00  0.00    +0.000 A 
ATOM     13  C   UNL     1       0.650  10.411  21.689  0.00  0.00    +0.000 A 
ATOM     14  C   UNL     1       0.740   9.028  21.900  0.00  0.00    +0.000 A 
ATOM     15  C   UNL     1       1.012   8.149  20.843  0.00  0.00    +0.000 A 
ATOM     16  C   UNL     1       1.246   8.711  19.581  0.00  0.00    +0.000 A 
ATOM     17  C   UNL     1       1.154  10.090  19.365  0.00  0.00    +0.000 A 
ENDBRANCH   1  15
BRANCH   5  18
ATOM     18  C   UNL     1       5.711   5.477  18.443  0.00  0.00    +0.000 A 
ATOM     19  C   UNL     1       6.900   5.428  19.180  0.00  0.00    +0.000 A 
ATOM     20  C   UNL     1       7.920   6.305  18.858  0.00  0.00    +0.000 A 
ATOM     21  N   UNL     1       7.841   7.216  17.870  0.00  0.00    +0.000 NA
ATOM     22  C   UNL     1       6.689   7.245  17.164  0.00  0.00    +0.000 A 
ATOM     23  C   UNL     1       5.613   6.407  17.406  0.00  0.00    +0.000 A 
ENDBRANCH   5  18
TORSDOF 2
ENDMDL
