MODEL 1
REMARK VINA RESULT:      -6.8      0.000      0.000
REMARK  Name = 
REMARK  5 active torsions:
REMARK  status: ('A' for Active; 'I' for Inactive)
REMARK    1  A    between atoms: C_1  and  O_2
REMARK    2  A    between atoms: O_2  and  C_3
REMARK    3  A    between atoms: C_6  and  C_7
REMARK    4  A    between atoms: C_7  and  N_8
REMARK    5  A    between atoms: C_12  and  O_13
REMARK                            x       y       z     vdW  Elec       q    Type
REMARK                         _______ _______ _______ _____ _____    ______ ____
ROOT
ATOM      1  C   UNL     1       5.160   4.509  16.714  0.00  0.00    +0.000 C 
ENDROOT
BRANCH   1   5
ATOM      2  C   UNL     1       1.909   3.486  19.374  0.00  0.00    +0.000 A 
ATOM      3  C   UNL     1       2.816   2.512  18.961  0.00  0.00    +0.000 A 
ATOM      4  C   UNL     1       3.881   2.842  18.118  0.00  0.00    +0.000 A 
ATOM      5  C   UNL     1       4.039   4.158  17.659  0.00  0.00    +0.000 A 
ATOM      6  C   UNL     1       3.107   5.128  18.059  0.00  0.00    +0.000 A 
ATOM      7  C   UNL     1       2.050   4.793  18.913  0.00  0.00    +0.000 A 
BRANCH   2   9
ATOM      8  C   UNL     1       1.285   2.699  21.516  0.00  0.00    +0.000 C 
ATOM      9  O   UNL     1       0.906   3.039  20.186  0.00  0.00    +0.000 OA
ENDBRANCH   2   9
ENDBRANCH   1   5
BRANCH   1  10
ATOM     10  N   UNL     1       6.138   5.394  17.391  0.00  0.00    +0.000 N 
ATOM     11  C   UNL     1       6.557   6.531  16.789  0.00  0.00    +0.000 A 
ATOM     12  C   UNL     1       7.521   7.336  17.390  0.00  0.00    +0.000 A 
ATOM     13  C   UNL     1       8.061   6.968  18.618  0.00  0.00    +0.000 A 
ATOM     14  C   UNL     1       7.604   5.810  19.223  0.00  0.00    +0.000 A 
ATOM     15  C   UNL     1       6.633   5.036  18.600  0.00  0.00    +0.000 A 
BRANCH  14  16
ATOM     16  O   UNL     1       8.084   5.389  20.424  0.00  0.00    +0.000 OA
ATOM     17  H   UNL     1       7.351   5.228  21.047  0.00  0.00    +0.000 HD
ENDBRANCH  14  16
ENDBRANCH   1  10
TORSDOF 4
ENDMDL
MODEL 2
REMARK VINA RESULT:      -6.8      0.258      1.232
REMARK  Name = 
REMARK  5 active torsions:
REMARK  status: ('A' for Active; 'I' for Inactive)
REMARK    1  A    between atoms: C_1  and  O_2
REMARK    2  A    between atoms: O_2  and  C_3
REMARK    3  A    between atoms: C_6  and  C_7
REMARK    4  A    between atoms: C_7  and  N_8
REMARK    5  A    between atoms: C_12  and  O_13
REMARK                            x       y       z     vdW  Elec       q    Type
REMARK                         _______ _______ _______ _____ _____    ______ ____
ROOT
ATOM      1  C   UNL     1       5.192   4.394  16.539  0.00  0.00    +0.000 C 
ENDROOT
BRANCH   1   5
ATOM      2  C   UNL     1       1.926   3.436  19.206  0.00  0.00    +0.000 A 
ATOM      3  C   UNL     1       2.115   4.744  18.763  0.00  0.00    +0.000 A 
ATOM      4  C   UNL     1       3.156   5.054  17.884  0.00  0.00    +0.000 A 
ATOM      5  C   UNL     1       4.040   4.055  17.451  0.00  0.00    +0.000 A 
ATOM      6  C   UNL     1       3.859   2.745  17.923  0.00  0.00    +0.000 A 
ATOM      7  C   UNL     1       2.807   2.439  18.793  0.00  0.00    +0.000 A 
BRANCH   2   9
ATOM      8  C   UNL     1       1.226   2.798  21.375  0.00  0.00    +0.000 C 
ATOM      9  O   UNL     1       0.884   3.261  20.071  0.00  0.00    +0.000 OA
ENDBRANCH   2   9
ENDBRANCH   1   5
BRANCH   1  10
ATOM     10  N   UNL     1       6.127   5.319  17.224  0.00  0.00    +0.000 N 
ATOM     11  C   UNL     1       6.339   6.560  16.729  0.00  0.00    +0.000 A 
ATOM     12  C   UNL     1       7.261   7.413  17.330  0.00  0.00    +0.000 A 
ATOM     13  C   UNL     1       7.974   6.985  18.446  0.00  0.00    +0.000 A 
ATOM     14  C   UNL     1       7.727   5.717  18.944  0.00  0.00    +0.000 A 
ATOM     15  C   UNL     1       6.791   4.897  18.326  0.00  0.00    +0.000 A 
BRANCH  14  16
ATOM     16  O   UNL     1       8.382   5.233  20.033  0.00  0.00    +0.000 OA
ATOM     17  H   UNL     1       9.339   5.412  19.963  0.00  0.00    +0.000 HD
ENDBRANCH  14  16
ENDBRANCH   1  10
TORSDOF 4
ENDMDL
MODEL 3
REMARK VINA RESULT:      -6.8      2.111      5.694
REMARK  Name = 
REMARK  5 active torsions:
REMARK  status: ('A' for Active; 'I' for Inactive)
REMARK    1  A    between atoms: C_1  and  O_2
REMARK    2  A    between atoms: O_2  and  C_3
REMARK    3  A    between atoms: C_6  and  C_7
REMARK    4  A    between atoms: C_7  and  N_8
REMARK    5  A    between atoms: C_12  and  O_13
REMARK                            x       y       z     vdW  Elec       q    Type
REMARK                         _______ _______ _______ _____ _____    ______ ____
ROOT
ATOM      1  C   UNL     1       2.688   3.716  17.277  0.00  0.00    +0.000 C 
ENDROOT
BRANCH   1   5
ATOM      2  C   UNL     1       6.373   5.902  16.697  0.00  0.00    +0.000 A 
ATOM      3  C   UNL     1       5.264   6.525  17.267  0.00  0.00    +0.000 A 
ATOM      4  C   UNL     1       4.078   5.817  17.476  0.00  0.00    +0.000 A 
ATOM      5  C   UNL     1       3.980   4.471  17.095  0.00  0.00    +0.000 A 
ATOM      6  C   UNL     1       5.092   3.857  16.497  0.00  0.00    +0.000 A 
ATOM      7  C   UNL     1       6.281   4.569  16.302  0.00  0.00    +0.000 A 
BRANCH   2   9
ATOM      8  C   UNL     1       7.684   7.680  17.545  0.00  0.00    +0.000 C 
ATOM      9  O   UNL     1       7.469   6.701  16.533  0.00  0.00    +0.000 OA
ENDBRANCH   2   9
ENDBRANCH   1   5
BRANCH   1  10
ATOM     10  N   UNL     1       2.454   3.449  18.716  0.00  0.00    +0.000 N 
ATOM     11  C   UNL     1       1.332   3.905  19.318  0.00  0.00    +0.000 A 
ATOM     12  C   UNL     1       1.132   3.712  20.683  0.00  0.00    +0.000 A 
ATOM     13  C   UNL     1       2.095   3.047  21.434  0.00  0.00    +0.000 A 
ATOM     14  C   UNL     1       3.227   2.574  20.793  0.00  0.00    +0.000 A 
ATOM     15  C   UNL     1       3.388   2.775  19.428  0.00  0.00    +0.000 A 
BRANCH  14  16
ATOM     16  O   UNL     1       4.209   1.913  21.463  0.00  0.00    +0.000 OA
ATOM     17  H   UNL     1       3.929   1.001  21.667  0.00  0.00    +0.000 HD
ENDBRANCH  14  16
ENDBRANCH   1  10
TORSDOF 4
ENDMDL
MODEL 4
REMARK VINA RESULT:      -6.7      1.756      2.233
REMARK  Name = 
REMARK  5 active torsions:
REMARK  status: ('A' for Active; 'I' for Inactive)
REMARK    1  A    between atoms: C_1  and  O_2
REMARK    2  A    between atoms: O_2  and  C_3
REMARK    3  A    between atoms: C_6  and  C_7
REMARK    4  A    between atoms: C_7  and  N_8
REMARK    5  A    between atoms: C_12  and  O_13
REMARK                            x       y       z     vdW  Elec       q    Type
REMARK                         _______ _______ _______ _____ _____    ______ ____
ROOT
ATOM      1  C   UNL     1       4.153   6.671  17.459  0.00  0.00    +0.000 C 
ENDROOT
BRANCH   1   5
ATOM      2  C   UNL     1       1.735   3.971  19.816  0.00  0.00    +0.000 A 
ATOM      3  C   UNL     1       1.665   3.949  18.424  0.00  0.00    +0.000 A 
ATOM      4  C   UNL     1       2.461   4.805  17.657  0.00  0.00    +0.000 A 
ATOM      5  C   UNL     1       3.327   5.715  18.281  0.00  0.00    +0.000 A 
ATOM      6  C   UNL     1       3.372   5.749  19.683  0.00  0.00    +0.000 A 
ATOM      7  C   UNL     1       2.582   4.881  20.444  0.00  0.00    +0.000 A 
BRANCH   2   9
ATOM      8  C   UNL     1       1.350   2.616  21.717  0.00  0.00    +0.000 C 
ATOM      9  O   UNL     1       0.901   3.097  20.453  0.00  0.00    +0.000 OA
ENDBRANCH   2   9
ENDBRANCH   1   5
BRANCH   1  10
ATOM     10  N   UNL     1       5.240   5.939  16.766  0.00  0.00    +0.000 N 
ATOM     11  C   UNL     1       5.219   5.805  15.420  0.00  0.00    +0.000 A 
ATOM     12  C   UNL     1       6.202   5.067  14.766  0.00  0.00    +0.000 A 
ATOM     13  C   UNL     1       7.213   4.459  15.503  0.00  0.00    +0.000 A 
ATOM     14  C   UNL     1       7.223   4.623  16.877  0.00  0.00    +0.000 A 
ATOM     15  C   UNL     1       6.232   5.376  17.495  0.00  0.00    +0.000 A 
BRANCH  14  16
ATOM     16  O   UNL     1       8.182   4.060  17.661  0.00  0.00    +0.000 OA
ATOM     17  H   UNL     1       9.003   4.586  17.628  0.00  0.00    +0.000 HD
ENDBRANCH  14  16
ENDBRANCH   1  10
TORSDOF 4
ENDMDL
MODEL 5
REMARK VINA RESULT:      -6.7      1.778      2.237
REMARK  Name = 
REMARK  5 active torsions:
REMARK  status: ('A' for Active; 'I' for Inactive)
REMARK    1  A    between atoms: C_1  and  O_2
REMARK    2  A    between atoms: O_2  and  C_3
REMARK    3  A    between atoms: C_6  and  C_7
REMARK    4  A    between atoms: C_7  and  N_8
REMARK    5  A    between atoms: C_12  and  O_13
REMARK                            x       y       z     vdW  Elec       q    Type
REMARK                         _______ _______ _______ _____ _____    ______ ____
ROOT
ATOM      1  C   UNL     1       4.049   6.728  17.579  0.00  0.00    +0.000 C 
ENDROOT
BRANCH   1   5
ATOM      2  C   UNL     1       1.603   3.881  19.725  0.00  0.00    +0.000 A 
ATOM      3  C   UNL     1       2.487   4.711  20.411  0.00  0.00    +0.000 A 
ATOM      4  C   UNL     1       3.264   5.648  19.724  0.00  0.00    +0.000 A 
ATOM      5  C   UNL     1       3.179   5.751  18.328  0.00  0.00    +0.000 A 
ATOM      6  C   UNL     1       2.306   4.893  17.641  0.00  0.00    +0.000 A 
ATOM      7  C   UNL     1       1.522   3.966  18.336  0.00  0.00    +0.000 A 
BRANCH   2   9
ATOM      8  C   UNL     1       1.488   2.696  21.770  0.00  0.00    +0.000 C 
ATOM      9  O   UNL     1       0.909   3.000  20.504  0.00  0.00    +0.000 OA
ENDBRANCH   2   9
ENDBRANCH   1   5
BRANCH   1  10
ATOM     10  N   UNL     1       5.158   6.010  16.907  0.00  0.00    +0.000 N 
ATOM     11  C   UNL     1       5.200   5.934  15.557  0.00  0.00    +0.000 A 
ATOM     12  C   UNL     1       6.204   5.211  14.920  0.00  0.00    +0.000 A 
ATOM     13  C   UNL     1       7.171   4.557  15.676  0.00  0.00    +0.000 A 
ATOM     14  C   UNL     1       7.118   4.663  17.055  0.00  0.00    +0.000 A 
ATOM     15  C   UNL     1       6.108   5.402  17.657  0.00  0.00    +0.000 A 
BRANCH  14  16
ATOM     16  O   UNL     1       8.031   4.053  17.859  0.00  0.00    +0.000 OA
ATOM     17  H   UNL     1       7.665   3.923  18.754  0.00  0.00    +0.000 HD
ENDBRANCH  14  16
ENDBRANCH   1  10
TORSDOF 4
ENDMDL
MODEL 6
REMARK VINA RESULT:      -6.7      2.318      5.958
REMARK  Name = 
REMARK  5 active torsions:
REMARK  status: ('A' for Active; 'I' for Inactive)
REMARK    1  A    between atoms: C_1  and  O_2
REMARK    2  A    between atoms: O_2  and  C_3
REMARK    3  A    between atoms: C_6  and  C_7
REMARK    4  A    between atoms: C_7  and  N_8
REMARK    5  A    between atoms: C_12  and  O_13
REMARK                            x       y       z     vdW  Elec       q    Type
REMARK                         _______ _______ _______ _____ _____    ______ ____
ROOT
ATOM      1  C   UNL     1       3.105   6.135  19.465  0.00  0.00    +0.000 C 
ENDROOT
BRANCH   1   5
ATOM      2  C   UNL     1       6.265   5.817  16.530  0.00  0.00    +0.000 A 
ATOM      3  C   UNL     1       6.331   5.094  17.720  0.00  0.00    +0.000 A 
ATOM      4  C   UNL     1       5.301   5.177  18.662  0.00  0.00    +0.000 A 
ATOM      5  C   UNL     1       4.196   6.008  18.431  0.00  0.00    +0.000 A 
ATOM      6  C   UNL     1       4.149   6.753  17.243  0.00  0.00    +0.000 A 
ATOM      7  C   UNL     1       5.177   6.656  16.299  0.00  0.00    +0.000 A 
BRANCH   2   9
ATOM      8  C   UNL     1       7.133   4.810  14.573  0.00  0.00    +0.000 C 
ATOM      9  O   UNL     1       7.336   5.663  15.697  0.00  0.00    +0.000 OA
ENDBRANCH   2   9
ENDBRANCH   1   5
BRANCH   1  10
ATOM     10  N   UNL     1       2.390   4.845  19.611  0.00  0.00    +0.000 N 
ATOM     11  C   UNL     1       1.785   4.279  18.541  0.00  0.00    +0.000 A 
ATOM     12  C   UNL     1       1.059   3.099  18.681  0.00  0.00    +0.000 A 
ATOM     13  C   UNL     1       0.951   2.499  19.931  0.00  0.00    +0.000 A 
ATOM     14  C   UNL     1       1.592   3.087  21.007  0.00  0.00    +0.000 A 
ATOM     15  C   UNL     1       2.317   4.259  20.829  0.00  0.00    +0.000 A 
BRANCH  14  16
ATOM     16  O   UNL     1       1.533   2.555  22.258  0.00  0.00    +0.000 OA
ATOM     17  H   UNL     1       1.329   1.602  22.214  0.00  0.00    +0.000 HD
ENDBRANCH  14  16
ENDBRANCH   1  10
TORSDOF 4
ENDMDL
MODEL 7
REMARK VINA RESULT:      -6.6      1.847      5.656
REMARK  Name = 
REMARK  5 active torsions:
REMARK  status: ('A' for Active; 'I' for Inactive)
REMARK    1  A    between atoms: C_1  and  O_2
REMARK    2  A    between atoms: O_2  and  C_3
REMARK    3  A    between atoms: C_6  and  C_7
REMARK    4  A    between atoms: C_7  and  N_8
REMARK    5  A    between atoms: C_12  and  O_13
REMARK                            x       y       z     vdW  Elec       q    Type
REMARK                         _______ _______ _______ _____ _____    ______ ____
ROOT
ATOM      1  C   UNL     1       4.011   2.913  17.607  0.00  0.00    +0.000 C 
ENDROOT
BRANCH   1   5
ATOM      2  C   UNL     1       6.832   6.067  16.720  0.00  0.00    +0.000 A 
ATOM      3  C   UNL     1       6.796   5.488  17.987  0.00  0.00    +0.000 A 
ATOM      4  C   UNL     1       5.901   4.453  18.272  0.00  0.00    +0.000 A 
ATOM      5  C   UNL     1       5.009   3.997  17.290  0.00  0.00    +0.000 A 
ATOM      6  C   UNL     1       5.033   4.603  16.025  0.00  0.00    +0.000 A 
ATOM      7  C   UNL     1       5.941   5.630  15.742  0.00  0.00    +0.000 A 
BRANCH   2   9
ATOM      8  C   UNL     1       7.775   8.046  17.610  0.00  0.00    +0.000 C 
ATOM      9  O   UNL     1       7.740   7.075  16.567  0.00  0.00    +0.000 OA
ENDBRANCH   2   9
ENDBRANCH   1   5
BRANCH   1  10
ATOM     10  N   UNL     1       3.150   3.330  18.740  0.00  0.00    +0.000 N 
ATOM     11  C   UNL     1       2.311   4.382  18.605  0.00  0.00    +0.000 A 
ATOM     12  C   UNL     1       1.544   4.819  19.682  0.00  0.00    +0.000 A 
ATOM     13  C   UNL     1       1.644   4.171  20.909  0.00  0.00    +0.000 A 
ATOM     14  C   UNL     1       2.496   3.086  21.019  0.00  0.00    +0.000 A 
ATOM     15  C   UNL     1       3.238   2.671  19.920  0.00  0.00    +0.000 A 
BRANCH  14  16
ATOM     16  O   UNL     1       2.642   2.402  22.185  0.00  0.00    +0.000 OA
ATOM     17  H   UNL     1       3.192   1.608  22.049  0.00  0.00    +0.000 HD
ENDBRANCH  14  16
ENDBRANCH   1  10
TORSDOF 4
ENDMDL
MODEL 8
REMARK VINA RESULT:      -6.6      2.533      5.901
REMARK  Name = 
REMARK  5 active torsions:
REMARK  status: ('A' for Active; 'I' for Inactive)
REMARK    1  A    between atoms: C_1  and  O_2
REMARK    2  A    between atoms: O_2  and  C_3
REMARK    3  A    between atoms: C_6  and  C_7
REMARK    4  A    between atoms: C_7  and  N_8
REMARK    5  A    between atoms: C_12  and  O_13
REMARK                            x       y       z     vdW  Elec       q    Type
REMARK                         _______ _______ _______ _____ _____    ______ ____
ROOT
ATOM      1  C   UNL     1       4.819   5.248  19.514  0.00  0.00    +0.000 C 
ENDROOT
BRANCH   1   5
ATOM      2  C   UNL     1       6.357   5.235  15.473  0.00  0.00    +0.000 A 
ATOM      3  C   UNL     1       7.023   4.545  16.485  0.00  0.00    +0.000 A 
ATOM      4  C   UNL     1       6.518   4.528  17.788  0.00  0.00    +0.000 A 
ATOM      5  C   UNL     1       5.342   5.225  18.101  0.00  0.00    +0.000 A 
ATOM      6  C   UNL     1       4.691   5.939  17.082  0.00  0.00    +0.000 A 
ATOM      7  C   UNL     1       5.195   5.941  15.777  0.00  0.00    +0.000 A 
BRANCH   2   9
ATOM      8  C   UNL     1       6.558   4.110  13.402  0.00  0.00    +0.000 C 
ATOM      9  O   UNL     1       6.955   5.187  14.246  0.00  0.00    +0.000 OA
ENDBRANCH   2   9
ENDBRANCH   1   5
BRANCH   1  10
ATOM     10  N   UNL     1       3.497   4.579  19.578  0.00  0.00    +0.000 N 
ATOM     11  C   UNL     1       2.475   5.155  20.252  0.00  0.00    +0.000 A 
ATOM     12  C   UNL     1       1.249   4.506  20.369  0.00  0.00    +0.000 A 
ATOM     13  C   UNL     1       1.073   3.253  19.791  0.00  0.00    +0.000 A 
ATOM     14  C   UNL     1       2.127   2.691  19.091  0.00  0.00    +0.000 A 
ATOM     15  C   UNL     1       3.333   3.372  18.985  0.00  0.00    +0.000 A 
BRANCH  14  16
ATOM     16  O   UNL     1       2.026   1.472  18.497  0.00  0.00    +0.000 OA
ATOM     17  H   UNL     1       1.676   0.814  19.126  0.00  0.00    +0.000 HD
ENDBRANCH  14  16
ENDBRANCH   1  10
TORSDOF 4
ENDMDL
MODEL 9
REMARK VINA RESULT:      -6.6      2.217      5.542
REMARK  Name = 
REMARK  5 active torsions:
REMARK  status: ('A' for Active; 'I' for Inactive)
REMARK    1  A    between atoms: C_1  and  O_2
REMARK    2  A    between atoms: O_2  and  C_3
REMARK    3  A    between atoms: C_6  and  C_7
REMARK    4  A    between atoms: C_7  and  N_8
REMARK    5  A    between atoms: C_12  and  O_13
REMARK                            x       y       z     vdW  Elec       q    Type
REMARK                         _______ _______ _______ _____ _____    ______ ____
ROOT
ATOM      1  C   UNL     1       2.465   3.794  17.460  0.00  0.00    +0.000 C 
ENDROOT
BRANCH   1   5
ATOM      2  C   UNL     1       5.998   6.181  16.737  0.00  0.00    +0.000 A 
ATOM      3  C   UNL     1       5.902   4.888  16.224  0.00  0.00    +0.000 A 
ATOM      4  C   UNL     1       4.753   4.121  16.437  0.00  0.00    +0.000 A 
ATOM      5  C   UNL     1       3.687   4.635  17.189  0.00  0.00    +0.000 A 
ATOM      6  C   UNL     1       3.802   5.928  17.725  0.00  0.00    +0.000 A 
ATOM      7  C   UNL     1       4.950   6.695  17.497  0.00  0.00    +0.000 A 
BRANCH   2   9
ATOM      8  C   UNL     1       7.621   7.738  17.470  0.00  0.00    +0.000 C 
ATOM      9  O   UNL     1       7.173   6.825  16.472  0.00  0.00    +0.000 OA
ENDBRANCH   2   9
ENDBRANCH   1   5
BRANCH   1  10
ATOM     10  N   UNL     1       2.458   3.350  18.874  0.00  0.00    +0.000 N 
ATOM     11  C   UNL     1       1.360   3.543  19.641  0.00  0.00    +0.000 A 
ATOM     12  C   UNL     1       1.365   3.184  20.987  0.00  0.00    +0.000 A 
ATOM     13  C   UNL     1       2.508   2.625  21.549  0.00  0.00    +0.000 A 
ATOM     14  C   UNL     1       3.613   2.421  20.740  0.00  0.00    +0.000 A 
ATOM     15  C   UNL     1       3.569   2.782  19.399  0.00  0.00    +0.000 A 
BRANCH  14  16
ATOM     16  O   UNL     1       4.764   1.878  21.220  0.00  0.00    +0.000 OA
ATOM     17  H   UNL     1       4.693   0.905  21.254  0.00  0.00    +0.000 HD
ENDBRANCH  14  16
ENDBRANCH   1  10
TORSDOF 4
ENDMDL
