MODEL 1
REMARK VINA RESULT:      -7.3      0.000      0.000
REMARK  Name = 
REMARK  9 active torsions:
REMARK  status: ('A' for Active; 'I' for Inactive)
REMARK    1  A    between atoms: C_1  and  O_2
REMARK    2  A    between atoms: O_2  and  C_3
REMARK    3  A    between atoms: C_3  and  C_4
REMARK    4  A    between atoms: N_6  and  N_7
REMARK    5  A    between atoms: N_7  and  C_8
REMARK    6  A    between atoms: C_10  and  C_11
REMARK    7  A    between atoms: C_14  and  O_15
REMARK    8  A    between atoms: O_15  and  C_16
REMARK    9  A    between atoms: C_20  and  C_21
REMARK                            x       y       z     vdW  Elec       q    Type
REMARK                         _______ _______ _______ _____ _____    ______ ____
ROOT
ATOM      1  C   UNL     1       4.841   4.563  18.149  0.00  0.00    +0.000 A 
ATOM      2  N   UNL     1       4.495   5.883  18.300  0.00  0.00    +0.000 N 
ATOM      3  C   UNL     1       3.187   6.012  18.713  0.00  0.00    +0.000 A 
ATOM      4  C   UNL     1       2.709   4.719  18.869  0.00  0.00    +0.000 A 
ATOM      5  C   UNL     1       3.744   3.814  18.517  0.00  0.00    +0.000 A 
ATOM      6  H   UNL     1       5.111   6.651  18.079  0.00  0.00    +0.000 HD
ENDROOT
BRANCH   3   7
ATOM      7  C   UNL     1       2.509   7.305  18.849  0.00  0.00    +0.000 A 
ATOM      8  C   UNL     1       1.916   7.653  20.067  0.00  0.00    +0.000 A 
ATOM      9  C   UNL     1       1.206   8.849  20.200  0.00  0.00    +0.000 A 
ATOM     10  C   UNL     1       1.092   9.730  19.128  0.00  0.00    +0.000 A 
ATOM     11  C   UNL     1       1.690   9.404  17.911  0.00  0.00    +0.000 A 
ATOM     12  C   UNL     1       2.397   8.199  17.775  0.00  0.00    +0.000 A 
BRANCH  10  13
ATOM     13  O   UNL     1       0.342  10.845  19.374  0.00  0.00    +0.000 OA
ATOM     14  C   UNL     1      -1.024  10.775  18.986  0.00  0.00    +0.000 C 
ENDBRANCH  10  13
ENDBRANCH   3   7
BRANCH   1  15
ATOM     15  N   UNL     1       6.079   4.215  17.711  0.00  0.00    +0.000 N 
ATOM     16  H   UNL     1       6.607   3.533  18.279  0.00  0.00    +0.000 HD
BRANCH  15  19
ATOM     17  C   UNL     1       6.934   5.018  15.647  0.00  0.00    +0.000 C 
ATOM     18  O   UNL     1       7.417   6.012  16.183  0.00  0.00    +0.000 OA
ATOM     19  N   UNL     1       6.308   3.990  16.340  0.00  0.00    +0.000 N 
ATOM     20  H   UNL     1       5.588   3.479  15.833  0.00  0.00    +0.000 HD
BRANCH  17  21
ATOM     21  C   UNL     1       6.971   4.764  14.143  0.00  0.00    +0.000 C 
BRANCH  21  23
ATOM     22  C   UNL     1       6.178   3.445  12.352  0.00  0.00    +0.000 C 
ATOM     23  O   UNL     1       6.293   3.567  13.768  0.00  0.00    +0.000 OA
ENDBRANCH  21  23
ENDBRANCH  17  21
ENDBRANCH  15  19
ENDBRANCH   1  15
BRANCH   5  24
ATOM     24  C   UNL     1       3.650   2.388  18.495  0.00  0.00    +0.000 C 
ATOM     25  N   UNL     1       3.568   1.231  18.465  0.00  0.00    +0.000 NA
ENDBRANCH   5  24
TORSDOF 7
ENDMDL
MODEL 2
REMARK VINA RESULT:      -7.2      2.063      2.732
REMARK  Name = 
REMARK  9 active torsions:
REMARK  status: ('A' for Active; 'I' for Inactive)
REMARK    1  A    between atoms: C_1  and  O_2
REMARK    2  A    between atoms: O_2  and  C_3
REMARK    3  A    between atoms: C_3  and  C_4
REMARK    4  A    between atoms: N_6  and  N_7
REMARK    5  A    between atoms: N_7  and  C_8
REMARK    6  A    between atoms: C_10  and  C_11
REMARK    7  A    between atoms: C_14  and  O_15
REMARK    8  A    between atoms: O_15  and  C_16
REMARK    9  A    between atoms: C_20  and  C_21
REMARK                            x       y       z     vdW  Elec       q    Type
REMARK                         _______ _______ _______ _____ _____    ______ ____
ROOT
ATOM      1  C   UNL     1       3.331   4.496  19.731  0.00  0.00    +0.000 A 
ATOM      2  N   UNL     1       3.285   5.787  19.267  0.00  0.00    +0.000 N 
ATOM      3  C   UNL     1       2.291   6.507  19.894  0.00  0.00    +0.000 A 
ATOM      4  C   UNL     1       1.723   5.644  20.820  0.00  0.00    +0.000 A 
ATOM      5  C   UNL     1       2.375   4.387  20.718  0.00  0.00    +0.000 A 
ATOM      6  H   UNL     1       3.869   6.135  18.523  0.00  0.00    +0.000 HD
ENDROOT
BRANCH   3   7
ATOM      7  C   UNL     1       1.934   7.880  19.522  0.00  0.00    +0.000 A 
ATOM      8  C   UNL     1       1.250   8.691  20.434  0.00  0.00    +0.000 A 
ATOM      9  C   UNL     1       0.839   9.978  20.077  0.00  0.00    +0.000 A 
ATOM     10  C   UNL     1       1.122  10.488  18.812  0.00  0.00    +0.000 A 
ATOM     11  C   UNL     1       1.815   9.697  17.897  0.00  0.00    +0.000 A 
ATOM     12  C   UNL     1       2.221   8.402  18.252  0.00  0.00    +0.000 A 
BRANCH  10  13
ATOM     13  O   UNL     1       0.634  11.742  18.574  0.00  0.00    +0.000 OA
ATOM     14  C   UNL     1       1.599  12.783  18.501  0.00  0.00    +0.000 C 
ENDBRANCH  10  13
ENDBRANCH   3   7
BRANCH   1  15
ATOM     15  N   UNL     1       4.217   3.605  19.217  0.00  0.00    +0.000 N 
ATOM     16  H   UNL     1       3.871   2.963  18.485  0.00  0.00    +0.000 HD
BRANCH  15  19
ATOM     17  C   UNL     1       5.799   4.372  17.620  0.00  0.00    +0.000 C 
ATOM     18  O   UNL     1       4.931   4.511  16.763  0.00  0.00    +0.000 OA
ATOM     19  N   UNL     1       5.538   4.002  18.934  0.00  0.00    +0.000 N 
ATOM     20  H   UNL     1       6.281   3.498  19.415  0.00  0.00    +0.000 HD
BRANCH  17  21
ATOM     21  C   UNL     1       7.285   4.603  17.368  0.00  0.00    +0.000 C 
BRANCH  21  23
ATOM     22  C   UNL     1       7.378   6.952  17.592  0.00  0.00    +0.000 C 
ATOM     23  O   UNL     1       7.549   5.842  16.714  0.00  0.00    +0.000 OA
ENDBRANCH  21  23
ENDBRANCH  17  21
ENDBRANCH  15  19
ENDBRANCH   1  15
BRANCH   5  24
ATOM     24  C   UNL     1       2.061   3.209  21.463  0.00  0.00    +0.000 C 
ATOM     25  N   UNL     1       1.815   2.245  22.060  0.00  0.00    +0.000 NA
ENDBRANCH   5  24
TORSDOF 7
ENDMDL
MODEL 3
REMARK VINA RESULT:      -7.2      0.992      1.006
REMARK  Name = 
REMARK  9 active torsions:
REMARK  status: ('A' for Active; 'I' for Inactive)
REMARK    1  A    between atoms: C_1  and  O_2
REMARK    2  A    between atoms: O_2  and  C_3
REMARK    3  A    between atoms: C_3  and  C_4
REMARK    4  A    between atoms: N_6  and  N_7
REMARK    5  A    between atoms: N_7  and  C_8
REMARK    6  A    between atoms: C_10  and  C_11
REMARK    7  A    between atoms: C_14  and  O_15
REMARK    8  A    between atoms: O_15  and  C_16
REMARK    9  A    between atoms: C_20  and  C_21
REMARK                            x       y       z     vdW  Elec       q    Type
REMARK                         _______ _______ _______ _____ _____    ______ ____
ROOT
ATOM      1  C   UNL     1       4.880   4.576  18.534  0.00  0.00    +0.000 A 
ATOM      2  N   UNL     1       4.503   5.883  18.715  0.00  0.00    +0.000 N 
ATOM      3  C   UNL     1       3.145   5.985  18.934  0.00  0.00    +0.000 A 
ATOM      4  C   UNL     1       2.662   4.685  18.933  0.00  0.00    +0.000 A 
ATOM      5  C   UNL     1       3.747   3.804  18.684  0.00  0.00    +0.000 A 
ATOM      6  H   UNL     1       5.137   6.663  18.640  0.00  0.00    +0.000 HD
ENDROOT
BRANCH   3   7
ATOM      7  C   UNL     1       2.443   7.267  19.048  0.00  0.00    +0.000 A 
ATOM      8  C   UNL     1       1.877   7.642  20.272  0.00  0.00    +0.000 A 
ATOM      9  C   UNL     1       1.144   8.826  20.387  0.00  0.00    +0.000 A 
ATOM     10  C   UNL     1       0.979   9.668  19.291  0.00  0.00    +0.000 A 
ATOM     11  C   UNL     1       1.548   9.315  18.067  0.00  0.00    +0.000 A 
ATOM     12  C   UNL     1       2.278   8.123  17.949  0.00  0.00    +0.000 A 
BRANCH  10  13
ATOM     13  O   UNL     1       0.211  10.773  19.523  0.00  0.00    +0.000 OA
ATOM     14  C   UNL     1       0.569  11.556  20.655  0.00  0.00    +0.000 C 
ENDBRANCH  10  13
ENDBRANCH   3   7
BRANCH   1  15
ATOM     15  N   UNL     1       6.172   4.257  18.266  0.00  0.00    +0.000 N 
ATOM     16  H   UNL     1       6.651   3.625  18.929  0.00  0.00    +0.000 HD
BRANCH  15  19
ATOM     17  C   UNL     1       6.847   5.073  16.141  0.00  0.00    +0.000 C 
ATOM     18  O   UNL     1       6.901   6.229  16.553  0.00  0.00    +0.000 OA
ATOM     19  N   UNL     1       6.574   3.975  16.947  0.00  0.00    +0.000 N 
ATOM     20  H   UNL     1       6.126   3.183  16.491  0.00  0.00    +0.000 HD
BRANCH  17  21
ATOM     21  C   UNL     1       7.090   4.680  14.688  0.00  0.00    +0.000 C 
BRANCH  21  23
ATOM     22  C   UNL     1       7.930   5.387  12.597  0.00  0.00    +0.000 C 
ATOM     23  O   UNL     1       7.964   5.579  14.009  0.00  0.00    +0.000 OA
ENDBRANCH  21  23
ENDBRANCH  17  21
ENDBRANCH  15  19
ENDBRANCH   1  15
BRANCH   5  24
ATOM     24  C   UNL     1       3.671   2.383  18.557  0.00  0.00    +0.000 C 
ATOM     25  N   UNL     1       3.624   1.228  18.452  0.00  0.00    +0.000 NA
ENDBRANCH   5  24
TORSDOF 7
ENDMDL
MODEL 4
REMARK VINA RESULT:      -7.0      2.519      4.447
REMARK  Name = 
REMARK  9 active torsions:
REMARK  status: ('A' for Active; 'I' for Inactive)
REMARK    1  A    between atoms: C_1  and  O_2
REMARK    2  A    between atoms: O_2  and  C_3
REMARK    3  A    between atoms: C_3  and  C_4
REMARK    4  A    between atoms: N_6  and  N_7
REMARK    5  A    between atoms: N_7  and  C_8
REMARK    6  A    between atoms: C_10  and  C_11
REMARK    7  A    between atoms: C_14  and  O_15
REMARK    8  A    between atoms: O_15  and  C_16
REMARK    9  A    between atoms: C_20  and  C_21
REMARK                            x       y       z     vdW  Elec       q    Type
REMARK                         _______ _______ _______ _____ _____    ______ ____
ROOT
ATOM      1  C   UNL     1       4.601   4.673  17.402  0.00  0.00    +0.000 A 
ATOM      2  N   UNL     1       3.558   5.300  18.037  0.00  0.00    +0.000 N 
ATOM      3  C   UNL     1       3.573   6.657  17.801  0.00  0.00    +0.000 A 
ATOM      4  C   UNL     1       4.643   6.882  16.947  0.00  0.00    +0.000 A 
ATOM      5  C   UNL     1       5.284   5.641  16.697  0.00  0.00    +0.000 A 
ATOM      6  H   UNL     1       2.905   4.825  18.641  0.00  0.00    +0.000 HD
ENDROOT
BRANCH   3   7
ATOM      7  C   UNL     1       2.647   7.596  18.441  0.00  0.00    +0.000 A 
ATOM      8  C   UNL     1       2.201   8.721  17.738  0.00  0.00    +0.000 A 
ATOM      9  C   UNL     1       1.373   9.665  18.350  0.00  0.00    +0.000 A 
ATOM     10  C   UNL     1       0.957   9.496  19.668  0.00  0.00    +0.000 A 
ATOM     11  C   UNL     1       1.382   8.373  20.378  0.00  0.00    +0.000 A 
ATOM     12  C   UNL     1       2.219   7.428  19.766  0.00  0.00    +0.000 A 
BRANCH  10  13
ATOM     13  O   UNL     1       0.183  10.506  20.163  0.00  0.00    +0.000 OA
ATOM     14  C   UNL     1       0.877  11.670  20.595  0.00  0.00    +0.000 C 
ENDBRANCH  10  13
ENDBRANCH   3   7
BRANCH   1  15
ATOM     15  N   UNL     1       4.792   3.335  17.535  0.00  0.00    +0.000 N 
ATOM     16  H   UNL     1       5.764   2.988  17.479  0.00  0.00    +0.000 HD
BRANCH  15  19
ATOM     17  C   UNL     1       2.728   2.381  18.220  0.00  0.00    +0.000 C 
ATOM     18  O   UNL     1       2.201   2.639  17.141  0.00  0.00    +0.000 OA
ATOM     19  N   UNL     1       4.069   2.609  18.501  0.00  0.00    +0.000 N 
ATOM     20  H   UNL     1       4.301   2.788  19.476  0.00  0.00    +0.000 HD
BRANCH  17  21
ATOM     21  C   UNL     1       1.988   1.757  19.398  0.00  0.00    +0.000 C 
BRANCH  21  23
ATOM     22  C   UNL     1       1.746   3.039  21.366  0.00  0.00    +0.000 C 
ATOM     23  O   UNL     1       1.179   2.696  20.103  0.00  0.00    +0.000 OA
ENDBRANCH  21  23
ENDBRANCH  17  21
ENDBRANCH  15  19
ENDBRANCH   1  15
BRANCH   5  24
ATOM     24  C   UNL     1       6.456   5.438  15.905  0.00  0.00    +0.000 C 
ATOM     25  N   UNL     1       7.415   5.272  15.273  0.00  0.00    +0.000 NA
ENDBRANCH   5  24
TORSDOF 7
ENDMDL
MODEL 5
REMARK VINA RESULT:      -7.0      2.519      4.357
REMARK  Name = 
REMARK  9 active torsions:
REMARK  status: ('A' for Active; 'I' for Inactive)
REMARK    1  A    between atoms: C_1  and  O_2
REMARK    2  A    between atoms: O_2  and  C_3
REMARK    3  A    between atoms: C_3  and  C_4
REMARK    4  A    between atoms: N_6  and  N_7
REMARK    5  A    between atoms: N_7  and  C_8
REMARK    6  A    between atoms: C_10  and  C_11
REMARK    7  A    between atoms: C_14  and  O_15
REMARK    8  A    between atoms: O_15  and  C_16
REMARK    9  A    between atoms: C_20  and  C_21
REMARK                            x       y       z     vdW  Elec       q    Type
REMARK                         _______ _______ _______ _____ _____    ______ ____
ROOT
ATOM      1  C   UNL     1       4.623   4.665  17.418  0.00  0.00    +0.000 A 
ATOM      2  N   UNL     1       3.592   5.320  18.044  0.00  0.00    +0.000 N 
ATOM      3  C   UNL     1       3.625   6.672  17.779  0.00  0.00    +0.000 A 
ATOM      4  C   UNL     1       4.693   6.863  16.915  0.00  0.00    +0.000 A 
ATOM      5  C   UNL     1       5.316   5.608  16.689  0.00  0.00    +0.000 A 
ATOM      6  H   UNL     1       2.936   4.867  18.662  0.00  0.00    +0.000 HD
ENDROOT
BRANCH   3   7
ATOM      7  C   UNL     1       2.715   7.637  18.403  0.00  0.00    +0.000 A 
ATOM      8  C   UNL     1       2.284   7.435  19.719  0.00  0.00    +0.000 A 
ATOM      9  C   UNL     1       1.364   8.303  20.312  0.00  0.00    +0.000 A 
ATOM     10  C   UNL     1       0.873   9.402  19.611  0.00  0.00    +0.000 A 
ATOM     11  C   UNL     1       1.302   9.625  18.304  0.00  0.00    +0.000 A 
ATOM     12  C   UNL     1       2.221   8.749  17.705  0.00  0.00    +0.000 A 
BRANCH  10  13
ATOM     13  O   UNL     1      -0.048  10.151  20.287  0.00  0.00    +0.000 OA
ATOM     14  C   UNL     1       0.221  10.377  21.665  0.00  0.00    +0.000 C 
ENDBRANCH  10  13
ENDBRANCH   3   7
BRANCH   1  15
ATOM     15  N   UNL     1       4.797   3.328  17.579  0.00  0.00    +0.000 N 
ATOM     16  H   UNL     1       5.766   2.969  17.548  0.00  0.00    +0.000 HD
BRANCH  15  19
ATOM     17  C   UNL     1       2.706   2.420  18.245  0.00  0.00    +0.000 C 
ATOM     18  O   UNL     1       2.199   2.674  17.156  0.00  0.00    +0.000 OA
ATOM     19  N   UNL     1       4.047   2.627  18.543  0.00  0.00    +0.000 N 
ATOM     20  H   UNL     1       4.268   2.815  19.519  0.00  0.00    +0.000 HD
BRANCH  17  21
ATOM     21  C   UNL     1       1.938   1.824  19.420  0.00  0.00    +0.000 C 
BRANCH  21  23
ATOM     22  C   UNL     1       1.926   2.942  21.501  0.00  0.00    +0.000 C 
ATOM     23  O   UNL     1       1.302   2.815  20.225  0.00  0.00    +0.000 OA
ENDBRANCH  21  23
ENDBRANCH  17  21
ENDBRANCH  15  19
ENDBRANCH   1  15
BRANCH   5  24
ATOM     24  C   UNL     1       6.481   5.372  15.895  0.00  0.00    +0.000 C 
ATOM     25  N   UNL     1       7.434   5.189  15.260  0.00  0.00    +0.000 NA
ENDBRANCH   5  24
TORSDOF 7
ENDMDL
MODEL 6
REMARK VINA RESULT:      -7.0      2.571      4.520
REMARK  Name = 
REMARK  9 active torsions:
REMARK  status: ('A' for Active; 'I' for Inactive)
REMARK    1  A    between atoms: C_1  and  O_2
REMARK    2  A    between atoms: O_2  and  C_3
REMARK    3  A    between atoms: C_3  and  C_4
REMARK    4  A    between atoms: N_6  and  N_7
REMARK    5  A    between atoms: N_7  and  C_8
REMARK    6  A    between atoms: C_10  and  C_11
REMARK    7  A    between atoms: C_14  and  O_15
REMARK    8  A    between atoms: O_15  and  C_16
REMARK    9  A    between atoms: C_20  and  C_21
REMARK                            x       y       z     vdW  Elec       q    Type
REMARK                         _______ _______ _______ _____ _____    ______ ____
ROOT
ATOM      1  C   UNL     1       4.779   4.818  17.800  0.00  0.00    +0.000 A 
ATOM      2  N   UNL     1       3.721   5.419  18.434  0.00  0.00    +0.000 N 
ATOM      3  C   UNL     1       3.533   6.707  17.980  0.00  0.00    +0.000 A 
ATOM      4  C   UNL     1       4.485   6.903  16.990  0.00  0.00    +0.000 A 
ATOM      5  C   UNL     1       5.263   5.721  16.877  0.00  0.00    +0.000 A 
ATOM      6  H   UNL     1       3.193   4.984  19.175  0.00  0.00    +0.000 HD
ENDROOT
BRANCH   3   7
ATOM      7  C   UNL     1       2.549   7.628  18.556  0.00  0.00    +0.000 A 
ATOM      8  C   UNL     1       2.016   8.656  17.770  0.00  0.00    +0.000 A 
ATOM      9  C   UNL     1       1.129   9.587  18.317  0.00  0.00    +0.000 A 
ATOM     10  C   UNL     1       0.740   9.498  19.651  0.00  0.00    +0.000 A 
ATOM     11  C   UNL     1       1.252   8.472  20.444  0.00  0.00    +0.000 A 
ATOM     12  C   UNL     1       2.148   7.540  19.898  0.00  0.00    +0.000 A 
BRANCH  10  13
ATOM     13  O   UNL     1      -0.100  10.489  20.073  0.00  0.00    +0.000 OA
ATOM     14  C   UNL     1      -0.990  11.012  19.095  0.00  0.00    +0.000 C 
ENDBRANCH  10  13
ENDBRANCH   3   7
BRANCH   1  15
ATOM     15  N   UNL     1       5.159   3.556  18.127  0.00  0.00    +0.000 N 
ATOM     16  H   UNL     1       6.048   3.210  17.728  0.00  0.00    +0.000 HD
BRANCH  15  19
ATOM     17  C   UNL     1       3.963   2.192  19.659  0.00  0.00    +0.000 C 
ATOM     18  O   UNL     1       3.296   1.689  18.758  0.00  0.00    +0.000 OA
ATOM     19  N   UNL     1       5.003   3.088  19.446  0.00  0.00    +0.000 N 
ATOM     20  H   UNL     1       5.181   3.757  20.193  0.00  0.00    +0.000 HD
BRANCH  17  21
ATOM     21  C   UNL     1       3.754   1.889  21.139  0.00  0.00    +0.000 C 
BRANCH  21  23
ATOM     22  C   UNL     1       1.542   2.631  21.499  0.00  0.00    +0.000 C 
ATOM     23  O   UNL     1       2.921   2.847  21.788  0.00  0.00    +0.000 OA
ENDBRANCH  21  23
ENDBRANCH  17  21
ENDBRANCH  15  19
ENDBRANCH   1  15
BRANCH   5  24
ATOM     24  C   UNL     1       6.377   5.522  16.005  0.00  0.00    +0.000 C 
ATOM     25  N   UNL     1       7.289   5.371  15.304  0.00  0.00    +0.000 NA
ENDBRANCH   5  24
TORSDOF 7
ENDMDL
MODEL 7
REMARK VINA RESULT:      -7.0      0.694      1.287
REMARK  Name = 
REMARK  9 active torsions:
REMARK  status: ('A' for Active; 'I' for Inactive)
REMARK    1  A    between atoms: C_1  and  O_2
REMARK    2  A    between atoms: O_2  and  C_3
REMARK    3  A    between atoms: C_3  and  C_4
REMARK    4  A    between atoms: N_6  and  N_7
REMARK    5  A    between atoms: N_7  and  C_8
REMARK    6  A    between atoms: C_10  and  C_11
REMARK    7  A    between atoms: C_14  and  O_15
REMARK    8  A    between atoms: O_15  and  C_16
REMARK    9  A    between atoms: C_20  and  C_21
REMARK                            x       y       z     vdW  Elec       q    Type
REMARK                         _______ _______ _______ _____ _____    ______ ____
ROOT
ATOM      1  C   UNL     1       4.842   4.625  18.196  0.00  0.00    +0.000 A 
ATOM      2  N   UNL     1       4.483   5.940  18.361  0.00  0.00    +0.000 N 
ATOM      3  C   UNL     1       3.149   6.055  18.687  0.00  0.00    +0.000 A 
ATOM      4  C   UNL     1       2.665   4.757  18.772  0.00  0.00    +0.000 A 
ATOM      5  C   UNL     1       3.725   3.864  18.465  0.00  0.00    +0.000 A 
ATOM      6  H   UNL     1       5.109   6.714  18.207  0.00  0.00    +0.000 HD
ENDROOT
BRANCH   3   7
ATOM      7  C   UNL     1       2.459   7.342  18.814  0.00  0.00    +0.000 A 
ATOM      8  C   UNL     1       2.487   8.253  17.751  0.00  0.00    +0.000 A 
ATOM      9  C   UNL     1       1.896   9.513  17.874  0.00  0.00    +0.000 A 
ATOM     10  C   UNL     1       1.247   9.881  19.050  0.00  0.00    +0.000 A 
ATOM     11  C   UNL     1       1.198   8.980  20.113  0.00  0.00    +0.000 A 
ATOM     12  C   UNL     1       1.798   7.717  19.993  0.00  0.00    +0.000 A 
BRANCH  10  13
ATOM     13  O   UNL     1       0.744  11.151  19.057  0.00  0.00    +0.000 OA
ATOM     14  C   UNL     1       1.671  12.190  18.771  0.00  0.00    +0.000 C 
ENDBRANCH  10  13
ENDBRANCH   3   7
BRANCH   1  15
ATOM     15  N   UNL     1       6.108   4.292  17.834  0.00  0.00    +0.000 N 
ATOM     16  H   UNL     1       6.675   3.769  18.523  0.00  0.00    +0.000 HD
BRANCH  15  19
ATOM     17  C   UNL     1       6.500   4.805  15.550  0.00  0.00    +0.000 C 
ATOM     18  O   UNL     1       6.540   6.010  15.781  0.00  0.00    +0.000 OA
ATOM     19  N   UNL     1       6.375   3.830  16.531  0.00  0.00    +0.000 N 
ATOM     20  H   UNL     1       5.920   2.964  16.251  0.00  0.00    +0.000 HD
BRANCH  17  21
ATOM     21  C   UNL     1       6.600   4.207  14.150  0.00  0.00    +0.000 C 
BRANCH  21  23
ATOM     22  C   UNL     1       5.436   3.356  12.280  0.00  0.00    +0.000 C 
ATOM     23  O   UNL     1       5.327   4.022  13.536  0.00  0.00    +0.000 OA
ENDBRANCH  21  23
ENDBRANCH  17  21
ENDBRANCH  15  19
ENDBRANCH   1  15
BRANCH   5  24
ATOM     24  C   UNL     1       3.638   2.440  18.395  0.00  0.00    +0.000 C 
ATOM     25  N   UNL     1       3.556   1.284  18.329  0.00  0.00    +0.000 NA
ENDBRANCH   5  24
TORSDOF 7
ENDMDL
MODEL 8
REMARK VINA RESULT:      -7.0      2.153      3.063
REMARK  Name = 
REMARK  9 active torsions:
REMARK  status: ('A' for Active; 'I' for Inactive)
REMARK    1  A    between atoms: C_1  and  O_2
REMARK    2  A    between atoms: O_2  and  C_3
REMARK    3  A    between atoms: C_3  and  C_4
REMARK    4  A    between atoms: N_6  and  N_7
REMARK    5  A    between atoms: N_7  and  C_8
REMARK    6  A    between atoms: C_10  and  C_11
REMARK    7  A    between atoms: C_14  and  O_15
REMARK    8  A    between atoms: O_15  and  C_16
REMARK    9  A    between atoms: C_20  and  C_21
REMARK                            x       y       z     vdW  Elec       q    Type
REMARK                         _______ _______ _______ _____ _____    ______ ____
ROOT
ATOM      1  C   UNL     1       3.268   4.517  19.485  0.00  0.00    +0.000 A 
ATOM      2  N   UNL     1       3.175   5.812  19.040  0.00  0.00    +0.000 N 
ATOM      3  C   UNL     1       2.267   6.532  19.786  0.00  0.00    +0.000 A 
ATOM      4  C   UNL     1       1.805   5.663  20.765  0.00  0.00    +0.000 A 
ATOM      5  C   UNL     1       2.433   4.403  20.576  0.00  0.00    +0.000 A 
ATOM      6  H   UNL     1       3.671   6.164  18.236  0.00  0.00    +0.000 HD
ENDROOT
BRANCH   3   7
ATOM      7  C   UNL     1       1.878   7.909  19.471  0.00  0.00    +0.000 A 
ATOM      8  C   UNL     1       2.209   8.457  18.226  0.00  0.00    +0.000 A 
ATOM      9  C   UNL     1       1.910   9.789  17.929  0.00  0.00    +0.000 A 
ATOM     10  C   UNL     1       1.256  10.594  18.858  0.00  0.00    +0.000 A 
ATOM     11  C   UNL     1       0.907  10.059  20.098  0.00  0.00    +0.000 A 
ATOM     12  C   UNL     1       1.214   8.724  20.400  0.00  0.00    +0.000 A 
BRANCH  10  13
ATOM     13  O   UNL     1       1.055  11.886  18.462  0.00  0.00    +0.000 OA
ATOM     14  C   UNL     1       1.428  12.890  19.397  0.00  0.00    +0.000 C 
ENDBRANCH  10  13
ENDBRANCH   3   7
BRANCH   1  15
ATOM     15  N   UNL     1       4.081   3.625  18.862  0.00  0.00    +0.000 N 
ATOM     16  H   UNL     1       3.739   3.208  17.980  0.00  0.00    +0.000 HD
BRANCH  15  19
ATOM     17  C   UNL     1       5.923   4.438  17.602  0.00  0.00    +0.000 C 
ATOM     18  O   UNL     1       5.186   4.869  16.720  0.00  0.00    +0.000 OA
ATOM     19  N   UNL     1       5.467   3.865  18.783  0.00  0.00    +0.000 N 
ATOM     20  H   UNL     1       6.076   3.172  19.212  0.00  0.00    +0.000 HD
BRANCH  17  21
ATOM     21  C   UNL     1       7.446   4.486  17.533  0.00  0.00    +0.000 C 
BRANCH  21  23
ATOM     22  C   UNL     1       7.935   6.410  18.812  0.00  0.00    +0.000 C 
ATOM     23  O   UNL     1       8.038   4.990  18.728  0.00  0.00    +0.000 OA
ENDBRANCH  21  23
ENDBRANCH  17  21
ENDBRANCH  15  19
ENDBRANCH   1  15
BRANCH   5  24
ATOM     24  C   UNL     1       2.201   3.219  21.341  0.00  0.00    +0.000 C 
ATOM     25  N   UNL     1       2.023   2.262  21.972  0.00  0.00    +0.000 NA
ENDBRANCH   5  24
TORSDOF 7
ENDMDL
MODEL 9
REMARK VINA RESULT:      -6.8      1.833      2.180
REMARK  Name = 
REMARK  9 active torsions:
REMARK  status: ('A' for Active; 'I' for Inactive)
REMARK    1  A    between atoms: C_1  and  O_2
REMARK    2  A    between atoms: O_2  and  C_3
REMARK    3  A    between atoms: C_3  and  C_4
REMARK    4  A    between atoms: N_6  and  N_7
REMARK    5  A    between atoms: N_7  and  C_8
REMARK    6  A    between atoms: C_10  and  C_11
REMARK    7  A    between atoms: C_14  and  O_15
REMARK    8  A    between atoms: O_15  and  C_16
REMARK    9  A    between atoms: C_20  and  C_21
REMARK                            x       y       z     vdW  Elec       q    Type
REMARK                         _______ _______ _______ _____ _____    ______ ____
ROOT
ATOM      1  C   UNL     1       3.527   4.644  19.941  0.00  0.00    +0.000 A 
ATOM      2  N   UNL     1       3.460   5.939  19.492  0.00  0.00    +0.000 N 
ATOM      3  C   UNL     1       2.321   6.567  19.948  0.00  0.00    +0.000 A 
ATOM      4  C   UNL     1       1.672   5.641  20.750  0.00  0.00    +0.000 A 
ATOM      5  C   UNL     1       2.427   4.439  20.746  0.00  0.00    +0.000 A 
ATOM      6  H   UNL     1       4.135   6.349  18.865  0.00  0.00    +0.000 HD
ENDROOT
BRANCH   3   7
ATOM      7  C   UNL     1       1.928   7.919  19.538  0.00  0.00    +0.000 A 
ATOM      8  C   UNL     1       1.209   8.732  20.421  0.00  0.00    +0.000 A 
ATOM      9  C   UNL     1       0.764   9.997  20.028  0.00  0.00    +0.000 A 
ATOM     10  C   UNL     1       1.047  10.484  18.755  0.00  0.00    +0.000 A 
ATOM     11  C   UNL     1       1.774   9.692  17.867  0.00  0.00    +0.000 A 
ATOM     12  C   UNL     1       2.215   8.419  18.259  0.00  0.00    +0.000 A 
BRANCH  10  13
ATOM     13  O   UNL     1       0.525  11.716  18.480  0.00  0.00    +0.000 OA
ATOM     14  C   UNL     1       0.015  12.440  19.593  0.00  0.00    +0.000 C 
ENDBRANCH  10  13
ENDBRANCH   3   7
BRANCH   1  15
ATOM     15  N   UNL     1       4.554   3.835  19.575  0.00  0.00    +0.000 N 
ATOM     16  H   UNL     1       4.552   2.870  19.946  0.00  0.00    +0.000 HD
BRANCH  15  19
ATOM     17  C   UNL     1       6.263   4.451  18.047  0.00  0.00    +0.000 C 
ATOM     18  O   UNL     1       7.001   4.825  18.954  0.00  0.00    +0.000 OA
ATOM     19  N   UNL     1       5.029   3.847  18.250  0.00  0.00    +0.000 N 
ATOM     20  H   UNL     1       4.336   3.980  17.517  0.00  0.00    +0.000 HD
BRANCH  17  21
ATOM     21  C   UNL     1       6.606   4.583  16.566  0.00  0.00    +0.000 C 
BRANCH  21  23
ATOM     22  C   UNL     1       5.901   4.177  14.349  0.00  0.00    +0.000 C 
ATOM     23  O   UNL     1       5.503   4.284  15.714  0.00  0.00    +0.000 OA
ENDBRANCH  21  23
ENDBRANCH  17  21
ENDBRANCH  15  19
ENDBRANCH   1  15
BRANCH   5  24
ATOM     24  C   UNL     1       2.083   3.221  21.410  0.00  0.00    +0.000 C 
ATOM     25  N   UNL     1       1.789   2.235  21.947  0.00  0.00    +0.000 NA
ENDBRANCH   5  24
TORSDOF 7
ENDMDL
