MODEL 1
REMARK VINA RESULT:      -7.1      0.000      0.000
REMARK  Name = 
REMARK  4 active torsions:
REMARK  status: ('A' for Active; 'I' for Inactive)
REMARK    1  A    between atoms: N_1  and  C_2
REMARK    2  A    between atoms: C_2  and  N_4
REMARK    3  A    between atoms: N_5  and  C_6
REMARK    4  A    between atoms: C_7  and  O_8
REMARK                            x       y       z     vdW  Elec       q    Type
REMARK                         _______ _______ _______ _____ _____    ______ ____
ROOT
ATOM      1  C   UNL     1       6.048   4.498  14.729  0.00  0.00    +0.000 A 
ATOM      2  C   UNL     1       7.223   5.215  14.634  0.00  0.00    +0.000 A 
ATOM      3  N   UNL     1       7.571   5.596  15.896  0.00  0.00    +0.000 N 
ATOM      4  C   UNL     1       6.666   5.111  16.816  0.00  0.00    +0.000 A 
ATOM      5  C   UNL     1       6.630   5.250  18.208  0.00  0.00    +0.000 A 
ATOM      6 CL   UNL     1       7.827   6.161  19.037  0.00  0.00    +0.000 Cl
ATOM      7  C   UNL     1       5.599   4.633  18.912  0.00  0.00    +0.000 A 
ATOM      8  C   UNL     1       4.635   3.895  18.228  0.00  0.00    +0.000 A 
ATOM      9 CL   UNL     1       3.377   3.127  19.122  0.00  0.00    +0.000 Cl
ATOM     10  C   UNL     1       4.665   3.762  16.834  0.00  0.00    +0.000 A 
ATOM     11  C   UNL     1       5.700   4.389  16.107  0.00  0.00    +0.000 A 
ATOM     12  H   UNL     1       8.388   6.148  16.121  0.00  0.00    +0.000 HD
ENDROOT
BRANCH   1  14
ATOM     13  N   UNL     1       6.043   3.353  12.833  0.00  0.00    +0.000 NA
ATOM     14  N   UNL     1       5.313   3.930  13.673  0.00  0.00    +0.000 NA
BRANCH  13  15
ATOM     15  C   UNL     1       5.357   2.757  11.802  0.00  0.00    +0.000 C 
ATOM     16  S   UNL     1       3.940   3.224  11.037  0.00  0.00    +0.000 S 
BRANCH  15  17
ATOM     17  N   UNL     1       5.908   1.565  11.429  0.00  0.00    +0.000 N 
ATOM     18  H   UNL     1       6.133   1.401  10.457  0.00  0.00    +0.000 HD
ATOM     19  H   UNL     1       6.109   0.848  12.113  0.00  0.00    +0.000 HD
ENDBRANCH  15  17
ENDBRANCH  13  15
ENDBRANCH   1  14
BRANCH   2  20
ATOM     20  O   UNL     1       7.988   5.553  13.604  0.00  0.00    +0.000 OA
ATOM     21  H   UNL     1       8.609   6.226  13.944  0.00  0.00    +0.000 HD
ENDBRANCH   2  20
TORSDOF 4
ENDMDL
MODEL 2
REMARK VINA RESULT:      -6.7      3.547      4.912
REMARK  Name = 
REMARK  4 active torsions:
REMARK  status: ('A' for Active; 'I' for Inactive)
REMARK    1  A    between atoms: N_1  and  C_2
REMARK    2  A    between atoms: C_2  and  N_4
REMARK    3  A    between atoms: N_5  and  C_6
REMARK    4  A    between atoms: C_7  and  O_8
REMARK                            x       y       z     vdW  Elec       q    Type
REMARK                         _______ _______ _______ _____ _____    ______ ____
ROOT
ATOM      1  C   UNL     1       3.914   3.748  17.599  0.00  0.00    +0.000 A 
ATOM      2  C   UNL     1       3.827   2.431  18.001  0.00  0.00    +0.000 A 
ATOM      3  N   UNL     1       3.152   2.409  19.185  0.00  0.00    +0.000 N 
ATOM      4  C   UNL     1       2.764   3.681  19.546  0.00  0.00    +0.000 A 
ATOM      5  C   UNL     1       2.054   4.126  20.666  0.00  0.00    +0.000 A 
ATOM      6 CL   UNL     1       1.537   3.026  21.880  0.00  0.00    +0.000 Cl
ATOM      7  C   UNL     1       1.774   5.486  20.780  0.00  0.00    +0.000 A 
ATOM      8  C   UNL     1       2.197   6.368  19.788  0.00  0.00    +0.000 A 
ATOM      9 CL   UNL     1       1.825   8.044  19.943  0.00  0.00    +0.000 Cl
ATOM     10  C   UNL     1       2.916   5.925  18.670  0.00  0.00    +0.000 A 
ATOM     11  C   UNL     1       3.214   4.551  18.546  0.00  0.00    +0.000 A 
ATOM     12  H   UNL     1       2.954   1.570  19.714  0.00  0.00    +0.000 HD
ENDROOT
BRANCH   1  14
ATOM     13  N   UNL     1       5.774   3.990  16.422  0.00  0.00    +0.000 NA
ATOM     14  N   UNL     1       4.547   4.244  16.446  0.00  0.00    +0.000 NA
BRANCH  13  15
ATOM     15  C   UNL     1       6.422   4.431  15.293  0.00  0.00    +0.000 C 
ATOM     16  S   UNL     1       6.240   3.965  13.694  0.00  0.00    +0.000 S 
BRANCH  15  17
ATOM     17  N   UNL     1       7.411   5.329  15.577  0.00  0.00    +0.000 N 
ATOM     18  H   UNL     1       7.580   6.101  14.947  0.00  0.00    +0.000 HD
ATOM     19  H   UNL     1       7.968   5.242  16.416  0.00  0.00    +0.000 HD
ENDBRANCH  15  17
ENDBRANCH  13  15
ENDBRANCH   1  14
BRANCH   2  20
ATOM     20  O   UNL     1       4.258   1.298  17.461  0.00  0.00    +0.000 OA
ATOM     21  H   UNL     1       3.472   0.880  17.058  0.00  0.00    +0.000 HD
ENDBRANCH   2  20
TORSDOF 4
ENDMDL
MODEL 3
REMARK VINA RESULT:      -6.5      3.999      5.392
REMARK  Name = 
REMARK  4 active torsions:
REMARK  status: ('A' for Active; 'I' for Inactive)
REMARK    1  A    between atoms: N_1  and  C_2
REMARK    2  A    between atoms: C_2  and  N_4
REMARK    3  A    between atoms: N_5  and  C_6
REMARK    4  A    between atoms: C_7  and  O_8
REMARK                            x       y       z     vdW  Elec       q    Type
REMARK                         _______ _______ _______ _____ _____    ______ ____
ROOT
ATOM      1  C   UNL     1       5.888   4.586  16.280  0.00  0.00    +0.000 A 
ATOM      2  C   UNL     1       6.794   5.560  16.648  0.00  0.00    +0.000 A 
ATOM      3  N   UNL     1       7.554   5.845  15.552  0.00  0.00    +0.000 N 
ATOM      4  C   UNL     1       7.138   5.104  14.467  0.00  0.00    +0.000 A 
ATOM      5  C   UNL     1       7.619   5.075  13.154  0.00  0.00    +0.000 A 
ATOM      6 CL   UNL     1       8.951   6.051  12.678  0.00  0.00    +0.000 Cl
ATOM      7  C   UNL     1       6.995   4.235  12.234  0.00  0.00    +0.000 A 
ATOM      8  C   UNL     1       5.915   3.450  12.631  0.00  0.00    +0.000 A 
ATOM      9 CL   UNL     1       5.150   2.430  11.472  0.00  0.00    +0.000 Cl
ATOM     10  C   UNL     1       5.438   3.471  13.948  0.00  0.00    +0.000 A 
ATOM     11  C   UNL     1       6.066   4.312  14.893  0.00  0.00    +0.000 A 
ATOM     12  H   UNL     1       8.308   6.518  15.540  0.00  0.00    +0.000 HD
ENDROOT
BRANCH   1  14
ATOM     13  N   UNL     1       5.305   3.846  18.284  0.00  0.00    +0.000 NA
ATOM     14  N   UNL     1       4.922   3.974  17.098  0.00  0.00    +0.000 NA
BRANCH  13  15
ATOM     15  C   UNL     1       4.374   3.280  19.122  0.00  0.00    +0.000 C 
ATOM     16  S   UNL     1       2.777   3.702  19.401  0.00  0.00    +0.000 S 
BRANCH  15  17
ATOM     17  N   UNL     1       4.900   2.273  19.880  0.00  0.00    +0.000 N 
ATOM     18  H   UNL     1       4.722   2.253  20.875  0.00  0.00    +0.000 HD
ATOM     19  H   UNL     1       5.453   1.539  19.459  0.00  0.00    +0.000 HD
ENDBRANCH  15  17
ENDBRANCH  13  15
ENDBRANCH   1  14
BRANCH   2  20
ATOM     20  O   UNL     1       7.013   6.196  17.791  0.00  0.00    +0.000 OA
ATOM     21  H   UNL     1       6.179   6.659  18.002  0.00  0.00    +0.000 HD
ENDBRANCH   2  20
TORSDOF 4
ENDMDL
MODEL 4
REMARK VINA RESULT:      -6.3      3.676      4.540
REMARK  Name = 
REMARK  4 active torsions:
REMARK  status: ('A' for Active; 'I' for Inactive)
REMARK    1  A    between atoms: N_1  and  C_2
REMARK    2  A    between atoms: C_2  and  N_4
REMARK    3  A    between atoms: N_5  and  C_6
REMARK    4  A    between atoms: C_7  and  O_8
REMARK                            x       y       z     vdW  Elec       q    Type
REMARK                         _______ _______ _______ _____ _____    ______ ____
ROOT
ATOM      1  C   UNL     1       4.490   5.181  17.058  0.00  0.00    +0.000 A 
ATOM      2  C   UNL     1       4.313   4.017  17.777  0.00  0.00    +0.000 A 
ATOM      3  N   UNL     1       3.483   4.302  18.820  0.00  0.00    +0.000 N 
ATOM      4  C   UNL     1       3.085   5.621  18.776  0.00  0.00    +0.000 A 
ATOM      5  C   UNL     1       2.242   6.339  19.631  0.00  0.00    +0.000 A 
ATOM      6 CL   UNL     1       1.535   5.594  21.008  0.00  0.00    +0.000 Cl
ATOM      7  C   UNL     1       1.986   7.678  19.342  0.00  0.00    +0.000 A 
ATOM      8  C   UNL     1       2.563   8.270  18.222  0.00  0.00    +0.000 A 
ATOM      9 CL   UNL     1       2.219   9.923  17.876  0.00  0.00    +0.000 Cl
ATOM     10  C   UNL     1       3.415   7.554  17.370  0.00  0.00    +0.000 A 
ATOM     11  C   UNL     1       3.689   6.199  17.654  0.00  0.00    +0.000 A 
ATOM     12  H   UNL     1       3.193   3.631  19.519  0.00  0.00    +0.000 HD
ENDROOT
BRANCH   1  14
ATOM     13  N   UNL     1       5.597   4.276  15.368  0.00  0.00    +0.000 NA
ATOM     14  N   UNL     1       5.286   5.360  15.913  0.00  0.00    +0.000 NA
BRANCH  13  15
ATOM     15  C   UNL     1       6.349   4.412  14.226  0.00  0.00    +0.000 C 
ATOM     16  S   UNL     1       6.224   3.625  12.752  0.00  0.00    +0.000 S 
BRANCH  15  17
ATOM     17  N   UNL     1       7.396   5.273  14.391  0.00  0.00    +0.000 N 
ATOM     18  H   UNL     1       8.049   5.416  13.633  0.00  0.00    +0.000 HD
ATOM     19  H   UNL     1       7.520   5.782  15.256  0.00  0.00    +0.000 HD
ENDBRANCH  15  17
ENDBRANCH  13  15
ENDBRANCH   1  14
BRANCH   2  20
ATOM     20  O   UNL     1       4.782   2.786  17.619  0.00  0.00    +0.000 OA
ATOM     21  H   UNL     1       4.039   2.262  17.260  0.00  0.00    +0.000 HD
ENDBRANCH   2  20
TORSDOF 4
ENDMDL
MODEL 5
REMARK VINA RESULT:      -6.1      4.084      5.343
REMARK  Name = 
REMARK  4 active torsions:
REMARK  status: ('A' for Active; 'I' for Inactive)
REMARK    1  A    between atoms: N_1  and  C_2
REMARK    2  A    between atoms: C_2  and  N_4
REMARK    3  A    between atoms: N_5  and  C_6
REMARK    4  A    between atoms: C_7  and  O_8
REMARK                            x       y       z     vdW  Elec       q    Type
REMARK                         _______ _______ _______ _____ _____    ______ ____
ROOT
ATOM      1  C   UNL     1       5.715   4.595  16.237  0.00  0.00    +0.000 A 
ATOM      2  C   UNL     1       6.631   5.542  16.648  0.00  0.00    +0.000 A 
ATOM      3  N   UNL     1       7.449   5.805  15.589  0.00  0.00    +0.000 N 
ATOM      4  C   UNL     1       7.061   5.078  14.484  0.00  0.00    +0.000 A 
ATOM      5  C   UNL     1       7.602   5.037  13.194  0.00  0.00    +0.000 A 
ATOM      6 CL   UNL     1       8.981   5.973  12.783  0.00  0.00    +0.000 Cl
ATOM      7  C   UNL     1       6.996   4.216  12.245  0.00  0.00    +0.000 A 
ATOM      8  C   UNL     1       5.876   3.463  12.590  0.00  0.00    +0.000 A 
ATOM      9 CL   UNL     1       5.135   2.467  11.395  0.00  0.00    +0.000 Cl
ATOM     10  C   UNL     1       5.340   3.496  13.884  0.00  0.00    +0.000 A 
ATOM     11  C   UNL     1       5.948   4.317  14.858  0.00  0.00    +0.000 A 
ATOM     12  H   UNL     1       8.222   6.456  15.613  0.00  0.00    +0.000 HD
ENDROOT
BRANCH   1  14
ATOM     13  N   UNL     1       3.966   4.862  17.568  0.00  0.00    +0.000 NA
ATOM     14  N   UNL     1       4.695   4.010  17.008  0.00  0.00    +0.000 NA
BRANCH  13  15
ATOM     15  C   UNL     1       2.936   4.328  18.306  0.00  0.00    +0.000 C 
ATOM     16  S   UNL     1       2.937   3.695  19.857  0.00  0.00    +0.000 S 
BRANCH  15  17
ATOM     17  N   UNL     1       1.772   4.250  17.595  0.00  0.00    +0.000 N 
ATOM     18  H   UNL     1       1.650   4.825  16.773  0.00  0.00    +0.000 HD
ATOM     19  H   UNL     1       1.036   3.614  17.871  0.00  0.00    +0.000 HD
ENDBRANCH  15  17
ENDBRANCH  13  15
ENDBRANCH   1  14
BRANCH   2  20
ATOM     20  O   UNL     1       6.816   6.170  17.801  0.00  0.00    +0.000 OA
ATOM     21  H   UNL     1       7.159   5.496  18.420  0.00  0.00    +0.000 HD
ENDBRANCH   2  20
TORSDOF 4
ENDMDL
MODEL 6
REMARK VINA RESULT:      -6.1      5.822      7.196
REMARK  Name = 
REMARK  4 active torsions:
REMARK  status: ('A' for Active; 'I' for Inactive)
REMARK    1  A    between atoms: N_1  and  C_2
REMARK    2  A    between atoms: C_2  and  N_4
REMARK    3  A    between atoms: N_5  and  C_6
REMARK    4  A    between atoms: C_7  and  O_8
REMARK                            x       y       z     vdW  Elec       q    Type
REMARK                         _______ _______ _______ _____ _____    ______ ____
ROOT
ATOM      1  C   UNL     1       2.679   7.292  18.849  0.00  0.00    +0.000 A 
ATOM      2  C   UNL     1       2.340   6.753  20.074  0.00  0.00    +0.000 A 
ATOM      3  N   UNL     1       2.917   5.520  20.152  0.00  0.00    +0.000 N 
ATOM      4  C   UNL     1       3.657   5.259  19.018  0.00  0.00    +0.000 A 
ATOM      5  C   UNL     1       4.413   4.134  18.673  0.00  0.00    +0.000 A 
ATOM      6 CL   UNL     1       4.510   2.777  19.721  0.00  0.00    +0.000 Cl
ATOM      7  C   UNL     1       5.089   4.135  17.454  0.00  0.00    +0.000 A 
ATOM      8  C   UNL     1       5.005   5.242  16.614  0.00  0.00    +0.000 A 
ATOM      9 CL   UNL     1       5.862   5.227  15.119  0.00  0.00    +0.000 Cl
ATOM     10  C   UNL     1       4.240   6.366  16.955  0.00  0.00    +0.000 A 
ATOM     11  C   UNL     1       3.544   6.375  18.182  0.00  0.00    +0.000 A 
ATOM     12  H   UNL     1       2.824   4.895  20.941  0.00  0.00    +0.000 HD
ENDROOT
BRANCH   1  14
ATOM     13  N   UNL     1       1.417   9.101  19.038  0.00  0.00    +0.000 NA
ATOM     14  N   UNL     1       2.284   8.538  18.331  0.00  0.00    +0.000 NA
BRANCH  13  15
ATOM     15  C   UNL     1       1.029  10.338  18.581  0.00  0.00    +0.000 C 
ATOM     16  S   UNL     1      -0.426  11.149  18.766  0.00  0.00    +0.000 S 
BRANCH  15  17
ATOM     17  N   UNL     1       1.980  10.924  17.795  0.00  0.00    +0.000 N 
ATOM     18  H   UNL     1       1.697  11.458  16.985  0.00  0.00    +0.000 HD
ATOM     19  H   UNL     1       2.962  10.844  18.019  0.00  0.00    +0.000 HD
ENDBRANCH  15  17
ENDBRANCH  13  15
ENDBRANCH   1  14
BRANCH   2  20
ATOM     20  O   UNL     1       1.611   7.210  21.084  0.00  0.00    +0.000 OA
ATOM     21  H   UNL     1       0.714   6.845  20.951  0.00  0.00    +0.000 HD
ENDBRANCH   2  20
TORSDOF 4
ENDMDL
MODEL 7
REMARK VINA RESULT:      -6.0      2.906      3.584
REMARK  Name = 
REMARK  4 active torsions:
REMARK  status: ('A' for Active; 'I' for Inactive)
REMARK    1  A    between atoms: N_1  and  C_2
REMARK    2  A    between atoms: C_2  and  N_4
REMARK    3  A    between atoms: N_5  and  C_6
REMARK    4  A    between atoms: C_7  and  O_8
REMARK                            x       y       z     vdW  Elec       q    Type
REMARK                         _______ _______ _______ _____ _____    ______ ____
ROOT
ATOM      1  C   UNL     1       4.815   5.418  16.662  0.00  0.00    +0.000 A 
ATOM      2  C   UNL     1       5.142   6.671  17.140  0.00  0.00    +0.000 A 
ATOM      3  N   UNL     1       4.273   6.963  18.149  0.00  0.00    +0.000 N 
ATOM      4  C   UNL     1       3.409   5.911  18.364  0.00  0.00    +0.000 A 
ATOM      5  C   UNL     1       2.369   5.771  19.290  0.00  0.00    +0.000 A 
ATOM      6 CL   UNL     1       1.979   7.039  20.382  0.00  0.00    +0.000 Cl
ATOM      7  C   UNL     1       1.652   4.577  19.309  0.00  0.00    +0.000 A 
ATOM      8  C   UNL     1       1.978   3.555  18.420  0.00  0.00    +0.000 A 
ATOM      9 CL   UNL     1       1.087   2.081  18.473  0.00  0.00    +0.000 Cl
ATOM     10  C   UNL     1       3.013   3.698  17.487  0.00  0.00    +0.000 A 
ATOM     11  C   UNL     1       3.744   4.906  17.451  0.00  0.00    +0.000 A 
ATOM     12  H   UNL     1       4.275   7.829  18.672  0.00  0.00    +0.000 HD
ENDROOT
BRANCH   1  14
ATOM     13  N   UNL     1       6.080   5.482  14.846  0.00  0.00    +0.000 NA
ATOM     14  N   UNL     1       5.431   4.725  15.606  0.00  0.00    +0.000 NA
BRANCH  13  15
ATOM     15  C   UNL     1       6.724   4.835  13.818  0.00  0.00    +0.000 C 
ATOM     16  S   UNL     1       6.234   3.528  12.892  0.00  0.00    +0.000 S 
BRANCH  15  17
ATOM     17  N   UNL     1       7.985   5.316  13.610  0.00  0.00    +0.000 N 
ATOM     18  H   UNL     1       8.162   5.924  12.822  0.00  0.00    +0.000 HD
ATOM     19  H   UNL     1       8.741   5.085  14.239  0.00  0.00    +0.000 HD
ENDBRANCH  15  17
ENDBRANCH  13  15
ENDBRANCH   1  14
BRANCH   2  20
ATOM     20  O   UNL     1       6.081   7.544  16.799  0.00  0.00    +0.000 OA
ATOM     21  H   UNL     1       5.672   8.127  16.130  0.00  0.00    +0.000 HD
ENDBRANCH   2  20
TORSDOF 4
ENDMDL
MODEL 8
REMARK VINA RESULT:      -6.0      4.413      5.682
REMARK  Name = 
REMARK  4 active torsions:
REMARK  status: ('A' for Active; 'I' for Inactive)
REMARK    1  A    between atoms: N_1  and  C_2
REMARK    2  A    between atoms: C_2  and  N_4
REMARK    3  A    between atoms: N_5  and  C_6
REMARK    4  A    between atoms: C_7  and  O_8
REMARK                            x       y       z     vdW  Elec       q    Type
REMARK                         _______ _______ _______ _____ _____    ______ ____
ROOT
ATOM      1  C   UNL     1       4.303   4.892  17.926  0.00  0.00    +0.000 A 
ATOM      2  C   UNL     1       4.168   3.524  17.810  0.00  0.00    +0.000 A 
ATOM      3  N   UNL     1       3.193   3.134  18.681  0.00  0.00    +0.000 N 
ATOM      4  C   UNL     1       2.664   4.225  19.336  0.00  0.00    +0.000 A 
ATOM      5  C   UNL     1       1.654   4.297  20.300  0.00  0.00    +0.000 A 
ATOM      6 CL   UNL     1       0.871   2.877  20.870  0.00  0.00    +0.000 Cl
ATOM      7  C   UNL     1       1.292   5.549  20.794  0.00  0.00    +0.000 A 
ATOM      8  C   UNL     1       1.932   6.693  20.323  0.00  0.00    +0.000 A 
ATOM      9 CL   UNL     1       1.458   8.232  20.936  0.00  0.00    +0.000 Cl
ATOM     10  C   UNL     1       2.951   6.621  19.364  0.00  0.00    +0.000 A 
ATOM     11  C   UNL     1       3.333   5.359  18.861  0.00  0.00    +0.000 A 
ATOM     12  H   UNL     1       2.895   2.177  18.813  0.00  0.00    +0.000 HD
ENDROOT
BRANCH   1  14
ATOM     13  N   UNL     1       6.241   5.964  17.899  0.00  0.00    +0.000 NA
ATOM     14  N   UNL     1       5.207   5.718  17.235  0.00  0.00    +0.000 NA
BRANCH  13  15
ATOM     15  C   UNL     1       7.163   6.743  17.243  0.00  0.00    +0.000 C 
ATOM     16  S   UNL     1       7.807   8.233  17.658  0.00  0.00    +0.000 S 
BRANCH  15  17
ATOM     17  N   UNL     1       7.522   6.218  16.034  0.00  0.00    +0.000 N 
ATOM     18  H   UNL     1       6.808   5.997  15.354  0.00  0.00    +0.000 HD
ATOM     19  H   UNL     1       8.494   6.059  15.803  0.00  0.00    +0.000 HD
ENDBRANCH  15  17
ENDBRANCH  13  15
ENDBRANCH   1  14
BRANCH   2  20
ATOM     20  O   UNL     1       4.781   2.623  17.053  0.00  0.00    +0.000 OA
ATOM     21  H   UNL     1       4.616   2.894  16.129  0.00  0.00    +0.000 HD
ENDBRANCH   2  20
TORSDOF 4
ENDMDL
MODEL 9
REMARK VINA RESULT:      -5.9      6.531      8.109
REMARK  Name = 
REMARK  4 active torsions:
REMARK  status: ('A' for Active; 'I' for Inactive)
REMARK    1  A    between atoms: N_1  and  C_2
REMARK    2  A    between atoms: C_2  and  N_4
REMARK    3  A    between atoms: N_5  and  C_6
REMARK    4  A    between atoms: C_7  and  O_8
REMARK                            x       y       z     vdW  Elec       q    Type
REMARK                         _______ _______ _______ _____ _____    ______ ____
ROOT
ATOM      1  C   UNL     1       2.028   7.417  19.813  0.00  0.00    +0.000 A 
ATOM      2  C   UNL     1       2.455   7.828  18.566  0.00  0.00    +0.000 A 
ATOM      3  N   UNL     1       2.922   6.727  17.911  0.00  0.00    +0.000 N 
ATOM      4  C   UNL     1       2.773   5.600  18.691  0.00  0.00    +0.000 A 
ATOM      5  C   UNL     1       3.106   4.267  18.425  0.00  0.00    +0.000 A 
ATOM      6 CL   UNL     1       3.843   3.819  16.939  0.00  0.00    +0.000 Cl
ATOM      7  C   UNL     1       2.828   3.306  19.394  0.00  0.00    +0.000 A 
ATOM      8  C   UNL     1       2.229   3.681  20.594  0.00  0.00    +0.000 A 
ATOM      9 CL   UNL     1       1.881   2.472  21.772  0.00  0.00    +0.000 Cl
ATOM     10  C   UNL     1       1.904   5.017  20.865  0.00  0.00    +0.000 A 
ATOM     11  C   UNL     1       2.187   6.003  19.896  0.00  0.00    +0.000 A 
ATOM     12  H   UNL     1       3.309   6.740  16.977  0.00  0.00    +0.000 HD
ENDROOT
BRANCH   1  14
ATOM     13  N   UNL     1       0.785   9.156  20.392  0.00  0.00    +0.000 NA
ATOM     14  N   UNL     1       1.493   8.222  20.835  0.00  0.00    +0.000 NA
BRANCH  13  15
ATOM     15  C   UNL     1       0.218   9.946  21.364  0.00  0.00    +0.000 C 
ATOM     16  S   UNL     1      -0.138   9.598  22.964  0.00  0.00    +0.000 S 
BRANCH  15  17
ATOM     17  N   UNL     1      -0.170  11.164  20.884  0.00  0.00    +0.000 N 
ATOM     18  H   UNL     1      -0.506  11.869  21.526  0.00  0.00    +0.000 HD
ATOM     19  H   UNL     1      -0.112  11.377  19.897  0.00  0.00    +0.000 HD
ENDBRANCH  15  17
ENDBRANCH  13  15
ENDBRANCH   1  14
BRANCH   2  20
ATOM     20  O   UNL     1       2.476   9.013  17.971  0.00  0.00    +0.000 OA
ATOM     21  H   UNL     1       3.087   8.920  17.214  0.00  0.00    +0.000 HD
ENDBRANCH   2  20
TORSDOF 4
ENDMDL
