MODEL 1
REMARK VINA RESULT:      -7.4      0.000      0.000
REMARK  Name = 
REMARK  15 active torsions:
REMARK  status: ('A' for Active; 'I' for Inactive)
REMARK    1  A    between atoms: C_1  and  C_2
REMARK    2  A    between atoms: C_2  and  C_3
REMARK    3  A    between atoms: C_3  and  C_4
REMARK    4  A    between atoms: C_4  and  C_5
REMARK    5  A    between atoms: C_5  and  C_6
REMARK    6  A    between atoms: C_6  and  C_7
REMARK    7  A    between atoms: C_7  and  C_8
REMARK    8  A    between atoms: C_8  and  C_9
REMARK    9  A    between atoms: C_9  and  C_10
REMARK   10  A    between atoms: C_10  and  C_11
REMARK   11  A    between atoms: C_11  and  C_12
REMARK   12  A    between atoms: C_12  and  O_13
REMARK   13  A    between atoms: O_13  and  C_14
REMARK   14  A    between atoms: C_22  and  O_23
REMARK   15  A    between atoms: N_29  and  C_30
REMARK                            x       y       z     vdW  Elec       q    Type
REMARK                         _______ _______ _______ _____ _____    ______ ____
ROOT
ATOM      1  C   UNL     1       1.301   8.368  20.018  0.00  0.00    +0.000 A 
ATOM      2  C   UNL     1       1.634   9.275  18.955  0.00  0.00    +0.000 A 
ATOM      3  C   UNL     1       2.586   8.875  17.914  0.00  0.00    +0.000 A 
ATOM      4  C   UNL     1       3.148   7.568  17.953  0.00  0.00    +0.000 A 
ATOM      5  C   UNL     1       2.760   6.791  19.019  0.00  0.00    +0.000 A 
ATOM      6  C   UNL     1       1.918   7.156  20.044  0.00  0.00    +0.000 A 
ATOM      7  O   UNL     1       1.787   6.109  20.902  0.00  0.00    +0.000 OA
ATOM      8  C   UNL     1       2.081   5.021  20.159  0.00  0.00    +0.000 C 
ATOM      9  C   UNL     1       2.450   3.672  20.662  0.00  0.00    +0.000 C 
ATOM     10  C   UNL     1       2.573   2.795  19.398  0.00  0.00    +0.000 C 
ATOM     11  C   UNL     1       2.594   3.300  18.118  0.00  0.00    +0.000 C 
ATOM     12  C   UNL     1       2.775   4.774  17.821  0.00  0.00    +0.000 C 
ATOM     13  C   UNL     1       3.978   5.167  16.916  0.00  0.00    +0.000 C 
ATOM     14  C   UNL     1       4.061   6.811  16.890  0.00  0.00    +0.000 C 
ATOM     15  N   UNL     1       5.146   4.425  17.426  0.00  0.00    +0.000 NA
ATOM     16  C   UNL     1       6.368   4.408  16.559  0.00  0.00    +0.000 C 
ATOM     17  C   UNL     1       5.392   4.280  18.878  0.00  0.00    +0.000 C 
ATOM     18  C   UNL     1       4.641   5.409  19.589  0.00  0.00    +0.000 C 
ATOM     19  C   UNL     1       3.120   5.464  19.143  0.00  0.00    +0.000 C 
ENDROOT
BRANCH   9  20
ATOM     20  O   UNL     1       1.428   3.284  21.533  0.00  0.00    +0.000 OA
ATOM     21  H   UNL     1       1.378   2.293  21.537  0.00  0.00    +0.000 HD
ENDBRANCH   9  20
BRANCH   1  22
ATOM     22  O   UNL     1       0.315   8.687  20.966  0.00  0.00    +0.000 OA
BRANCH  22  23
ATOM     23  C   UNL     1       0.557   8.828  22.300  0.00  0.00    +0.000 C 
BRANCH  23  24
ATOM     24  C   UNL     1      -0.105  10.046  22.970  0.00  0.00    +0.000 C 
BRANCH  24  25
ATOM     25  C   UNL     1      -0.977  10.752  21.918  0.00  0.00    +0.000 C 
BRANCH  25  26
ATOM     26  C   UNL     1      -0.454  12.143  21.581  0.00  0.00    +0.000 C 
BRANCH  26  27
ATOM     27  C   UNL     1      -1.440  12.867  20.666  0.00  0.00    +0.000 C 
BRANCH  27  28
ATOM     28  C   UNL     1      -0.714  13.451  19.458  0.00  0.00    +0.000 C 
BRANCH  28  29
ATOM     29  C   UNL     1      -0.799  12.497  18.267  0.00  0.00    +0.000 C 
BRANCH  29  30
ATOM     30  C   UNL     1      -1.951  11.508  18.455  0.00  0.00    +0.000 C 
BRANCH  30  31
ATOM     31  C   UNL     1      -1.761  10.280  17.559  0.00  0.00    +0.000 C 
BRANCH  31  32
ATOM     32  C   UNL     1      -3.045   9.965  16.774  0.00  0.00    +0.000 C 
BRANCH  32  34
ATOM     33  C   UNL     1      -3.074  10.015  14.212  0.00  0.00    +0.000 C 
ATOM     34  C   UNL     1      -3.135  10.834  15.507  0.00  0.00    +0.000 C 
ENDBRANCH  32  34
ENDBRANCH  31  32
ENDBRANCH  30  31
ENDBRANCH  29  30
ENDBRANCH  28  29
ENDBRANCH  27  28
ENDBRANCH  26  27
ENDBRANCH  25  26
ENDBRANCH  24  25
ENDBRANCH  23  24
ENDBRANCH  22  23
ENDBRANCH   1  22
TORSDOF 13
ENDMDL
MODEL 2
REMARK VINA RESULT:      -7.3      1.102      1.309
REMARK  Name = 
REMARK  15 active torsions:
REMARK  status: ('A' for Active; 'I' for Inactive)
REMARK    1  A    between atoms: C_1  and  C_2
REMARK    2  A    between atoms: C_2  and  C_3
REMARK    3  A    between atoms: C_3  and  C_4
REMARK    4  A    between atoms: C_4  and  C_5
REMARK    5  A    between atoms: C_5  and  C_6
REMARK    6  A    between atoms: C_6  and  C_7
REMARK    7  A    between atoms: C_7  and  C_8
REMARK    8  A    between atoms: C_8  and  C_9
REMARK    9  A    between atoms: C_9  and  C_10
REMARK   10  A    between atoms: C_10  and  C_11
REMARK   11  A    between atoms: C_11  and  C_12
REMARK   12  A    between atoms: C_12  and  O_13
REMARK   13  A    between atoms: O_13  and  C_14
REMARK   14  A    between atoms: C_22  and  O_23
REMARK   15  A    between atoms: N_29  and  C_30
REMARK                            x       y       z     vdW  Elec       q    Type
REMARK                         _______ _______ _______ _____ _____    ______ ____
ROOT
ATOM      1  C   UNL     1       1.615   7.594  20.142  0.00  0.00    +0.000 A 
ATOM      2  C   UNL     1       1.730   8.631  19.155  0.00  0.00    +0.000 A 
ATOM      3  C   UNL     1       2.648   8.474  18.023  0.00  0.00    +0.000 A 
ATOM      4  C   UNL     1       3.398   7.271  17.898  0.00  0.00    +0.000 A 
ATOM      5  C   UNL     1       3.210   6.353  18.904  0.00  0.00    +0.000 A 
ATOM      6  C   UNL     1       2.404   6.493  20.011  0.00  0.00    +0.000 A 
ATOM      7  O   UNL     1       2.494   5.367  20.768  0.00  0.00    +0.000 OA
ATOM      8  C   UNL     1       2.888   4.407  19.905  0.00  0.00    +0.000 C 
ATOM      9  C   UNL     1       3.488   3.092  20.249  0.00  0.00    +0.000 C 
ATOM     10  C   UNL     1       3.642   2.358  18.900  0.00  0.00    +0.000 C 
ATOM     11  C   UNL     1       3.491   2.971  17.677  0.00  0.00    +0.000 C 
ATOM     12  C   UNL     1       3.430   4.476  17.516  0.00  0.00    +0.000 C 
ATOM     13  C   UNL     1       4.490   5.126  16.581  0.00  0.00    +0.000 C 
ATOM     14  C   UNL     1       4.328   6.760  16.712  0.00  0.00    +0.000 C 
ATOM     15  N   UNL     1       5.790   4.531  16.942  0.00  0.00    +0.000 NA
ATOM     16  C   UNL     1       6.932   4.778  16.003  0.00  0.00    +0.000 C 
ATOM     17  C   UNL     1       6.164   4.298  18.355  0.00  0.00    +0.000 C 
ATOM     18  C   UNL     1       5.312   5.232  19.218  0.00  0.00    +0.000 C 
ATOM     19  C   UNL     1       3.769   5.092  18.874  0.00  0.00    +0.000 C 
ENDROOT
BRANCH   9  20
ATOM     20  O   UNL     1       2.603   2.477  21.139  0.00  0.00    +0.000 OA
ATOM     21  H   UNL     1       2.913   2.658  22.065  0.00  0.00    +0.000 HD
ENDBRANCH   9  20
BRANCH   1  22
ATOM     22  O   UNL     1       0.668   7.674  21.176  0.00  0.00    +0.000 OA
BRANCH  22  23
ATOM     23  C   UNL     1      -0.078   8.784  21.443  0.00  0.00    +0.000 C 
BRANCH  23  24
ATOM     24  C   UNL     1       0.076   9.360  22.862  0.00  0.00    +0.000 C 
BRANCH  24  25
ATOM     25  C   UNL     1      -0.607  10.738  22.893  0.00  0.00    +0.000 C 
BRANCH  25  26
ATOM     26  C   UNL     1      -1.132  11.146  21.522  0.00  0.00    +0.000 C 
BRANCH  26  27
ATOM     27  C   UNL     1      -0.432  12.419  21.050  0.00  0.00    +0.000 C 
BRANCH  27  28
ATOM     28  C   UNL     1       0.790  12.071  20.205  0.00  0.00    +0.000 C 
BRANCH  28  29
ATOM     29  C   UNL     1       0.514  12.338  18.726  0.00  0.00    +0.000 C 
BRANCH  29  30
ATOM     30  C   UNL     1      -0.953  12.052  18.395  0.00  0.00    +0.000 C 
BRANCH  30  31
ATOM     31  C   UNL     1      -1.137  10.591  17.974  0.00  0.00    +0.000 C 
BRANCH  31  32
ATOM     32  C   UNL     1      -2.524  10.369  17.347  0.00  0.00    +0.000 C 
BRANCH  32  34
ATOM     33  C   UNL     1      -4.955  10.868  17.983  0.00  0.00    +0.000 C 
ATOM     34  C   UNL     1      -3.528  11.415  17.862  0.00  0.00    +0.000 C 
ENDBRANCH  32  34
ENDBRANCH  31  32
ENDBRANCH  30  31
ENDBRANCH  29  30
ENDBRANCH  28  29
ENDBRANCH  27  28
ENDBRANCH  26  27
ENDBRANCH  25  26
ENDBRANCH  24  25
ENDBRANCH  23  24
ENDBRANCH  22  23
ENDBRANCH   1  22
TORSDOF 13
ENDMDL
MODEL 3
REMARK VINA RESULT:      -7.2      0.783      1.537
REMARK  Name = 
REMARK  15 active torsions:
REMARK  status: ('A' for Active; 'I' for Inactive)
REMARK    1  A    between atoms: C_1  and  C_2
REMARK    2  A    between atoms: C_2  and  C_3
REMARK    3  A    between atoms: C_3  and  C_4
REMARK    4  A    between atoms: C_4  and  C_5
REMARK    5  A    between atoms: C_5  and  C_6
REMARK    6  A    between atoms: C_6  and  C_7
REMARK    7  A    between atoms: C_7  and  C_8
REMARK    8  A    between atoms: C_8  and  C_9
REMARK    9  A    between atoms: C_9  and  C_10
REMARK   10  A    between atoms: C_10  and  C_11
REMARK   11  A    between atoms: C_11  and  C_12
REMARK   12  A    between atoms: C_12  and  O_13
REMARK   13  A    between atoms: O_13  and  C_14
REMARK   14  A    between atoms: C_22  and  O_23
REMARK   15  A    between atoms: N_29  and  C_30
REMARK                            x       y       z     vdW  Elec       q    Type
REMARK                         _______ _______ _______ _____ _____    ______ ____
ROOT
ATOM      1  C   UNL     1       1.403   8.325  19.708  0.00  0.00    +0.000 A 
ATOM      2  C   UNL     1       1.739   9.207  18.625  0.00  0.00    +0.000 A 
ATOM      3  C   UNL     1       2.748   8.813  17.637  0.00  0.00    +0.000 A 
ATOM      4  C   UNL     1       3.366   7.536  17.747  0.00  0.00    +0.000 A 
ATOM      5  C   UNL     1       2.970   6.781  18.826  0.00  0.00    +0.000 A 
ATOM      6  C   UNL     1       2.071   7.144  19.804  0.00  0.00    +0.000 A 
ATOM      7  O   UNL     1       1.952   6.124  20.695  0.00  0.00    +0.000 OA
ATOM      8  C   UNL     1       2.324   5.024  20.006  0.00  0.00    +0.000 C 
ATOM      9  C   UNL     1       2.732   3.712  20.573  0.00  0.00    +0.000 C 
ATOM     10  C   UNL     1       2.944   2.797  19.350  0.00  0.00    +0.000 C 
ATOM     11  C   UNL     1       2.994   3.256  18.053  0.00  0.00    +0.000 C 
ATOM     12  C   UNL     1       3.122   4.725  17.708  0.00  0.00    +0.000 C 
ATOM     13  C   UNL     1       4.342   5.139  16.835  0.00  0.00    +0.000 C 
ATOM     14  C   UNL     1       4.353   6.784  16.750  0.00  0.00    +0.000 C 
ATOM     15  N   UNL     1       5.520   4.470  17.418  0.00  0.00    +0.000 NA
ATOM     16  C   UNL     1       6.776   4.477  16.600  0.00  0.00    +0.000 C 
ATOM     17  C   UNL     1       5.713   4.389  18.883  0.00  0.00    +0.000 C 
ATOM     18  C   UNL     1       4.885   5.508  19.520  0.00  0.00    +0.000 C 
ATOM     19  C   UNL     1       3.382   5.477  19.014  0.00  0.00    +0.000 C 
ENDROOT
BRANCH   9  20
ATOM     20  O   UNL     1       1.694   3.311  21.418  0.00  0.00    +0.000 OA
ATOM     21  H   UNL     1       0.936   3.942  21.307  0.00  0.00    +0.000 HD
ENDBRANCH   9  20
BRANCH   1  22
ATOM     22  O   UNL     1       0.367   8.633  20.604  0.00  0.00    +0.000 OA
BRANCH  22  23
ATOM     23  C   UNL     1       0.539   9.346  21.753  0.00  0.00    +0.000 C 
BRANCH  23  24
ATOM     24  C   UNL     1       0.635  10.873  21.579  0.00  0.00    +0.000 C 
BRANCH  24  25
ATOM     25  C   UNL     1      -0.716  11.377  21.044  0.00  0.00    +0.000 C 
BRANCH  25  26
ATOM     26  C   UNL     1      -0.619  11.846  19.597  0.00  0.00    +0.000 C 
BRANCH  26  27
ATOM     27  C   UNL     1      -1.932  11.570  18.867  0.00  0.00    +0.000 C 
BRANCH  27  28
ATOM     28  C   UNL     1      -1.801  10.328  17.990  0.00  0.00    +0.000 C 
BRANCH  28  29
ATOM     29  C   UNL     1      -3.179   9.819  17.570  0.00  0.00    +0.000 C 
BRANCH  29  30
ATOM     30  C   UNL     1      -3.838  10.800  16.598  0.00  0.00    +0.000 C 
BRANCH  30  31
ATOM     31  C   UNL     1      -3.085  10.828  15.264  0.00  0.00    +0.000 C 
BRANCH  31  32
ATOM     32  C   UNL     1      -3.393   9.573  14.430  0.00  0.00    +0.000 C 
BRANCH  32  34
ATOM     33  C   UNL     1      -4.885   9.703  12.351  0.00  0.00    +0.000 C 
ATOM     34  C   UNL     1      -3.485   9.923  12.934  0.00  0.00    +0.000 C 
ENDBRANCH  32  34
ENDBRANCH  31  32
ENDBRANCH  30  31
ENDBRANCH  29  30
ENDBRANCH  28  29
ENDBRANCH  27  28
ENDBRANCH  26  27
ENDBRANCH  25  26
ENDBRANCH  24  25
ENDBRANCH  23  24
ENDBRANCH  22  23
ENDBRANCH   1  22
TORSDOF 13
ENDMDL
MODEL 4
REMARK VINA RESULT:      -7.2      1.013      1.356
REMARK  Name = 
REMARK  15 active torsions:
REMARK  status: ('A' for Active; 'I' for Inactive)
REMARK    1  A    between atoms: C_1  and  C_2
REMARK    2  A    between atoms: C_2  and  C_3
REMARK    3  A    between atoms: C_3  and  C_4
REMARK    4  A    between atoms: C_4  and  C_5
REMARK    5  A    between atoms: C_5  and  C_6
REMARK    6  A    between atoms: C_6  and  C_7
REMARK    7  A    between atoms: C_7  and  C_8
REMARK    8  A    between atoms: C_8  and  C_9
REMARK    9  A    between atoms: C_9  and  C_10
REMARK   10  A    between atoms: C_10  and  C_11
REMARK   11  A    between atoms: C_11  and  C_12
REMARK   12  A    between atoms: C_12  and  O_13
REMARK   13  A    between atoms: O_13  and  C_14
REMARK   14  A    between atoms: C_22  and  O_23
REMARK   15  A    between atoms: N_29  and  C_30
REMARK                            x       y       z     vdW  Elec       q    Type
REMARK                         _______ _______ _______ _____ _____    ______ ____
ROOT
ATOM      1  C   UNL     1       1.537   7.986  20.014  0.00  0.00    +0.000 A 
ATOM      2  C   UNL     1       1.764   8.935  18.959  0.00  0.00    +0.000 A 
ATOM      3  C   UNL     1       2.693   8.619  17.870  0.00  0.00    +0.000 A 
ATOM      4  C   UNL     1       3.340   7.352  17.854  0.00  0.00    +0.000 A 
ATOM      5  C   UNL     1       3.050   6.529  18.917  0.00  0.00    +0.000 A 
ATOM      6  C   UNL     1       2.232   6.817  19.985  0.00  0.00    +0.000 A 
ATOM      7  O   UNL     1       2.206   5.746  20.824  0.00  0.00    +0.000 OA
ATOM      8  C   UNL     1       2.538   4.696  20.044  0.00  0.00    +0.000 C 
ATOM      9  C   UNL     1       3.015   3.364  20.499  0.00  0.00    +0.000 C 
ATOM     10  C   UNL     1       3.139   2.523  19.211  0.00  0.00    +0.000 C 
ATOM     11  C   UNL     1       3.070   3.054  17.944  0.00  0.00    +0.000 C 
ATOM     12  C   UNL     1       3.143   4.542  17.674  0.00  0.00    +0.000 C 
ATOM     13  C   UNL     1       4.277   5.032  16.727  0.00  0.00    +0.000 C 
ATOM     14  C   UNL     1       4.252   6.678  16.736  0.00  0.00    +0.000 C 
ATOM     15  N   UNL     1       5.512   4.358  17.170  0.00  0.00    +0.000 NA
ATOM     16  C   UNL     1       6.693   4.439  16.251  0.00  0.00    +0.000 C 
ATOM     17  C   UNL     1       5.830   4.200  18.607  0.00  0.00    +0.000 C 
ATOM     18  C   UNL     1       5.039   5.263  19.374  0.00  0.00    +0.000 C 
ATOM     19  C   UNL     1       3.499   5.227  18.995  0.00  0.00    +0.000 C 
ENDROOT
BRANCH   9  20
ATOM     20  O   UNL     1       2.059   2.893  21.403  0.00  0.00    +0.000 OA
ATOM     21  H   UNL     1       1.298   2.516  20.889  0.00  0.00    +0.000 HD
ENDBRANCH   9  20
BRANCH   1  22
ATOM     22  O   UNL     1       0.575   8.221  21.010  0.00  0.00    +0.000 OA
BRANCH  22  23
ATOM     23  C   UNL     1       0.760   9.065  22.065  0.00  0.00    +0.000 C 
BRANCH  23  24
ATOM     24  C   UNL     1      -0.520   9.488  22.808  0.00  0.00    +0.000 C 
BRANCH  24  25
ATOM     25  C   UNL     1      -0.762  10.981  22.528  0.00  0.00    +0.000 C 
BRANCH  25  26
ATOM     26  C   UNL     1      -0.153  11.420  21.202  0.00  0.00    +0.000 C 
BRANCH  26  27
ATOM     27  C   UNL     1      -1.233  12.015  20.300  0.00  0.00    +0.000 C 
BRANCH  27  28
ATOM     28  C   UNL     1      -2.502  12.291  21.101  0.00  0.00    +0.000 C 
BRANCH  28  29
ATOM     29  C   UNL     1      -3.475  13.143  20.289  0.00  0.00    +0.000 C 
BRANCH  29  30
ATOM     30  C   UNL     1      -4.587  12.273  19.700  0.00  0.00    +0.000 C 
BRANCH  30  31
ATOM     31  C   UNL     1      -4.273  11.903  18.248  0.00  0.00    +0.000 C 
BRANCH  31  32
ATOM     32  C   UNL     1      -4.343  10.381  18.038  0.00  0.00    +0.000 C 
BRANCH  32  34
ATOM     33  C   UNL     1      -2.300  10.536  16.499  0.00  0.00    +0.000 C 
ATOM     34  C   UNL     1      -2.956   9.817  17.684  0.00  0.00    +0.000 C 
ENDBRANCH  32  34
ENDBRANCH  31  32
ENDBRANCH  30  31
ENDBRANCH  29  30
ENDBRANCH  28  29
ENDBRANCH  27  28
ENDBRANCH  26  27
ENDBRANCH  25  26
ENDBRANCH  24  25
ENDBRANCH  23  24
ENDBRANCH  22  23
ENDBRANCH   1  22
TORSDOF 13
ENDMDL
MODEL 5
REMARK VINA RESULT:      -7.1      2.473      7.966
REMARK  Name = 
REMARK  15 active torsions:
REMARK  status: ('A' for Active; 'I' for Inactive)
REMARK    1  A    between atoms: C_1  and  C_2
REMARK    2  A    between atoms: C_2  and  C_3
REMARK    3  A    between atoms: C_3  and  C_4
REMARK    4  A    between atoms: C_4  and  C_5
REMARK    5  A    between atoms: C_5  and  C_6
REMARK    6  A    between atoms: C_6  and  C_7
REMARK    7  A    between atoms: C_7  and  C_8
REMARK    8  A    between atoms: C_8  and  C_9
REMARK    9  A    between atoms: C_9  and  C_10
REMARK   10  A    between atoms: C_10  and  C_11
REMARK   11  A    between atoms: C_11  and  C_12
REMARK   12  A    between atoms: C_12  and  O_13
REMARK   13  A    between atoms: O_13  and  C_14
REMARK   14  A    between atoms: C_22  and  O_23
REMARK   15  A    between atoms: N_29  and  C_30
REMARK                            x       y       z     vdW  Elec       q    Type
REMARK                         _______ _______ _______ _____ _____    ______ ____
ROOT
ATOM      1  C   UNL     1       2.212   6.671  19.750  0.00  0.00    +0.000 A 
ATOM      2  C   UNL     1       2.938   6.894  18.531  0.00  0.00    +0.000 A 
ATOM      3  C   UNL     1       2.775   8.151  17.795  0.00  0.00    +0.000 A 
ATOM      4  C   UNL     1       1.916   9.157  18.319  0.00  0.00    +0.000 A 
ATOM      5  C   UNL     1       1.270   8.830  19.488  0.00  0.00    +0.000 A 
ATOM      6  C   UNL     1       1.353   7.638  20.172  0.00  0.00    +0.000 A 
ATOM      7  O   UNL     1       0.564   7.707  21.278  0.00  0.00    +0.000 OA
ATOM      8  C   UNL     1       0.453   9.028  21.534  0.00  0.00    +0.000 C 
ATOM      9  C   UNL     1      -0.571   9.687  22.386  0.00  0.00    +0.000 C 
ATOM     10  C   UNL     1      -0.167  11.176  22.417  0.00  0.00    +0.000 C 
ATOM     11  C   UNL     1       0.782  11.726  21.585  0.00  0.00    +0.000 C 
ATOM     12  C   UNL     1       1.329  11.001  20.374  0.00  0.00    +0.000 C 
ATOM     13  C   UNL     1       1.169  11.709  18.998  0.00  0.00    +0.000 C 
ATOM     14  C   UNL     1       1.675  10.655  17.837  0.00  0.00    +0.000 C 
ATOM     15  N   UNL     1      -0.224  12.189  18.933  0.00  0.00    +0.000 NA
ATOM     16  C   UNL     1      -0.559  13.150  17.833  0.00  0.00    +0.000 C 
ATOM     17  C   UNL     1      -1.348  11.357  19.418  0.00  0.00    +0.000 C 
ATOM     18  C   UNL     1      -0.879   9.900  19.415  0.00  0.00    +0.000 C 
ATOM     19  C   UNL     1       0.496   9.731  20.189  0.00  0.00    +0.000 C 
ENDROOT
BRANCH   9  20
ATOM     20  O   UNL     1      -0.516   9.051  23.629  0.00  0.00    +0.000 OA
ATOM     21  H   UNL     1      -0.105   8.155  23.507  0.00  0.00    +0.000 HD
ENDBRANCH   9  20
BRANCH   1  22
ATOM     22  O   UNL     1       2.430   5.522  20.527  0.00  0.00    +0.000 OA
BRANCH  22  23
ATOM     23  C   UNL     1       1.507   4.533  20.703  0.00  0.00    +0.000 C 
BRANCH  23  24
ATOM     24  C   UNL     1       1.980   3.113  20.341  0.00  0.00    +0.000 C 
BRANCH  24  25
ATOM     25  C   UNL     1       1.366   2.740  18.982  0.00  0.00    +0.000 C 
BRANCH  25  26
ATOM     26  C   UNL     1       2.361   2.013  18.085  0.00  0.00    +0.000 C 
BRANCH  26  27
ATOM     27  C   UNL     1       3.645   2.830  17.956  0.00  0.00    +0.000 C 
BRANCH  27  28
ATOM     28  C   UNL     1       3.549   3.787  16.771  0.00  0.00    +0.000 C 
BRANCH  28  29
ATOM     29  C   UNL     1       4.882   4.498  16.545  0.00  0.00    +0.000 C 
BRANCH  29  30
ATOM     30  C   UNL     1       5.773   4.372  17.782  0.00  0.00    +0.000 C 
BRANCH  30  31
ATOM     31  C   UNL     1       7.221   4.741  17.446  0.00  0.00    +0.000 C 
BRANCH  31  32
ATOM     32  C   UNL     1       7.327   6.210  17.005  0.00  0.00    +0.000 C 
BRANCH  32  34
ATOM     33  C   UNL     1       8.027   8.550  17.784  0.00  0.00    +0.000 C 
ATOM     34  C   UNL     1       7.695   7.111  18.198  0.00  0.00    +0.000 C 
ENDBRANCH  32  34
ENDBRANCH  31  32
ENDBRANCH  30  31
ENDBRANCH  29  30
ENDBRANCH  28  29
ENDBRANCH  27  28
ENDBRANCH  26  27
ENDBRANCH  25  26
ENDBRANCH  24  25
ENDBRANCH  23  24
ENDBRANCH  22  23
ENDBRANCH   1  22
TORSDOF 13
ENDMDL
MODEL 6
REMARK VINA RESULT:      -7.1      1.429      2.747
REMARK  Name = 
REMARK  15 active torsions:
REMARK  status: ('A' for Active; 'I' for Inactive)
REMARK    1  A    between atoms: C_1  and  C_2
REMARK    2  A    between atoms: C_2  and  C_3
REMARK    3  A    between atoms: C_3  and  C_4
REMARK    4  A    between atoms: C_4  and  C_5
REMARK    5  A    between atoms: C_5  and  C_6
REMARK    6  A    between atoms: C_6  and  C_7
REMARK    7  A    between atoms: C_7  and  C_8
REMARK    8  A    between atoms: C_8  and  C_9
REMARK    9  A    between atoms: C_9  and  C_10
REMARK   10  A    between atoms: C_10  and  C_11
REMARK   11  A    between atoms: C_11  and  C_12
REMARK   12  A    between atoms: C_12  and  O_13
REMARK   13  A    between atoms: O_13  and  C_14
REMARK   14  A    between atoms: C_22  and  O_23
REMARK   15  A    between atoms: N_29  and  C_30
REMARK                            x       y       z     vdW  Elec       q    Type
REMARK                         _______ _______ _______ _____ _____    ______ ____
ROOT
ATOM      1  C   UNL     1       1.268   8.095  20.238  0.00  0.00    +0.000 A 
ATOM      2  C   UNL     1       1.551   9.046  19.199  0.00  0.00    +0.000 A 
ATOM      3  C   UNL     1       2.478   8.702  18.117  0.00  0.00    +0.000 A 
ATOM      4  C   UNL     1       3.067   7.406  18.092  0.00  0.00    +0.000 A 
ATOM      5  C   UNL     1       2.727   6.585  19.140  0.00  0.00    +0.000 A 
ATOM      6  C   UNL     1       1.909   6.896  20.203  0.00  0.00    +0.000 A 
ATOM      7  O   UNL     1       1.824   5.817  21.026  0.00  0.00    +0.000 OA
ATOM      8  C   UNL     1       2.117   4.762  20.237  0.00  0.00    +0.000 C 
ATOM      9  C   UNL     1       2.527   3.404  20.680  0.00  0.00    +0.000 C 
ATOM     10  C   UNL     1       2.628   2.575  19.382  0.00  0.00    +0.000 C 
ATOM     11  C   UNL     1       2.600   3.125  18.121  0.00  0.00    +0.000 C 
ATOM     12  C   UNL     1       2.744   4.611  17.872  0.00  0.00    +0.000 C 
ATOM     13  C   UNL     1       3.911   5.060  16.946  0.00  0.00    +0.000 C 
ATOM     14  C   UNL     1       3.961   6.706  16.977  0.00  0.00    +0.000 C 
ATOM     15  N   UNL     1       5.108   4.325  17.395  0.00  0.00    +0.000 NA
ATOM     16  C   UNL     1       6.304   4.363  16.492  0.00  0.00    +0.000 C 
ATOM     17  C   UNL     1       5.400   4.134  18.833  0.00  0.00    +0.000 C 
ATOM     18  C   UNL     1       4.650   5.222  19.605  0.00  0.00    +0.000 C 
ATOM     19  C   UNL     1       3.115   5.262  19.206  0.00  0.00    +0.000 C 
ENDROOT
BRANCH   9  20
ATOM     20  O   UNL     1       1.539   2.966  21.566  0.00  0.00    +0.000 OA
ATOM     21  H   UNL     1       0.869   3.690  21.674  0.00  0.00    +0.000 HD
ENDBRANCH   9  20
BRANCH   1  22
ATOM     22  O   UNL     1       0.305   8.361  21.225  0.00  0.00    +0.000 OA
BRANCH  22  23
ATOM     23  C   UNL     1       0.534   9.132  22.327  0.00  0.00    +0.000 C 
BRANCH  23  24
ATOM     24  C   UNL     1      -0.557  10.169  22.650  0.00  0.00    +0.000 C 
BRANCH  24  25
ATOM     25  C   UNL     1      -0.166  11.496  21.978  0.00  0.00    +0.000 C 
BRANCH  25  26
ATOM     26  C   UNL     1      -1.366  12.415  21.788  0.00  0.00    +0.000 C 
BRANCH  26  27
ATOM     27  C   UNL     1      -2.101  12.060  20.497  0.00  0.00    +0.000 C 
BRANCH  27  28
ATOM     28  C   UNL     1      -1.115  11.562  19.445  0.00  0.00    +0.000 C 
BRANCH  28  29
ATOM     29  C   UNL     1      -1.084  12.509  18.246  0.00  0.00    +0.000 C 
BRANCH  29  30
ATOM     30  C   UNL     1       0.129  13.438  18.328  0.00  0.00    +0.000 C 
BRANCH  30  31
ATOM     31  C   UNL     1       1.388  12.651  18.705  0.00  0.00    +0.000 C 
BRANCH  31  32
ATOM     32  C   UNL     1       2.282  13.464  19.656  0.00  0.00    +0.000 C 
BRANCH  32  34
ATOM     33  C   UNL     1       2.081  14.888  21.778  0.00  0.00    +0.000 C 
ATOM     34  C   UNL     1       1.449  14.497  20.437  0.00  0.00    +0.000 C 
ENDBRANCH  32  34
ENDBRANCH  31  32
ENDBRANCH  30  31
ENDBRANCH  29  30
ENDBRANCH  28  29
ENDBRANCH  27  28
ENDBRANCH  26  27
ENDBRANCH  25  26
ENDBRANCH  24  25
ENDBRANCH  23  24
ENDBRANCH  22  23
ENDBRANCH   1  22
TORSDOF 13
ENDMDL
MODEL 7
REMARK VINA RESULT:      -7.0      2.083      2.496
REMARK  Name = 
REMARK  15 active torsions:
REMARK  status: ('A' for Active; 'I' for Inactive)
REMARK    1  A    between atoms: C_1  and  C_2
REMARK    2  A    between atoms: C_2  and  C_3
REMARK    3  A    between atoms: C_3  and  C_4
REMARK    4  A    between atoms: C_4  and  C_5
REMARK    5  A    between atoms: C_5  and  C_6
REMARK    6  A    between atoms: C_6  and  C_7
REMARK    7  A    between atoms: C_7  and  C_8
REMARK    8  A    between atoms: C_8  and  C_9
REMARK    9  A    between atoms: C_9  and  C_10
REMARK   10  A    between atoms: C_10  and  C_11
REMARK   11  A    between atoms: C_11  and  C_12
REMARK   12  A    between atoms: C_12  and  O_13
REMARK   13  A    between atoms: O_13  and  C_14
REMARK   14  A    between atoms: C_22  and  O_23
REMARK   15  A    between atoms: N_29  and  C_30
REMARK                            x       y       z     vdW  Elec       q    Type
REMARK                         _______ _______ _______ _____ _____    ______ ____
ROOT
ATOM      1  C   UNL     1       1.694   7.625  20.102  0.00  0.00    +0.000 A 
ATOM      2  C   UNL     1       1.798   8.647  19.099  0.00  0.00    +0.000 A 
ATOM      3  C   UNL     1       2.703   8.473  17.958  0.00  0.00    +0.000 A 
ATOM      4  C   UNL     1       3.451   7.267  17.843  0.00  0.00    +0.000 A 
ATOM      5  C   UNL     1       3.273   6.364  18.865  0.00  0.00    +0.000 A 
ATOM      6  C   UNL     1       2.480   6.521  19.978  0.00  0.00    +0.000 A 
ATOM      7  O   UNL     1       2.577   5.407  20.751  0.00  0.00    +0.000 OA
ATOM      8  C   UNL     1       2.960   4.433  19.898  0.00  0.00    +0.000 C 
ATOM      9  C   UNL     1       3.563   3.122  20.254  0.00  0.00    +0.000 C 
ATOM     10  C   UNL     1       3.701   2.369  18.915  0.00  0.00    +0.000 C 
ATOM     11  C   UNL     1       3.536   2.964  17.685  0.00  0.00    +0.000 C 
ATOM     12  C   UNL     1       3.476   4.466  17.502  0.00  0.00    +0.000 C 
ATOM     13  C   UNL     1       4.525   5.101  16.546  0.00  0.00    +0.000 C 
ATOM     14  C   UNL     1       4.367   6.737  16.654  0.00  0.00    +0.000 C 
ATOM     15  N   UNL     1       5.829   4.510  16.901  0.00  0.00    +0.000 NA
ATOM     16  C   UNL     1       6.960   4.741  15.946  0.00  0.00    +0.000 C 
ATOM     17  C   UNL     1       6.218   4.297  18.313  0.00  0.00    +0.000 C 
ATOM     18  C   UNL     1       5.377   5.245  19.171  0.00  0.00    +0.000 C 
ATOM     19  C   UNL     1       3.830   5.102  18.848  0.00  0.00    +0.000 C 
ENDROOT
BRANCH   9  20
ATOM     20  O   UNL     1       2.688   2.522  21.164  0.00  0.00    +0.000 OA
ATOM     21  H   UNL     1       2.261   3.235  21.707  0.00  0.00    +0.000 HD
ENDBRANCH   9  20
BRANCH   1  22
ATOM     22  O   UNL     1       0.759   7.721  21.145  0.00  0.00    +0.000 OA
BRANCH  22  23
ATOM     23  C   UNL     1      -0.177   8.708  21.242  0.00  0.00    +0.000 C 
BRANCH  23  24
ATOM     24  C   UNL     1      -0.062   9.612  22.483  0.00  0.00    +0.000 C 
BRANCH  24  25
ATOM     25  C   UNL     1      -0.479  11.035  22.075  0.00  0.00    +0.000 C 
BRANCH  25  26
ATOM     26  C   UNL     1      -0.571  11.193  20.563  0.00  0.00    +0.000 C 
BRANCH  26  27
ATOM     27  C   UNL     1      -1.600  12.266  20.209  0.00  0.00    +0.000 C 
BRANCH  27  28
ATOM     28  C   UNL     1      -2.645  12.384  21.315  0.00  0.00    +0.000 C 
BRANCH  28  29
ATOM     29  C   UNL     1      -3.835  13.218  20.842  0.00  0.00    +0.000 C 
BRANCH  29  30
ATOM     30  C   UNL     1      -5.121  12.754  21.529  0.00  0.00    +0.000 C 
BRANCH  30  31
ATOM     31  C   UNL     1      -6.275  12.679  20.524  0.00  0.00    +0.000 C 
BRANCH  31  32
ATOM     32  C   UNL     1      -7.225  11.518  20.860  0.00  0.00    +0.000 C 
BRANCH  32  34
ATOM     33  C   UNL     1      -6.400  10.833  18.532  0.00  0.00    +0.000 C 
ATOM     34  C   UNL     1      -7.085  10.384  19.828  0.00  0.00    +0.000 C 
ENDBRANCH  32  34
ENDBRANCH  31  32
ENDBRANCH  30  31
ENDBRANCH  29  30
ENDBRANCH  28  29
ENDBRANCH  27  28
ENDBRANCH  26  27
ENDBRANCH  25  26
ENDBRANCH  24  25
ENDBRANCH  23  24
ENDBRANCH  22  23
ENDBRANCH   1  22
TORSDOF 13
ENDMDL
MODEL 8
REMARK VINA RESULT:      -7.0      2.194      3.600
REMARK  Name = 
REMARK  15 active torsions:
REMARK  status: ('A' for Active; 'I' for Inactive)
REMARK    1  A    between atoms: C_1  and  C_2
REMARK    2  A    between atoms: C_2  and  C_3
REMARK    3  A    between atoms: C_3  and  C_4
REMARK    4  A    between atoms: C_4  and  C_5
REMARK    5  A    between atoms: C_5  and  C_6
REMARK    6  A    between atoms: C_6  and  C_7
REMARK    7  A    between atoms: C_7  and  C_8
REMARK    8  A    between atoms: C_8  and  C_9
REMARK    9  A    between atoms: C_9  and  C_10
REMARK   10  A    between atoms: C_10  and  C_11
REMARK   11  A    between atoms: C_11  and  C_12
REMARK   12  A    between atoms: C_12  and  O_13
REMARK   13  A    between atoms: O_13  and  C_14
REMARK   14  A    between atoms: C_22  and  O_23
REMARK   15  A    between atoms: N_29  and  C_30
REMARK                            x       y       z     vdW  Elec       q    Type
REMARK                         _______ _______ _______ _____ _____    ______ ____
ROOT
ATOM      1  C   UNL     1       1.768   8.846  19.183  0.00  0.00    +0.000 A 
ATOM      2  C   UNL     1       1.122   8.559  20.434  0.00  0.00    +0.000 A 
ATOM      3  C   UNL     1       1.179   7.209  21.001  0.00  0.00    +0.000 A 
ATOM      4  C   UNL     1       1.907   6.196  20.315  0.00  0.00    +0.000 A 
ATOM      5  C   UNL     1       2.478   6.586  19.127  0.00  0.00    +0.000 A 
ATOM      6  C   UNL     1       2.394   7.826  18.536  0.00  0.00    +0.000 A 
ATOM      7  O   UNL     1       3.092   7.808  17.369  0.00  0.00    +0.000 OA
ATOM      8  C   UNL     1       3.985   6.807  17.521  0.00  0.00    +0.000 C 
ATOM      9  C   UNL     1       4.739   6.114  16.445  0.00  0.00    +0.000 C 
ATOM     10  C   UNL     1       5.684   5.142  17.181  0.00  0.00    +0.000 C 
ATOM     11  C   UNL     1       5.585   4.850  18.522  0.00  0.00    +0.000 C 
ATOM     12  C   UNL     1       4.379   5.230  19.357  0.00  0.00    +0.000 C 
ATOM     13  C   UNL     1       3.630   4.074  20.079  0.00  0.00    +0.000 C 
ATOM     14  C   UNL     1       2.275   4.714  20.763  0.00  0.00    +0.000 C 
ATOM     15  N   UNL     1       3.459   2.999  19.084  0.00  0.00    +0.000 NA
ATOM     16  C   UNL     1       3.018   1.663  19.601  0.00  0.00    +0.000 C 
ATOM     17  C   UNL     1       3.083   3.299  17.685  0.00  0.00    +0.000 C 
ATOM     18  C   UNL     1       2.415   4.676  17.671  0.00  0.00    +0.000 C 
ATOM     19  C   UNL     1       3.313   5.763  18.397  0.00  0.00    +0.000 C 
ENDROOT
BRANCH   9  20
ATOM     20  O   UNL     1       5.393   7.112  15.718  0.00  0.00    +0.000 OA
ATOM     21  H   UNL     1       5.345   7.959  16.234  0.00  0.00    +0.000 HD
ENDBRANCH   9  20
BRANCH   1  22
ATOM     22  O   UNL     1       1.818  10.153  18.672  0.00  0.00    +0.000 OA
BRANCH  22  23
ATOM     23  C   UNL     1       1.157  11.212  19.220  0.00  0.00    +0.000 C 
BRANCH  23  24
ATOM     24  C   UNL     1      -0.272  11.445  18.698  0.00  0.00    +0.000 C 
BRANCH  24  25
ATOM     25  C   UNL     1      -1.220  11.488  19.907  0.00  0.00    +0.000 C 
BRANCH  25  26
ATOM     26  C   UNL     1      -2.265  12.588  19.776  0.00  0.00    +0.000 C 
BRANCH  26  27
ATOM     27  C   UNL     1      -2.911  12.863  21.134  0.00  0.00    +0.000 C 
BRANCH  27  28
ATOM     28  C   UNL     1      -4.398  12.525  21.092  0.00  0.00    +0.000 C 
BRANCH  28  29
ATOM     29  C   UNL     1      -5.025  13.017  19.789  0.00  0.00    +0.000 C 
BRANCH  29  30
ATOM     30  C   UNL     1      -6.100  12.039  19.308  0.00  0.00    +0.000 C 
BRANCH  30  31
ATOM     31  C   UNL     1      -5.501  11.006  18.349  0.00  0.00    +0.000 C 
BRANCH  31  32
ATOM     32  C   UNL     1      -4.850  11.691  17.137  0.00  0.00    +0.000 C 
BRANCH  32  34
ATOM     33  C   UNL     1      -3.320   9.674  17.531  0.00  0.00    +0.000 C 
ATOM     34  C   UNL     1      -3.593  10.925  16.688  0.00  0.00    +0.000 C 
ENDBRANCH  32  34
ENDBRANCH  31  32
ENDBRANCH  30  31
ENDBRANCH  29  30
ENDBRANCH  28  29
ENDBRANCH  27  28
ENDBRANCH  26  27
ENDBRANCH  25  26
ENDBRANCH  24  25
ENDBRANCH  23  24
ENDBRANCH  22  23
ENDBRANCH   1  22
TORSDOF 13
ENDMDL
MODEL 9
REMARK VINA RESULT:      -6.9      2.496      7.943
REMARK  Name = 
REMARK  15 active torsions:
REMARK  status: ('A' for Active; 'I' for Inactive)
REMARK    1  A    between atoms: C_1  and  C_2
REMARK    2  A    between atoms: C_2  and  C_3
REMARK    3  A    between atoms: C_3  and  C_4
REMARK    4  A    between atoms: C_4  and  C_5
REMARK    5  A    between atoms: C_5  and  C_6
REMARK    6  A    between atoms: C_6  and  C_7
REMARK    7  A    between atoms: C_7  and  C_8
REMARK    8  A    between atoms: C_8  and  C_9
REMARK    9  A    between atoms: C_9  and  C_10
REMARK   10  A    between atoms: C_10  and  C_11
REMARK   11  A    between atoms: C_11  and  C_12
REMARK   12  A    between atoms: C_12  and  O_13
REMARK   13  A    between atoms: O_13  and  C_14
REMARK   14  A    between atoms: C_22  and  O_23
REMARK   15  A    between atoms: N_29  and  C_30
REMARK                            x       y       z     vdW  Elec       q    Type
REMARK                         _______ _______ _______ _____ _____    ______ ____
ROOT
ATOM      1  C   UNL     1       2.212   6.920  19.743  0.00  0.00    +0.000 A 
ATOM      2  C   UNL     1       2.963   7.168  18.544  0.00  0.00    +0.000 A 
ATOM      3  C   UNL     1       2.805   8.435  17.822  0.00  0.00    +0.000 A 
ATOM      4  C   UNL     1       1.925   9.425  18.342  0.00  0.00    +0.000 A 
ATOM      5  C   UNL     1       1.256   9.074  19.491  0.00  0.00    +0.000 A 
ATOM      6  C   UNL     1       1.336   7.873  20.159  0.00  0.00    +0.000 A 
ATOM      7  O   UNL     1       0.521   7.919  21.248  0.00  0.00    +0.000 OA
ATOM      8  C   UNL     1       0.392   9.234  21.521  0.00  0.00    +0.000 C 
ATOM      9  C   UNL     1      -0.657   9.871  22.360  0.00  0.00    +0.000 C 
ATOM     10  C   UNL     1      -0.267  11.363  22.421  0.00  0.00    +0.000 C 
ATOM     11  C   UNL     1       0.694  11.934  21.619  0.00  0.00    +0.000 C 
ATOM     12  C   UNL     1       1.275  11.232  20.410  0.00  0.00    +0.000 C 
ATOM     13  C   UNL     1       1.139  11.959  19.041  0.00  0.00    +0.000 C 
ATOM     14  C   UNL     1       1.681  10.927  17.877  0.00  0.00    +0.000 C 
ATOM     15  N   UNL     1      -0.257  12.427  18.952  0.00  0.00    +0.000 NA
ATOM     16  C   UNL     1      -0.576  13.401  17.859  0.00  0.00    +0.000 C 
ATOM     17  C   UNL     1      -1.383  11.579  19.400  0.00  0.00    +0.000 C 
ATOM     18  C   UNL     1      -0.901  10.126  19.386  0.00  0.00    +0.000 C 
ATOM     19  C   UNL     1       0.458   9.958  20.187  0.00  0.00    +0.000 C 
ENDROOT
BRANCH   9  20
ATOM     20  O   UNL     1      -0.623   9.217  23.594  0.00  0.00    +0.000 OA
ATOM     21  H   UNL     1      -1.396   9.527  24.136  0.00  0.00    +0.000 HD
ENDBRANCH   9  20
BRANCH   1  22
ATOM     22  O   UNL     1       2.424   5.762  20.508  0.00  0.00    +0.000 OA
BRANCH  22  23
ATOM     23  C   UNL     1       1.529   4.737  20.603  0.00  0.00    +0.000 C 
BRANCH  23  24
ATOM     24  C   UNL     1       2.008   3.512  21.403  0.00  0.00    +0.000 C 
BRANCH  24  25
ATOM     25  C   UNL     1       1.821   2.265  20.522  0.00  0.00    +0.000 C 
BRANCH  25  26
ATOM     26  C   UNL     1       1.578   2.628  19.062  0.00  0.00    +0.000 C 
BRANCH  26  27
ATOM     27  C   UNL     1       2.685   2.043  18.186  0.00  0.00    +0.000 C 
BRANCH  27  28
ATOM     28  C   UNL     1       4.048   2.559  18.638  0.00  0.00    +0.000 C 
BRANCH  28  29
ATOM     29  C   UNL     1       4.335   3.928  18.024  0.00  0.00    +0.000 C 
BRANCH  29  30
ATOM     30  C   UNL     1       5.522   4.592  18.725  0.00  0.00    +0.000 C 
BRANCH  30  31
ATOM     31  C   UNL     1       6.769   4.547  17.838  0.00  0.00    +0.000 C 
BRANCH  31  32
ATOM     32  C   UNL     1       6.609   5.464  16.614  0.00  0.00    +0.000 C 
BRANCH  32  34
ATOM     33  C   UNL     1       5.605   4.452  14.484  0.00  0.00    +0.000 C 
ATOM     34  C   UNL     1       6.874   4.685  15.313  0.00  0.00    +0.000 C 
ENDBRANCH  32  34
ENDBRANCH  31  32
ENDBRANCH  30  31
ENDBRANCH  29  30
ENDBRANCH  28  29
ENDBRANCH  27  28
ENDBRANCH  26  27
ENDBRANCH  25  26
ENDBRANCH  24  25
ENDBRANCH  23  24
ENDBRANCH  22  23
ENDBRANCH   1  22
TORSDOF 13
ENDMDL
