MODEL 1
REMARK VINA RESULT:      -6.4      0.000      0.000
REMARK  Name = 
REMARK  7 active torsions:
REMARK  status: ('A' for Active; 'I' for Inactive)
REMARK    1  A    between atoms: C_1  and  O_2
REMARK    2  A    between atoms: O_2  and  C_3
REMARK    3  A    between atoms: C_6  and  O_7
REMARK    4  A    between atoms: C_11  and  C_12
REMARK    5  A    between atoms: C_13  and  C_14
REMARK    6  A    between atoms: C_18  and  C_19
REMARK    7  A    between atoms: C_18  and  C_20
REMARK                            x       y       z     vdW  Elec       q    Type
REMARK                         _______ _______ _______ _____ _____    ______ ____
ROOT
ATOM      1  C   UNL     1       5.816  13.999  22.603  0.00  0.00    +0.000 A 
ATOM      2  C   UNL     1       5.590  13.012  23.560  0.00  0.00    +0.000 A 
ATOM      3  C   UNL     1       6.624  12.147  23.906  0.00  0.00    +0.000 A 
ATOM      4  C   UNL     1       7.862  12.253  23.276  0.00  0.00    +0.000 A 
ATOM      5  C   UNL     1       8.078  13.188  22.253  0.00  0.00    +0.000 A 
ATOM      6  C   UNL     1       7.068  14.088  21.960  0.00  0.00    +0.000 A 
ATOM      7  C   UNL     1       7.282  15.109  20.909  0.00  0.00    +0.000 C 
ATOM      8  C   UNL     1       8.735  15.297  20.373  0.00  0.00    +0.000 C 
ATOM      9  C   UNL     1       9.446  16.263  21.360  0.00  0.00    +0.000 C 
ATOM     10  C   UNL     1       8.452  15.959  18.953  0.00  0.00    +0.000 C 
ATOM     11  C   UNL     1       8.834  17.428  18.756  0.00  0.00    +0.000 C 
ATOM     12  C   UNL     1       8.775  15.056  17.768  0.00  0.00    +0.000 C 
ATOM     13  C   UNL     1       8.326  13.600  18.075  0.00  0.00    +0.000 C 
ATOM     14  C   UNL     1       9.334  13.040  19.076  0.00  0.00    +0.000 C 
ATOM     15  C   UNL     1       9.740  11.535  19.184  0.00  0.00    +0.000 C 
ATOM     16  C   UNL     1       9.195  10.709  18.005  0.00  0.00    +0.000 C 
ATOM     17  C   UNL     1       9.343  10.742  20.444  0.00  0.00    +0.000 C 
ATOM     18  C   UNL     1      11.296  11.566  19.174  0.00  0.00    +0.000 C 
ATOM     19  C   UNL     1      11.957  12.853  19.758  0.00  0.00    +0.000 C 
ATOM     20  C   UNL     1      11.106  13.996  20.429  0.00  0.00    +0.000 C 
ATOM     21  C   UNL     1       9.527  13.891  20.369  0.00  0.00    +0.000 C 
ATOM     22  O   UNL     1       9.277  13.171  21.606  0.00  0.00    +0.000 OA
ENDROOT
BRANCH   1  24
ATOM     23  C   UNL     1       3.693  14.342  21.584  0.00  0.00    +0.000 C 
ATOM     24  O   UNL     1       4.861  14.891  22.185  0.00  0.00    +0.000 OA
ENDBRANCH   1  24
BRANCH   4  25
ATOM     25  O   UNL     1       8.875  11.407  23.643  0.00  0.00    +0.000 OA
ATOM     26  H   UNL     1       8.535  10.773  24.292  0.00  0.00    +0.000 HD
ENDBRANCH   4  25
TORSDOF 2
ENDMDL
MODEL 2
REMARK VINA RESULT:      -6.4      8.951     12.116
REMARK  Name = 
REMARK  7 active torsions:
REMARK  status: ('A' for Active; 'I' for Inactive)
REMARK    1  A    between atoms: C_1  and  O_2
REMARK    2  A    between atoms: O_2  and  C_3
REMARK    3  A    between atoms: C_6  and  O_7
REMARK    4  A    between atoms: C_11  and  C_12
REMARK    5  A    between atoms: C_13  and  C_14
REMARK    6  A    between atoms: C_18  and  C_19
REMARK    7  A    between atoms: C_18  and  C_20
REMARK                            x       y       z     vdW  Elec       q    Type
REMARK                         _______ _______ _______ _____ _____    ______ ____
ROOT
ATOM      1  C   UNL     1      -0.158  10.745  21.109  0.00  0.00    +0.000 A 
ATOM      2  C   UNL     1      -0.112  10.053  19.900  0.00  0.00    +0.000 A 
ATOM      3  C   UNL     1      -0.800  10.556  18.800  0.00  0.00    +0.000 A 
ATOM      4  C   UNL     1      -1.550  11.723  18.920  0.00  0.00    +0.000 A 
ATOM      5  C   UNL     1      -1.672  12.385  20.151  0.00  0.00    +0.000 A 
ATOM      6  C   UNL     1      -0.933  11.917  21.225  0.00  0.00    +0.000 A 
ATOM      7  C   UNL     1      -1.015  12.617  22.527  0.00  0.00    +0.000 C 
ATOM      8  C   UNL     1      -1.718  14.010  22.553  0.00  0.00    +0.000 C 
ATOM      9  C   UNL     1      -0.643  15.052  22.138  0.00  0.00    +0.000 C 
ATOM     10  C   UNL     1      -2.125  14.117  24.089  0.00  0.00    +0.000 C 
ATOM     11  C   UNL     1      -1.392  15.143  24.956  0.00  0.00    +0.000 C 
ATOM     12  C   UNL     1      -3.624  14.026  24.344  0.00  0.00    +0.000 C 
ATOM     13  C   UNL     1      -4.253  12.943  23.424  0.00  0.00    +0.000 C 
ATOM     14  C   UNL     1      -4.292  13.540  22.019  0.00  0.00    +0.000 C 
ATOM     15  C   UNL     1      -5.364  13.198  20.935  0.00  0.00    +0.000 C 
ATOM     16  C   UNL     1      -6.526  12.375  21.519  0.00  0.00    +0.000 C 
ATOM     17  C   UNL     1      -4.931  12.434  19.669  0.00  0.00    +0.000 C 
ATOM     18  C   UNL     1      -5.857  14.591  20.444  0.00  0.00    +0.000 C 
ATOM     19  C   UNL     1      -4.817  15.752  20.531  0.00  0.00    +0.000 C 
ATOM     20  C   UNL     1      -3.326  15.505  20.973  0.00  0.00    +0.000 C 
ATOM     21  C   UNL     1      -2.923  14.060  21.481  0.00  0.00    +0.000 C 
ATOM     22  O   UNL     1      -2.503  13.461  20.226  0.00  0.00    +0.000 OA
ENDROOT
BRANCH   1  24
ATOM     23  C   UNL     1       1.120   9.060  22.200  0.00  0.00    +0.000 C 
ATOM     24  O   UNL     1       0.474  10.328  22.253  0.00  0.00    +0.000 OA
ENDBRANCH   1  24
BRANCH   4  25
ATOM     25  O   UNL     1      -2.204  12.215  17.822  0.00  0.00    +0.000 OA
ATOM     26  H   UNL     1      -3.159  12.150  17.970  0.00  0.00    +0.000 HD
ENDBRANCH   4  25
TORSDOF 2
ENDMDL
MODEL 3
REMARK VINA RESULT:      -6.3      8.142     10.463
REMARK  Name = 
REMARK  7 active torsions:
REMARK  status: ('A' for Active; 'I' for Inactive)
REMARK    1  A    between atoms: C_1  and  O_2
REMARK    2  A    between atoms: O_2  and  C_3
REMARK    3  A    between atoms: C_6  and  O_7
REMARK    4  A    between atoms: C_11  and  C_12
REMARK    5  A    between atoms: C_13  and  C_14
REMARK    6  A    between atoms: C_18  and  C_19
REMARK    7  A    between atoms: C_18  and  C_20
REMARK                            x       y       z     vdW  Elec       q    Type
REMARK                         _______ _______ _______ _____ _____    ______ ____
ROOT
ATOM      1  C   UNL     1       1.505   7.726  20.162  0.00  0.00    +0.000 A 
ATOM      2  C   UNL     1       1.570   9.048  19.725  0.00  0.00    +0.000 A 
ATOM      3  C   UNL     1       2.167   9.333  18.500  0.00  0.00    +0.000 A 
ATOM      4  C   UNL     1       2.719   8.306  17.738  0.00  0.00    +0.000 A 
ATOM      5  C   UNL     1       2.734   6.983  18.204  0.00  0.00    +0.000 A 
ATOM      6  C   UNL     1       2.081   6.696  19.390  0.00  0.00    +0.000 A 
ATOM      7  C   UNL     1       2.049   5.302  19.888  0.00  0.00    +0.000 C 
ATOM      8  C   UNL     1       2.519   4.178  18.911  0.00  0.00    +0.000 C 
ATOM      9  C   UNL     1       1.290   3.819  18.032  0.00  0.00    +0.000 C 
ATOM     10  C   UNL     1       2.904   3.024  19.939  0.00  0.00    +0.000 C 
ATOM     11  C   UNL     1       2.017   1.779  19.986  0.00  0.00    +0.000 C 
ATOM     12  C   UNL     1       4.399   2.742  20.026  0.00  0.00    +0.000 C 
ATOM     13  C   UNL     1       5.194   4.077  19.989  0.00  0.00    +0.000 C 
ATOM     14  C   UNL     1       5.135   4.574  18.546  0.00  0.00    +0.000 C 
ATOM     15  C   UNL     1       6.248   5.421  17.850  0.00  0.00    +0.000 C 
ATOM     16  C   UNL     1       7.527   5.496  18.701  0.00  0.00    +0.000 C 
ATOM     17  C   UNL     1       5.942   6.880  17.460  0.00  0.00    +0.000 C 
ATOM     18  C   UNL     1       6.509   4.669  16.512  0.00  0.00    +0.000 C 
ATOM     19  C   UNL     1       5.296   3.883  15.924  0.00  0.00    +0.000 C 
ATOM     20  C   UNL     1       3.864   3.947  16.576  0.00  0.00    +0.000 C 
ATOM     21  C   UNL     1       3.700   4.715  17.951  0.00  0.00    +0.000 C 
ATOM     22  O   UNL     1       3.380   6.044  17.459  0.00  0.00    +0.000 OA
ENDROOT
BRANCH   1  24
ATOM     23  C   UNL     1      -0.054   8.196  21.897  0.00  0.00    +0.000 C 
ATOM     24  O   UNL     1       0.949   7.343  21.356  0.00  0.00    +0.000 OA
ENDBRANCH   1  24
BRANCH   4  25
ATOM     25  O   UNL     1       3.285   8.602  16.527  0.00  0.00    +0.000 OA
ATOM     26  H   UNL     1       4.225   8.798  16.657  0.00  0.00    +0.000 HD
ENDBRANCH   4  25
TORSDOF 2
ENDMDL
MODEL 4
REMARK VINA RESULT:      -6.3      9.633     12.958
REMARK  Name = 
REMARK  7 active torsions:
REMARK  status: ('A' for Active; 'I' for Inactive)
REMARK    1  A    between atoms: C_1  and  O_2
REMARK    2  A    between atoms: O_2  and  C_3
REMARK    3  A    between atoms: C_6  and  O_7
REMARK    4  A    between atoms: C_11  and  C_12
REMARK    5  A    between atoms: C_13  and  C_14
REMARK    6  A    between atoms: C_18  and  C_19
REMARK    7  A    between atoms: C_18  and  C_20
REMARK                            x       y       z     vdW  Elec       q    Type
REMARK                         _______ _______ _______ _____ _____    ______ ____
ROOT
ATOM      1  C   UNL     1      -0.760  11.341  21.612  0.00  0.00    +0.000 A 
ATOM      2  C   UNL     1      -0.340  10.649  20.478  0.00  0.00    +0.000 A 
ATOM      3  C   UNL     1      -0.881  10.978  19.238  0.00  0.00    +0.000 A 
ATOM      4  C   UNL     1      -1.855  11.970  19.144  0.00  0.00    +0.000 A 
ATOM      5  C   UNL     1      -2.346  12.617  20.288  0.00  0.00    +0.000 A 
ATOM      6  C   UNL     1      -1.758  12.332  21.508  0.00  0.00    +0.000 A 
ATOM      7  C   UNL     1      -2.231  13.026  22.727  0.00  0.00    +0.000 C 
ATOM      8  C   UNL     1      -3.185  14.246  22.535  0.00  0.00    +0.000 C 
ATOM      9  C   UNL     1      -2.275  15.478  22.271  0.00  0.00    +0.000 C 
ATOM     10  C   UNL     1      -3.901  14.299  23.957  0.00  0.00    +0.000 C 
ATOM     11  C   UNL     1      -3.571  15.470  24.885  0.00  0.00    +0.000 C 
ATOM     12  C   UNL     1      -5.374  13.908  23.928  0.00  0.00    +0.000 C 
ATOM     13  C   UNL     1      -5.583  12.701  22.971  0.00  0.00    +0.000 C 
ATOM     14  C   UNL     1      -5.459  13.249  21.551  0.00  0.00    +0.000 C 
ATOM     15  C   UNL     1      -6.207  12.674  20.306  0.00  0.00    +0.000 C 
ATOM     16  C   UNL     1      -7.277  11.643  20.706  0.00  0.00    +0.000 C 
ATOM     17  C   UNL     1      -5.390  11.990  19.194  0.00  0.00    +0.000 C 
ATOM     18  C   UNL     1      -6.856  13.927  19.648  0.00  0.00    +0.000 C 
ATOM     19  C   UNL     1      -6.103  15.277  19.862  0.00  0.00    +0.000 C 
ATOM     20  C   UNL     1      -4.710  15.349  20.592  0.00  0.00    +0.000 C 
ATOM     21  C   UNL     1      -4.140  14.027  21.253  0.00  0.00    +0.000 C 
ATOM     22  O   UNL     1      -3.370  13.502  20.139  0.00  0.00    +0.000 OA
ENDROOT
BRANCH   1  24
ATOM     23  C   UNL     1      -0.353   9.731  23.317  0.00  0.00    +0.000 C 
ATOM     24  O   UNL     1      -0.297  11.084  22.878  0.00  0.00    +0.000 OA
ENDBRANCH   1  24
BRANCH   4  25
ATOM     25  O   UNL     1      -2.362  12.295  17.915  0.00  0.00    +0.000 OA
ATOM     26  H   UNL     1      -1.992  13.147  17.637  0.00  0.00    +0.000 HD
ENDBRANCH   4  25
TORSDOF 2
ENDMDL
MODEL 5
REMARK VINA RESULT:      -6.2      5.648      8.992
REMARK  Name = 
REMARK  7 active torsions:
REMARK  status: ('A' for Active; 'I' for Inactive)
REMARK    1  A    between atoms: C_1  and  O_2
REMARK    2  A    between atoms: O_2  and  C_3
REMARK    3  A    between atoms: C_6  and  O_7
REMARK    4  A    between atoms: C_11  and  C_12
REMARK    5  A    between atoms: C_13  and  C_14
REMARK    6  A    between atoms: C_18  and  C_19
REMARK    7  A    between atoms: C_18  and  C_20
REMARK                            x       y       z     vdW  Elec       q    Type
REMARK                         _______ _______ _______ _____ _____    ______ ____
ROOT
ATOM      1  C   UNL     1       2.883  14.567  21.162  0.00  0.00    +0.000 A 
ATOM      2  C   UNL     1       3.848  14.996  20.252  0.00  0.00    +0.000 A 
ATOM      3  C   UNL     1       3.706  14.674  18.905  0.00  0.00    +0.000 A 
ATOM      4  C   UNL     1       2.625  13.904  18.482  0.00  0.00    +0.000 A 
ATOM      5  C   UNL     1       1.692  13.397  19.399  0.00  0.00    +0.000 A 
ATOM      6  C   UNL     1       1.801  13.775  20.726  0.00  0.00    +0.000 A 
ATOM      7  C   UNL     1       0.809  13.284  21.709  0.00  0.00    +0.000 C 
ATOM      8  C   UNL     1      -0.471  12.585  21.153  0.00  0.00    +0.000 C 
ATOM      9  C   UNL     1      -1.476  13.719  20.809  0.00  0.00    +0.000 C 
ATOM     10  C   UNL     1      -0.918  11.721  22.414  0.00  0.00    +0.000 C 
ATOM     11  C   UNL     1      -2.195  12.133  23.151  0.00  0.00    +0.000 C 
ATOM     12  C   UNL     1      -0.748  10.218  22.232  0.00  0.00    +0.000 C 
ATOM     13  C   UNL     1       0.587   9.922  21.494  0.00  0.00    +0.000 C 
ATOM     14  C   UNL     1       0.367  10.310  20.033  0.00  0.00    +0.000 C 
ATOM     15  C   UNL     1       1.073   9.631  18.815  0.00  0.00    +0.000 C 
ATOM     16  C   UNL     1       1.833   8.358  19.230  0.00  0.00    +0.000 C 
ATOM     17  C   UNL     1       2.083  10.446  17.986  0.00  0.00    +0.000 C 
ATOM     18  C   UNL     1      -0.098   9.292  17.846  0.00  0.00    +0.000 C 
ATOM     19  C   UNL     1      -1.340  10.234  17.921  0.00  0.00    +0.000 C 
ATOM     20  C   UNL     1      -1.358  11.520  18.830  0.00  0.00    +0.000 C 
ATOM     21  C   UNL     1      -0.133  11.769  19.802  0.00  0.00    +0.000 C 
ATOM     22  O   UNL     1       0.717  12.567  18.935  0.00  0.00    +0.000 OA
ENDROOT
BRANCH   1  24
ATOM     23  C   UNL     1       3.486  16.075  22.901  0.00  0.00    +0.000 C 
ATOM     24  O   UNL     1       2.938  14.821  22.509  0.00  0.00    +0.000 OA
ENDBRANCH   1  24
BRANCH   4  25
ATOM     25  O   UNL     1       2.489  13.614  17.151  0.00  0.00    +0.000 OA
ATOM     26  H   UNL     1       3.215  14.032  16.663  0.00  0.00    +0.000 HD
ENDBRANCH   4  25
TORSDOF 2
ENDMDL
MODEL 6
REMARK VINA RESULT:      -6.1      8.491     11.073
REMARK  Name = 
REMARK  7 active torsions:
REMARK  status: ('A' for Active; 'I' for Inactive)
REMARK    1  A    between atoms: C_1  and  O_2
REMARK    2  A    between atoms: O_2  and  C_3
REMARK    3  A    between atoms: C_6  and  O_7
REMARK    4  A    between atoms: C_11  and  C_12
REMARK    5  A    between atoms: C_13  and  C_14
REMARK    6  A    between atoms: C_18  and  C_19
REMARK    7  A    between atoms: C_18  and  C_20
REMARK                            x       y       z     vdW  Elec       q    Type
REMARK                         _______ _______ _______ _____ _____    ______ ____
ROOT
ATOM      1  C   UNL     1       6.534   6.592  17.481  0.00  0.00    +0.000 A 
ATOM      2  C   UNL     1       7.458   5.778  16.828  0.00  0.00    +0.000 A 
ATOM      3  C   UNL     1       7.045   4.554  16.312  0.00  0.00    +0.000 A 
ATOM      4  C   UNL     1       5.725   4.138  16.476  0.00  0.00    +0.000 A 
ATOM      5  C   UNL     1       4.806   4.909  17.201  0.00  0.00    +0.000 A 
ATOM      6  C   UNL     1       5.205   6.155  17.655  0.00  0.00    +0.000 A 
ATOM      7  C   UNL     1       4.244   7.006  18.393  0.00  0.00    +0.000 C 
ATOM      8  C   UNL     1       2.745   6.572  18.386  0.00  0.00    +0.000 C 
ATOM      9  C   UNL     1       2.132   7.136  17.074  0.00  0.00    +0.000 C 
ATOM     10  C   UNL     1       2.208   7.312  19.689  0.00  0.00    +0.000 C 
ATOM     11  C   UNL     1       1.244   8.487  19.504  0.00  0.00    +0.000 C 
ATOM     12  C   UNL     1       1.850   6.374  20.836  0.00  0.00    +0.000 C 
ATOM     13  C   UNL     1       2.906   5.238  20.939  0.00  0.00    +0.000 C 
ATOM     14  C   UNL     1       2.637   4.292  19.771  0.00  0.00    +0.000 C 
ATOM     15  C   UNL     1       2.915   2.754  19.788  0.00  0.00    +0.000 C 
ATOM     16  C   UNL     1       3.263   2.251  21.200  0.00  0.00    +0.000 C 
ATOM     17  C   UNL     1       4.019   2.184  18.878  0.00  0.00    +0.000 C 
ATOM     18  C   UNL     1       1.581   2.127  19.283  0.00  0.00    +0.000 C 
ATOM     19  C   UNL     1       0.739   3.009  18.310  0.00  0.00    +0.000 C 
ATOM     20  C   UNL     1       1.262   4.394  17.774  0.00  0.00    +0.000 C 
ATOM     21  C   UNL     1       2.617   4.964  18.364  0.00  0.00    +0.000 C 
ATOM     22  O   UNL     1       3.561   4.399  17.414  0.00  0.00    +0.000 OA
ENDROOT
BRANCH   1  24
ATOM     23  C   UNL     1       8.168   8.288  17.822  0.00  0.00    +0.000 C 
ATOM     24  O   UNL     1       6.845   7.809  18.034  0.00  0.00    +0.000 OA
ENDBRANCH   1  24
BRANCH   4  25
ATOM     25  O   UNL     1       5.330   2.940  15.944  0.00  0.00    +0.000 OA
ATOM     26  H   UNL     1       6.104   2.490  15.573  0.00  0.00    +0.000 HD
ENDBRANCH   4  25
TORSDOF 2
ENDMDL
MODEL 7
REMARK VINA RESULT:      -5.8      9.748     13.644
REMARK  Name = 
REMARK  7 active torsions:
REMARK  status: ('A' for Active; 'I' for Inactive)
REMARK    1  A    between atoms: C_1  and  O_2
REMARK    2  A    between atoms: O_2  and  C_3
REMARK    3  A    between atoms: C_6  and  O_7
REMARK    4  A    between atoms: C_11  and  C_12
REMARK    5  A    between atoms: C_13  and  C_14
REMARK    6  A    between atoms: C_18  and  C_19
REMARK    7  A    between atoms: C_18  and  C_20
REMARK                            x       y       z     vdW  Elec       q    Type
REMARK                         _______ _______ _______ _____ _____    ______ ____
ROOT
ATOM      1  C   UNL     1      -1.399  11.654  21.534  0.00  0.00    +0.000 A 
ATOM      2  C   UNL     1      -0.509  11.154  20.585  0.00  0.00    +0.000 A 
ATOM      3  C   UNL     1      -0.769  11.354  19.233  0.00  0.00    +0.000 A 
ATOM      4  C   UNL     1      -1.926  12.021  18.837  0.00  0.00    +0.000 A 
ATOM      5  C   UNL     1      -2.871  12.457  19.778  0.00  0.00    +0.000 A 
ATOM      6  C   UNL     1      -2.575  12.314  21.122  0.00  0.00    +0.000 A 
ATOM      7  C   UNL     1      -3.538  12.798  22.138  0.00  0.00    +0.000 C 
ATOM      8  C   UNL     1      -4.717  13.693  21.643  0.00  0.00    +0.000 C 
ATOM      9  C   UNL     1      -4.166  15.145  21.574  0.00  0.00    +0.000 C 
ATOM     10  C   UNL     1      -5.771  13.486  22.819  0.00  0.00    +0.000 C 
ATOM     11  C   UNL     1      -6.055  14.669  23.746  0.00  0.00    +0.000 C 
ATOM     12  C   UNL     1      -7.003  12.684  22.417  0.00  0.00    +0.000 C 
ATOM     13  C   UNL     1      -6.589  11.503  21.496  0.00  0.00    +0.000 C 
ATOM     14  C   UNL     1      -6.254  12.112  20.136  0.00  0.00    +0.000 C 
ATOM     15  C   UNL     1      -6.440  11.387  18.765  0.00  0.00    +0.000 C 
ATOM     16  C   UNL     1      -7.232  10.076  18.914  0.00  0.00    +0.000 C 
ATOM     17  C   UNL     1      -5.193  11.009  17.943  0.00  0.00    +0.000 C 
ATOM     18  C   UNL     1      -7.223  12.418  17.900  0.00  0.00    +0.000 C 
ATOM     19  C   UNL     1      -6.980  13.920  18.244  0.00  0.00    +0.000 C 
ATOM     20  C   UNL     1      -5.917  14.370  19.315  0.00  0.00    +0.000 C 
ATOM     21  C   UNL     1      -5.187  13.250  20.164  0.00  0.00    +0.000 C 
ATOM     22  O   UNL     1      -4.029  13.010  19.321  0.00  0.00    +0.000 OA
ENDROOT
BRANCH   1  24
ATOM     23  C   UNL     1      -0.714  10.253  23.332  0.00  0.00    +0.000 C 
ATOM     24  O   UNL     1      -1.239  11.500  22.888  0.00  0.00    +0.000 OA
ENDBRANCH   1  24
BRANCH   4  25
ATOM     25  O   UNL     1      -2.157  12.227  17.503  0.00  0.00    +0.000 OA
ATOM     26  H   UNL     1      -1.598  12.957  17.197  0.00  0.00    +0.000 HD
ENDBRANCH   4  25
TORSDOF 2
ENDMDL
MODEL 8
REMARK VINA RESULT:      -5.8      5.446      9.106
REMARK  Name = 
REMARK  7 active torsions:
REMARK  status: ('A' for Active; 'I' for Inactive)
REMARK    1  A    between atoms: C_1  and  O_2
REMARK    2  A    between atoms: O_2  and  C_3
REMARK    3  A    between atoms: C_6  and  O_7
REMARK    4  A    between atoms: C_11  and  C_12
REMARK    5  A    between atoms: C_13  and  C_14
REMARK    6  A    between atoms: C_18  and  C_19
REMARK    7  A    between atoms: C_18  and  C_20
REMARK                            x       y       z     vdW  Elec       q    Type
REMARK                         _______ _______ _______ _____ _____    ______ ____
ROOT
ATOM      1  C   UNL     1       3.000  15.015  21.433  0.00  0.00    +0.000 A 
ATOM      2  C   UNL     1       4.076  15.134  20.556  0.00  0.00    +0.000 A 
ATOM      3  C   UNL     1       3.944  14.679  19.247  0.00  0.00    +0.000 A 
ATOM      4  C   UNL     1       2.754  14.084  18.833  0.00  0.00    +0.000 A 
ATOM      5  C   UNL     1       1.692  13.885  19.727  0.00  0.00    +0.000 A 
ATOM      6  C   UNL     1       1.806  14.398  21.008  0.00  0.00    +0.000 A 
ATOM      7  C   UNL     1       0.686  14.234  21.962  0.00  0.00    +0.000 C 
ATOM      8  C   UNL     1      -0.677  13.729  21.393  0.00  0.00    +0.000 C 
ATOM      9  C   UNL     1      -1.416  14.982  20.849  0.00  0.00    +0.000 C 
ATOM     10  C   UNL     1      -1.353  13.133  22.706  0.00  0.00    +0.000 C 
ATOM     11  C   UNL     1      -2.559  13.871  23.292  0.00  0.00    +0.000 C 
ATOM     12  C   UNL     1      -1.477  11.614  22.709  0.00  0.00    +0.000 C 
ATOM     13  C   UNL     1      -0.191  10.977  22.111  0.00  0.00    +0.000 C 
ATOM     14  C   UNL     1      -0.253  11.213  20.604  0.00  0.00    +0.000 C 
ATOM     15  C   UNL     1       0.365  10.264  19.527  0.00  0.00    +0.000 C 
ATOM     16  C   UNL     1       0.833   8.932  20.140  0.00  0.00    +0.000 C 
ATOM     17  C   UNL     1       1.559  10.760  18.691  0.00  0.00    +0.000 C 
ATOM     18  C   UNL     1      -0.798  10.037  18.517  0.00  0.00    +0.000 C 
ATOM     19  C   UNL     1      -1.828  11.202  18.391  0.00  0.00    +0.000 C 
ATOM     20  C   UNL     1      -1.637  12.571  19.145  0.00  0.00    +0.000 C 
ATOM     21  C   UNL     1      -0.439  12.700  20.173  0.00  0.00    +0.000 C 
ATOM     22  O   UNL     1       0.597  13.205  19.288  0.00  0.00    +0.000 OA
ENDROOT
BRANCH   1  24
ATOM     23  C   UNL     1       4.282  15.902  23.231  0.00  0.00    +0.000 C 
ATOM     24  O   UNL     1       3.034  15.422  22.743  0.00  0.00    +0.000 OA
ENDBRANCH   1  24
BRANCH   4  25
ATOM     25  O   UNL     1       2.633  13.660  17.537  0.00  0.00    +0.000 OA
ATOM     26  H   UNL     1       1.714  13.397  17.376  0.00  0.00    +0.000 HD
ENDBRANCH   4  25
TORSDOF 2
ENDMDL
MODEL 9
REMARK VINA RESULT:      -5.8      8.486     11.675
REMARK  Name = 
REMARK  7 active torsions:
REMARK  status: ('A' for Active; 'I' for Inactive)
REMARK    1  A    between atoms: C_1  and  O_2
REMARK    2  A    between atoms: O_2  and  C_3
REMARK    3  A    between atoms: C_6  and  O_7
REMARK    4  A    between atoms: C_11  and  C_12
REMARK    5  A    between atoms: C_13  and  C_14
REMARK    6  A    between atoms: C_18  and  C_19
REMARK    7  A    between atoms: C_18  and  C_20
REMARK                            x       y       z     vdW  Elec       q    Type
REMARK                         _______ _______ _______ _____ _____    ______ ____
ROOT
ATOM      1  C   UNL     1      -4.507  11.675  18.580  0.00  0.00    +0.000 A 
ATOM      2  C   UNL     1      -3.992  10.995  17.478  0.00  0.00    +0.000 A 
ATOM      3  C   UNL     1      -2.614  10.860  17.343  0.00  0.00    +0.000 A 
ATOM      4  C   UNL     1      -1.762  11.429  18.287  0.00  0.00    +0.000 A 
ATOM      5  C   UNL     1      -2.264  12.185  19.356  0.00  0.00    +0.000 A 
ATOM      6  C   UNL     1      -3.636  12.260  19.522  0.00  0.00    +0.000 A 
ATOM      7  C   UNL     1      -4.194  13.022  20.662  0.00  0.00    +0.000 C 
ATOM      8  C   UNL     1      -3.202  13.477  21.778  0.00  0.00    +0.000 C 
ATOM      9  C   UNL     1      -3.050  12.272  22.747  0.00  0.00    +0.000 C 
ATOM     10  C   UNL     1      -4.005  14.692  22.422  0.00  0.00    +0.000 C 
ATOM     11  C   UNL     1      -4.568  14.514  23.834  0.00  0.00    +0.000 C 
ATOM     12  C   UNL     1      -3.386  16.059  22.153  0.00  0.00    +0.000 C 
ATOM     13  C   UNL     1      -2.870  16.128  20.689  0.00  0.00    +0.000 C 
ATOM     14  C   UNL     1      -1.598  15.284  20.640  0.00  0.00    +0.000 C 
ATOM     15  C   UNL     1      -0.390  15.546  19.684  0.00  0.00    +0.000 C 
ATOM     16  C   UNL     1      -0.515  16.900  18.963  0.00  0.00    +0.000 C 
ATOM     17  C   UNL     1      -0.084  14.527  18.570  0.00  0.00    +0.000 C 
ATOM     18  C   UNL     1       0.846  15.528  20.630  0.00  0.00    +0.000 C 
ATOM     19  C   UNL     1       0.718  14.635  21.903  0.00  0.00    +0.000 C 
ATOM     20  C   UNL     1      -0.534  13.713  22.153  0.00  0.00    +0.000 C 
ATOM     21  C   UNL     1      -1.755  13.818  21.150  0.00  0.00    +0.000 C 
ATOM     22  O   UNL     1      -1.376  12.800  20.185  0.00  0.00    +0.000 OA
ENDROOT
BRANCH   1  24
ATOM     23  C   UNL     1      -6.696  10.742  18.626  0.00  0.00    +0.000 C 
ATOM     24  O   UNL     1      -5.848  11.872  18.798  0.00  0.00    +0.000 OA
ENDBRANCH   1  24
BRANCH   4  25
ATOM     25  O   UNL     1      -0.409  11.269  18.150  0.00  0.00    +0.000 OA
ATOM     26  H   UNL     1      -0.041  12.058  17.724  0.00  0.00    +0.000 HD
ENDBRANCH   4  25
TORSDOF 2
ENDMDL
