MODEL 1
REMARK VINA RESULT:      -5.3      0.000      0.000
REMARK  Name = 
REMARK  1 active torsions:
REMARK  status: ('A' for Active; 'I' for Inactive)
REMARK    1  A    between atoms: C_1  and  C_2
REMARK                            x       y       z     vdW  Elec       q    Type
REMARK                         _______ _______ _______ _____ _____    ______ ____
ROOT
ATOM      1  C   UNL     1       1.690   5.538  20.739  0.00  0.00    +0.000 C 
ATOM      2  C   UNL     1       1.985   4.367  19.849  0.00  0.00    +0.000 A 
ATOM      3  C   UNL     1       0.989   3.414  19.557  0.00  0.00    +0.000 A 
ATOM      4  C   UNL     1       1.244   2.319  18.725  0.00  0.00    +0.000 A 
ATOM      5  C   UNL     1       2.503   2.120  18.151  0.00  0.00    +0.000 A 
ATOM      6  C   UNL     1       3.479   3.069  18.450  0.00  0.00    +0.000 A 
ATOM      7  N   UNL     1       4.793   3.191  18.071  0.00  0.00    +0.000 N 
ATOM      8  C   UNL     1       5.294   4.324  18.646  0.00  0.00    +0.000 A 
ATOM      9  N   UNL     1       4.395   4.936  19.379  0.00  0.00    +0.000 NA
ATOM     10  C   UNL     1       3.255   4.171  19.270  0.00  0.00    +0.000 A 
ATOM     11  H   UNL     1       5.298   2.557  17.471  0.00  0.00    +0.000 HD
ENDROOT
TORSDOF 0
ENDMDL
MODEL 2
REMARK VINA RESULT:      -5.3      1.354      1.504
REMARK  Name = 
REMARK  1 active torsions:
REMARK  status: ('A' for Active; 'I' for Inactive)
REMARK    1  A    between atoms: C_1  and  C_2
REMARK                            x       y       z     vdW  Elec       q    Type
REMARK                         _______ _______ _______ _____ _____    ______ ____
ROOT
ATOM      1  C   UNL     1       2.228   6.976  19.795  0.00  0.00    +0.000 C 
ATOM      2  C   UNL     1       2.408   5.499  19.981  0.00  0.00    +0.000 A 
ATOM      3  C   UNL     1       1.382   4.713  20.542  0.00  0.00    +0.000 A 
ATOM      4  C   UNL     1       1.530   3.333  20.718  0.00  0.00    +0.000 A 
ATOM      5  C   UNL     1       2.706   2.674  20.347  0.00  0.00    +0.000 A 
ATOM      6  C   UNL     1       3.713   3.465  19.795  0.00  0.00    +0.000 A 
ATOM      7  N   UNL     1       4.968   3.166  19.328  0.00  0.00    +0.000 N 
ATOM      8  C   UNL     1       5.539   4.323  18.880  0.00  0.00    +0.000 A 
ATOM      9  N   UNL     1       4.739   5.351  19.036  0.00  0.00    +0.000 NA
ATOM     10  C   UNL     1       3.594   4.839  19.604  0.00  0.00    +0.000 A 
ATOM     11  H   UNL     1       5.393   2.251  19.315  0.00  0.00    +0.000 HD
ENDROOT
TORSDOF 0
ENDMDL
MODEL 3
REMARK VINA RESULT:      -5.2      1.020      2.628
REMARK  Name = 
REMARK  1 active torsions:
REMARK  status: ('A' for Active; 'I' for Inactive)
REMARK    1  A    between atoms: C_1  and  C_2
REMARK                            x       y       z     vdW  Elec       q    Type
REMARK                         _______ _______ _______ _____ _____    ______ ____
ROOT
ATOM      1  C   UNL     1       3.535   1.363  18.411  0.00  0.00    +0.000 C 
ATOM      2  C   UNL     1       2.844   2.498  19.106  0.00  0.00    +0.000 A 
ATOM      3  C   UNL     1       1.543   2.342  19.623  0.00  0.00    +0.000 A 
ATOM      4  C   UNL     1       0.885   3.387  20.280  0.00  0.00    +0.000 A 
ATOM      5  C   UNL     1       1.491   4.636  20.447  0.00  0.00    +0.000 A 
ATOM      6  C   UNL     1       2.777   4.777  19.928  0.00  0.00    +0.000 A 
ATOM      7  N   UNL     1       3.653   5.833  19.910  0.00  0.00    +0.000 N 
ATOM      8  C   UNL     1       4.794   5.426  19.279  0.00  0.00    +0.000 A 
ATOM      9  N   UNL     1       4.708   4.179  18.878  0.00  0.00    +0.000 NA
ATOM     10  C   UNL     1       3.459   3.754  19.274  0.00  0.00    +0.000 A 
ATOM     11  H   UNL     1       3.485   6.749  20.299  0.00  0.00    +0.000 HD
ENDROOT
TORSDOF 0
ENDMDL
MODEL 4
REMARK VINA RESULT:      -5.2      2.984      4.744
REMARK  Name = 
REMARK  1 active torsions:
REMARK  status: ('A' for Active; 'I' for Inactive)
REMARK    1  A    between atoms: C_1  and  C_2
REMARK                            x       y       z     vdW  Elec       q    Type
REMARK                         _______ _______ _______ _____ _____    ______ ____
ROOT
ATOM      1  C   UNL     1       3.830   3.307  17.488  0.00  0.00    +0.000 C 
ATOM      2  C   UNL     1       5.055   4.159  17.626  0.00  0.00    +0.000 A 
ATOM      3  C   UNL     1       5.441   4.670  18.881  0.00  0.00    +0.000 A 
ATOM      4  C   UNL     1       6.584   5.463  19.030  0.00  0.00    +0.000 A 
ATOM      5  C   UNL     1       7.392   5.787  17.936  0.00  0.00    +0.000 A 
ATOM      6  C   UNL     1       6.997   5.276  16.700  0.00  0.00    +0.000 A 
ATOM      7  N   UNL     1       7.537   5.386  15.443  0.00  0.00    +0.000 N 
ATOM      8  C   UNL     1       6.751   4.674  14.582  0.00  0.00    +0.000 A 
ATOM      9  N   UNL     1       5.734   4.120  15.199  0.00  0.00    +0.000 NA
ATOM     10  C   UNL     1       5.868   4.482  16.521  0.00  0.00    +0.000 A 
ATOM     11  H   UNL     1       8.370   5.900  15.198  0.00  0.00    +0.000 HD
ENDROOT
TORSDOF 0
ENDMDL
MODEL 5
REMARK VINA RESULT:      -5.1      1.445      2.638
REMARK  Name = 
REMARK  1 active torsions:
REMARK  status: ('A' for Active; 'I' for Inactive)
REMARK    1  A    between atoms: C_1  and  C_2
REMARK                            x       y       z     vdW  Elec       q    Type
REMARK                         _______ _______ _______ _____ _____    ______ ____
ROOT
ATOM      1  C   UNL     1       4.096   5.982  18.295  0.00  0.00    +0.000 C 
ATOM      2  C   UNL     1       3.106   5.092  18.985  0.00  0.00    +0.000 A 
ATOM      3  C   UNL     1       2.219   5.611  19.949  0.00  0.00    +0.000 A 
ATOM      4  C   UNL     1       1.285   4.798  20.600  0.00  0.00    +0.000 A 
ATOM      5  C   UNL     1       1.196   3.430  20.324  0.00  0.00    +0.000 A 
ATOM      6  C   UNL     1       2.081   2.930  19.370  0.00  0.00    +0.000 A 
ATOM      7  N   UNL     1       2.271   1.670  18.861  0.00  0.00    +0.000 N 
ATOM      8  C   UNL     1       3.271   1.736  17.933  0.00  0.00    +0.000 A 
ATOM      9  N   UNL     1       3.746   2.953  17.817  0.00  0.00    +0.000 NA
ATOM     10  C   UNL     1       3.017   3.714  18.703  0.00  0.00    +0.000 A 
ATOM     11  H   UNL     1       1.759   0.841  19.123  0.00  0.00    +0.000 HD
ENDROOT
TORSDOF 0
ENDMDL
MODEL 6
REMARK VINA RESULT:      -5.1      3.277      4.583
REMARK  Name = 
REMARK  1 active torsions:
REMARK  status: ('A' for Active; 'I' for Inactive)
REMARK    1  A    between atoms: C_1  and  C_2
REMARK                            x       y       z     vdW  Elec       q    Type
REMARK                         _______ _______ _______ _____ _____    ______ ____
ROOT
ATOM      1  C   UNL     1       7.796   6.688  18.344  0.00  0.00    +0.000 C 
ATOM      2  C   UNL     1       6.737   5.705  17.944  0.00  0.00    +0.000 A 
ATOM      3  C   UNL     1       5.795   5.237  18.882  0.00  0.00    +0.000 A 
ATOM      4  C   UNL     1       4.797   4.324  18.525  0.00  0.00    +0.000 A 
ATOM      5  C   UNL     1       4.694   3.832  17.221  0.00  0.00    +0.000 A 
ATOM      6  C   UNL     1       5.634   4.301  16.304  0.00  0.00    +0.000 A 
ATOM      7  N   UNL     1       5.830   4.042  14.971  0.00  0.00    +0.000 N 
ATOM      8  C   UNL     1       6.896   4.783  14.548  0.00  0.00    +0.000 A 
ATOM      9  N   UNL     1       7.408   5.496  15.523  0.00  0.00    +0.000 NA
ATOM     10  C   UNL     1       6.636   5.212  16.627  0.00  0.00    +0.000 A 
ATOM     11  H   UNL     1       5.280   3.415  14.402  0.00  0.00    +0.000 HD
ENDROOT
TORSDOF 0
ENDMDL
MODEL 7
REMARK VINA RESULT:      -5.1      1.744      1.938
REMARK  Name = 
REMARK  1 active torsions:
REMARK  status: ('A' for Active; 'I' for Inactive)
REMARK    1  A    between atoms: C_1  and  C_2
REMARK                            x       y       z     vdW  Elec       q    Type
REMARK                         _______ _______ _______ _____ _____    ______ ____
ROOT
ATOM      1  C   UNL     1       2.737   7.273  18.075  0.00  0.00    +0.000 C 
ATOM      2  C   UNL     1       2.970   5.792  18.090  0.00  0.00    +0.000 A 
ATOM      3  C   UNL     1       1.907   4.892  17.883  0.00  0.00    +0.000 A 
ATOM      4  C   UNL     1       2.106   3.507  17.888  0.00  0.00    +0.000 A 
ATOM      5  C   UNL     1       3.372   2.956  18.105  0.00  0.00    +0.000 A 
ATOM      6  C   UNL     1       4.415   3.859  18.311  0.00  0.00    +0.000 A 
ATOM      7  N   UNL     1       5.755   3.680  18.548  0.00  0.00    +0.000 N 
ATOM      8  C   UNL     1       6.332   4.913  18.665  0.00  0.00    +0.000 A 
ATOM      9  N   UNL     1       5.450   5.875  18.530  0.00  0.00    +0.000 NA
ATOM     10  C   UNL     1       4.249   5.241  18.307  0.00  0.00    +0.000 A 
ATOM     11  H   UNL     1       6.232   2.793  18.620  0.00  0.00    +0.000 HD
ENDROOT
TORSDOF 0
ENDMDL
MODEL 8
REMARK VINA RESULT:      -5.1      1.664      2.371
REMARK  Name = 
REMARK  1 active torsions:
REMARK  status: ('A' for Active; 'I' for Inactive)
REMARK    1  A    between atoms: C_1  and  C_2
REMARK                            x       y       z     vdW  Elec       q    Type
REMARK                         _______ _______ _______ _____ _____    ______ ____
ROOT
ATOM      1  C   UNL     1       0.846   4.179  20.296  0.00  0.00    +0.000 C 
ATOM      2  C   UNL     1       2.094   4.354  19.485  0.00  0.00    +0.000 A 
ATOM      3  C   UNL     1       2.180   5.358  18.500  0.00  0.00    +0.000 A 
ATOM      4  C   UNL     1       3.338   5.540  17.737  0.00  0.00    +0.000 A 
ATOM      5  C   UNL     1       4.462   4.727  17.916  0.00  0.00    +0.000 A 
ATOM      6  C   UNL     1       4.362   3.737  18.892  0.00  0.00    +0.000 A 
ATOM      7  N   UNL     1       5.246   2.781  19.329  0.00  0.00    +0.000 N 
ATOM      8  C   UNL     1       4.639   2.069  20.324  0.00  0.00    +0.000 A 
ATOM      9  N   UNL     1       3.418   2.494  20.551  0.00  0.00    +0.000 NA
ATOM     10  C   UNL     1       3.225   3.534  19.670  0.00  0.00    +0.000 A 
ATOM     11  H   UNL     1       6.180   2.634  18.980  0.00  0.00    +0.000 HD
ENDROOT
TORSDOF 0
ENDMDL
MODEL 9
REMARK VINA RESULT:      -5.1      2.426      4.005
REMARK  Name = 
REMARK  1 active torsions:
REMARK  status: ('A' for Active; 'I' for Inactive)
REMARK    1  A    between atoms: C_1  and  C_2
REMARK                            x       y       z     vdW  Elec       q    Type
REMARK                         _______ _______ _______ _____ _____    ______ ____
ROOT
ATOM      1  C   UNL     1       5.730   4.363  15.006  0.00  0.00    +0.000 C 
ATOM      2  C   UNL     1       5.329   4.327  16.451  0.00  0.00    +0.000 A 
ATOM      3  C   UNL     1       4.074   3.818  16.838  0.00  0.00    +0.000 A 
ATOM      4  C   UNL     1       3.684   3.772  18.181  0.00  0.00    +0.000 A 
ATOM      5  C   UNL     1       4.524   4.234  19.198  0.00  0.00    +0.000 A 
ATOM      6  C   UNL     1       5.762   4.737  18.800  0.00  0.00    +0.000 A 
ATOM      7  N   UNL     1       6.814   5.262  19.508  0.00  0.00    +0.000 N 
ATOM      8  C   UNL     1       7.797   5.595  18.620  0.00  0.00    +0.000 A 
ATOM      9  N   UNL     1       7.444   5.330  17.384  0.00  0.00    +0.000 NA
ATOM     10  C   UNL     1       6.180   4.793  17.473  0.00  0.00    +0.000 A 
ATOM     11  H   UNL     1       6.855   5.379  20.509  0.00  0.00    +0.000 HD
ENDROOT
TORSDOF 0
ENDMDL
