MODEL 1
REMARK VINA RESULT:      -7.6      0.000      0.000
REMARK  Name = 
REMARK  3 active torsions:
REMARK  status: ('A' for Active; 'I' for Inactive)
REMARK    1  A    between atoms: C_2  and  C_3
REMARK    2  A    between atoms: C_3  and  O_4
REMARK    3  A    between atoms: O_4  and  C_5
REMARK                            x       y       z     vdW  Elec       q    Type
REMARK                         _______ _______ _______ _____ _____    ______ ____
ROOT
ATOM      1  O   UNL     1       7.695   6.917  18.031  0.00  0.00    +0.000 OA
ATOM      2  C   UNL     1       7.260   5.981  17.348  0.00  0.00    +0.000 C 
ATOM      3  N   UNL     1       7.546   5.980  16.014  0.00  0.00    +0.000 N 
ATOM      4  C   UNL     1       7.015   5.167  15.016  0.00  0.00    +0.000 A 
ATOM      5  C   UNL     1       7.616   5.198  13.761  0.00  0.00    +0.000 A 
ATOM      6  C   UNL     1       7.080   4.419  12.732  0.00  0.00    +0.000 A 
ATOM      7  C   UNL     1       5.942   3.663  12.979  0.00  0.00    +0.000 A 
ATOM      8 CL   UNL     1       5.232   2.713  11.742  0.00  0.00    +0.000 Cl
ATOM      9  C   UNL     1       5.404   3.700  14.253  0.00  0.00    +0.000 A 
ATOM     10  N   UNL     1       5.930   4.418  15.273  0.00  0.00    +0.000 NA
ATOM     11  H   UNL     1       8.172   6.724  15.738  0.00  0.00    +0.000 HD
ENDROOT
BRANCH   2  12
ATOM     12  C   UNL     1       6.562   4.788  18.008  0.00  0.00    +0.000 C 
BRANCH  12  13
ATOM     13  O   UNL     1       5.620   5.129  19.013  0.00  0.00    +0.000 OA
BRANCH  13  14
ATOM     14  C   UNL     1       4.441   4.421  18.971  0.00  0.00    +0.000 A 
ATOM     15  C   UNL     1       4.299   3.126  19.490  0.00  0.00    +0.000 A 
ATOM     16  C   UNL     1       3.074   2.459  19.420  0.00  0.00    +0.000 A 
ATOM     17  C   UNL     1       1.976   3.085  18.842  0.00  0.00    +0.000 A 
ATOM     18 CL   UNL     1       0.473   2.252  18.753  0.00  0.00    +0.000 Cl
ATOM     19  C   UNL     1       2.086   4.379  18.342  0.00  0.00    +0.000 A 
ATOM     20  C   UNL     1       3.315   5.046  18.410  0.00  0.00    +0.000 A 
ATOM     21 CL   UNL     1       3.400   6.646  17.762  0.00  0.00    +0.000 Cl
ENDBRANCH  13  14
ENDBRANCH  12  13
ENDBRANCH   2  12
TORSDOF 3
ENDMDL
MODEL 2
REMARK VINA RESULT:      -7.5      1.916      5.800
REMARK  Name = 
REMARK  3 active torsions:
REMARK  status: ('A' for Active; 'I' for Inactive)
REMARK    1  A    between atoms: C_2  and  C_3
REMARK    2  A    between atoms: C_3  and  O_4
REMARK    3  A    between atoms: O_4  and  C_5
REMARK                            x       y       z     vdW  Elec       q    Type
REMARK                         _______ _______ _______ _____ _____    ______ ____
ROOT
ATOM      1  O   UNL     1       6.740   7.987  17.127  0.00  0.00    +0.000 OA
ATOM      2  C   UNL     1       6.235   6.860  17.203  0.00  0.00    +0.000 C 
ATOM      3  N   UNL     1       4.917   6.773  17.544  0.00  0.00    +0.000 N 
ATOM      4  C   UNL     1       4.185   5.640  17.887  0.00  0.00    +0.000 A 
ATOM      5  C   UNL     1       2.802   5.762  17.986  0.00  0.00    +0.000 A 
ATOM      6  C   UNL     1       2.046   4.649  18.364  0.00  0.00    +0.000 A 
ATOM      7  C   UNL     1       2.699   3.461  18.665  0.00  0.00    +0.000 A 
ATOM      8 CL   UNL     1       1.818   2.075  19.158  0.00  0.00    +0.000 Cl
ATOM      9  C   UNL     1       4.077   3.431  18.550  0.00  0.00    +0.000 A 
ATOM     10  N   UNL     1       4.823   4.488  18.148  0.00  0.00    +0.000 NA
ATOM     11  H   UNL     1       4.463   7.674  17.619  0.00  0.00    +0.000 HD
ENDROOT
BRANCH   2  12
ATOM     12  C   UNL     1       7.023   5.619  16.772  0.00  0.00    +0.000 C 
BRANCH  12  13
ATOM     13  O   UNL     1       7.596   5.696  15.476  0.00  0.00    +0.000 OA
BRANCH  13  14
ATOM     14  C   UNL     1       6.978   4.927  14.517  0.00  0.00    +0.000 A 
ATOM     15  C   UNL     1       5.827   4.165  14.763  0.00  0.00    +0.000 A 
ATOM     16  C   UNL     1       5.243   3.404  13.748  0.00  0.00    +0.000 A 
ATOM     17  C   UNL     1       5.798   3.409  12.473  0.00  0.00    +0.000 A 
ATOM     18 CL   UNL     1       5.075   2.462  11.230  0.00  0.00    +0.000 Cl
ATOM     19  C   UNL     1       6.925   4.176  12.198  0.00  0.00    +0.000 A 
ATOM     20  C   UNL     1       7.511   4.936  13.218  0.00  0.00    +0.000 A 
ATOM     21 CL   UNL     1       8.919   5.860  12.826  0.00  0.00    +0.000 Cl
ENDBRANCH  13  14
ENDBRANCH  12  13
ENDBRANCH   2  12
TORSDOF 3
ENDMDL
MODEL 3
REMARK VINA RESULT:      -7.4      1.191      1.211
REMARK  Name = 
REMARK  3 active torsions:
REMARK  status: ('A' for Active; 'I' for Inactive)
REMARK    1  A    between atoms: C_2  and  C_3
REMARK    2  A    between atoms: C_3  and  O_4
REMARK    3  A    between atoms: O_4  and  C_5
REMARK                            x       y       z     vdW  Elec       q    Type
REMARK                         _______ _______ _______ _____ _____    ______ ____
ROOT
ATOM      1  O   UNL     1       7.593   6.934  17.599  0.00  0.00    +0.000 OA
ATOM      2  C   UNL     1       7.051   6.032  16.948  0.00  0.00    +0.000 C 
ATOM      3  N   UNL     1       7.457   5.846  15.658  0.00  0.00    +0.000 N 
ATOM      4  C   UNL     1       6.875   5.051  14.675  0.00  0.00    +0.000 A 
ATOM      5  C   UNL     1       7.586   4.846  13.496  0.00  0.00    +0.000 A 
ATOM      6  C   UNL     1       7.009   4.082  12.478  0.00  0.00    +0.000 A 
ATOM      7  C   UNL     1       5.728   3.577  12.656  0.00  0.00    +0.000 A 
ATOM      8 CL   UNL     1       4.967   2.657  11.426  0.00  0.00    +0.000 Cl
ATOM      9  C   UNL     1       5.089   3.838  13.855  0.00  0.00    +0.000 A 
ATOM     10  N   UNL     1       5.646   4.544  14.868  0.00  0.00    +0.000 NA
ATOM     11  H   UNL     1       8.238   6.431  15.396  0.00  0.00    +0.000 HD
ENDROOT
BRANCH   2  12
ATOM     12  C   UNL     1       6.077   5.059  17.618  0.00  0.00    +0.000 C 
BRANCH  12  13
ATOM     13  O   UNL     1       4.835   5.627  18.002  0.00  0.00    +0.000 OA
BRANCH  13  14
ATOM     14  C   UNL     1       4.095   4.873  18.883  0.00  0.00    +0.000 A 
ATOM     15  C   UNL     1       4.397   3.541  19.201  0.00  0.00    +0.000 A 
ATOM     16  C   UNL     1       3.609   2.826  20.105  0.00  0.00    +0.000 A 
ATOM     17  C   UNL     1       2.517   3.440  20.710  0.00  0.00    +0.000 A 
ATOM     18 CL   UNL     1       1.547   2.548  21.816  0.00  0.00    +0.000 Cl
ATOM     19  C   UNL     1       2.212   4.767  20.428  0.00  0.00    +0.000 A 
ATOM     20  C   UNL     1       3.001   5.483  19.519  0.00  0.00    +0.000 A 
ATOM     21 CL   UNL     1       2.569   7.125  19.195  0.00  0.00    +0.000 Cl
ENDBRANCH  13  14
ENDBRANCH  12  13
ENDBRANCH   2  12
TORSDOF 3
ENDMDL
MODEL 4
REMARK VINA RESULT:      -7.2      1.906      6.032
REMARK  Name = 
REMARK  3 active torsions:
REMARK  status: ('A' for Active; 'I' for Inactive)
REMARK    1  A    between atoms: C_2  and  C_3
REMARK    2  A    between atoms: C_3  and  O_4
REMARK    3  A    between atoms: O_4  and  C_5
REMARK                            x       y       z     vdW  Elec       q    Type
REMARK                         _______ _______ _______ _____ _____    ______ ____
ROOT
ATOM      1  O   UNL     1       8.183   4.537  17.436  0.00  0.00    +0.000 OA
ATOM      2  C   UNL     1       6.948   4.620  17.450  0.00  0.00    +0.000 C 
ATOM      3  N   UNL     1       6.273   3.907  18.398  0.00  0.00    +0.000 N 
ATOM      4  C   UNL     1       4.904   3.675  18.494  0.00  0.00    +0.000 A 
ATOM      5  C   UNL     1       4.419   3.103  19.667  0.00  0.00    +0.000 A 
ATOM      6  C   UNL     1       3.054   2.827  19.775  0.00  0.00    +0.000 A 
ATOM      7  C   UNL     1       2.223   3.098  18.696  0.00  0.00    +0.000 A 
ATOM      8 CL   UNL     1       0.545   2.752  18.770  0.00  0.00    +0.000 Cl
ATOM      9  C   UNL     1       2.790   3.658  17.565  0.00  0.00    +0.000 A 
ATOM     10  N   UNL     1       4.103   3.968  17.456  0.00  0.00    +0.000 NA
ATOM     11  H   UNL     1       6.882   3.441  19.057  0.00  0.00    +0.000 HD
ENDROOT
BRANCH   2  12
ATOM     12  C   UNL     1       6.219   5.610  16.538  0.00  0.00    +0.000 C 
BRANCH  12  13
ATOM     13  O   UNL     1       6.853   5.853  15.292  0.00  0.00    +0.000 OA
BRANCH  13  14
ATOM     14  C   UNL     1       6.559   4.947  14.300  0.00  0.00    +0.000 A 
ATOM     15  C   UNL     1       5.437   4.106  14.331  0.00  0.00    +0.000 A 
ATOM     16  C   UNL     1       5.189   3.206  13.292  0.00  0.00    +0.000 A 
ATOM     17  C   UNL     1       6.055   3.148  12.206  0.00  0.00    +0.000 A 
ATOM     18 CL   UNL     1       5.745   2.030  10.934  0.00  0.00    +0.000 Cl
ATOM     19  C   UNL     1       7.161   3.988  12.141  0.00  0.00    +0.000 A 
ATOM     20  C   UNL     1       7.410   4.888  13.185  0.00  0.00    +0.000 A 
ATOM     21 CL   UNL     1       8.806   5.900  13.060  0.00  0.00    +0.000 Cl
ENDBRANCH  13  14
ENDBRANCH  12  13
ENDBRANCH   2  12
TORSDOF 3
ENDMDL
MODEL 5
REMARK VINA RESULT:      -7.1      3.778      4.878
REMARK  Name = 
REMARK  3 active torsions:
REMARK  status: ('A' for Active; 'I' for Inactive)
REMARK    1  A    between atoms: C_2  and  C_3
REMARK    2  A    between atoms: C_3  and  O_4
REMARK    3  A    between atoms: O_4  and  C_5
REMARK                            x       y       z     vdW  Elec       q    Type
REMARK                         _______ _______ _______ _____ _____    ______ ____
ROOT
ATOM      1  O   UNL     1       4.215   2.284  19.486  0.00  0.00    +0.000 OA
ATOM      2  C   UNL     1       4.597   3.253  18.817  0.00  0.00    +0.000 C 
ATOM      3  N   UNL     1       5.782   3.836  19.160  0.00  0.00    +0.000 N 
ATOM      4  C   UNL     1       6.318   5.037  18.704  0.00  0.00    +0.000 A 
ATOM      5  C   UNL     1       7.641   5.325  19.028  0.00  0.00    +0.000 A 
ATOM      6  C   UNL     1       8.193   6.541  18.613  0.00  0.00    +0.000 A 
ATOM      7  C   UNL     1       7.396   7.443  17.921  0.00  0.00    +0.000 A 
ATOM      8 CL   UNL     1       8.020   8.957  17.415  0.00  0.00    +0.000 Cl
ATOM      9  C   UNL     1       6.089   7.079  17.651  0.00  0.00    +0.000 A 
ATOM     10  N   UNL     1       5.548   5.891  18.010  0.00  0.00    +0.000 NA
ATOM     11  H   UNL     1       6.273   3.344  19.894  0.00  0.00    +0.000 HD
ENDROOT
BRANCH   2  12
ATOM     12  C   UNL     1       3.843   3.677  17.554  0.00  0.00    +0.000 C 
BRANCH  12  13
ATOM     13  O   UNL     1       2.478   4.007  17.755  0.00  0.00    +0.000 OA
BRANCH  13  14
ATOM     14  C   UNL     1       2.253   5.086  18.579  0.00  0.00    +0.000 A 
ATOM     15  C   UNL     1       2.526   6.410  18.208  0.00  0.00    +0.000 A 
ATOM     16  C   UNL     1       2.275   7.465  19.088  0.00  0.00    +0.000 A 
ATOM     17  C   UNL     1       1.736   7.207  20.343  0.00  0.00    +0.000 A 
ATOM     18 CL   UNL     1       1.437   8.512  21.424  0.00  0.00    +0.000 Cl
ATOM     19  C   UNL     1       1.434   5.904  20.725  0.00  0.00    +0.000 A 
ATOM     20  C   UNL     1       1.689   4.846  19.843  0.00  0.00    +0.000 A 
ATOM     21 CL   UNL     1       1.308   3.245  20.373  0.00  0.00    +0.000 Cl
ENDBRANCH  13  14
ENDBRANCH  12  13
ENDBRANCH   2  12
TORSDOF 3
ENDMDL
MODEL 6
REMARK VINA RESULT:      -6.9      1.781      5.677
REMARK  Name = 
REMARK  3 active torsions:
REMARK  status: ('A' for Active; 'I' for Inactive)
REMARK    1  A    between atoms: C_2  and  C_3
REMARK    2  A    between atoms: C_3  and  O_4
REMARK    3  A    between atoms: O_4  and  C_5
REMARK                            x       y       z     vdW  Elec       q    Type
REMARK                         _______ _______ _______ _____ _____    ______ ____
ROOT
ATOM      1  O   UNL     1       8.148   6.525  18.676  0.00  0.00    +0.000 OA
ATOM      2  C   UNL     1       7.231   5.800  18.273  0.00  0.00    +0.000 C 
ATOM      3  N   UNL     1       5.998   5.958  18.837  0.00  0.00    +0.000 N 
ATOM      4  C   UNL     1       4.876   5.146  18.705  0.00  0.00    +0.000 A 
ATOM      5  C   UNL     1       3.664   5.622  19.198  0.00  0.00    +0.000 A 
ATOM      6  C   UNL     1       2.529   4.811  19.110  0.00  0.00    +0.000 A 
ATOM      7  C   UNL     1       2.648   3.539  18.567  0.00  0.00    +0.000 A 
ATOM      8 CL   UNL     1       1.290   2.498  18.464  0.00  0.00    +0.000 Cl
ATOM      9  C   UNL     1       3.892   3.142  18.111  0.00  0.00    +0.000 A 
ATOM     10  N   UNL     1       4.995   3.928  18.152  0.00  0.00    +0.000 NA
ATOM     11  H   UNL     1       5.951   6.733  19.484  0.00  0.00    +0.000 HD
ENDROOT
BRANCH   2  12
ATOM     12  C   UNL     1       7.437   4.870  17.073  0.00  0.00    +0.000 C 
BRANCH  12  13
ATOM     13  O   UNL     1       7.476   5.522  15.813  0.00  0.00    +0.000 OA
BRANCH  13  14
ATOM     14  C   UNL     1       6.861   4.844  14.786  0.00  0.00    +0.000 A 
ATOM     15  C   UNL     1       5.679   4.107  14.947  0.00  0.00    +0.000 A 
ATOM     16  C   UNL     1       5.099   3.441  13.865  0.00  0.00    +0.000 A 
ATOM     17  C   UNL     1       5.689   3.517  12.608  0.00  0.00    +0.000 A 
ATOM     18 CL   UNL     1       4.972   2.687  11.282  0.00  0.00    +0.000 Cl
ATOM     19  C   UNL     1       6.848   4.262  12.419  0.00  0.00    +0.000 A 
ATOM     20  C   UNL     1       7.431   4.927  13.505  0.00  0.00    +0.000 A 
ATOM     21 CL   UNL     1       8.878   5.827  13.217  0.00  0.00    +0.000 Cl
ENDBRANCH  13  14
ENDBRANCH  12  13
ENDBRANCH   2  12
TORSDOF 3
ENDMDL
MODEL 7
REMARK VINA RESULT:      -6.9      3.791      7.066
REMARK  Name = 
REMARK  3 active torsions:
REMARK  status: ('A' for Active; 'I' for Inactive)
REMARK    1  A    between atoms: C_2  and  C_3
REMARK    2  A    between atoms: C_3  and  O_4
REMARK    3  A    between atoms: O_4  and  C_5
REMARK                            x       y       z     vdW  Elec       q    Type
REMARK                         _______ _______ _______ _____ _____    ______ ____
ROOT
ATOM      1  O   UNL     1       2.919   4.023  20.569  0.00  0.00    +0.000 OA
ATOM      2  C   UNL     1       2.939   5.177  20.121  0.00  0.00    +0.000 C 
ATOM      3  N   UNL     1       2.112   6.097  20.696  0.00  0.00    +0.000 N 
ATOM      4  C   UNL     1       1.805   7.380  20.252  0.00  0.00    +0.000 A 
ATOM      5  C   UNL     1       1.106   8.219  21.115  0.00  0.00    +0.000 A 
ATOM      6  C   UNL     1       0.754   9.500  20.682  0.00  0.00    +0.000 A 
ATOM      7  C   UNL     1       1.080   9.889  19.389  0.00  0.00    +0.000 A 
ATOM      8 CL   UNL     1       0.646  11.440  18.802  0.00  0.00    +0.000 Cl
ATOM      9  C   UNL     1       1.767   8.988  18.595  0.00  0.00    +0.000 A 
ATOM     10  N   UNL     1       2.150   7.757  19.010  0.00  0.00    +0.000 NA
ATOM     11  H   UNL     1       1.619   5.743  21.504  0.00  0.00    +0.000 HD
ENDROOT
BRANCH   2  12
ATOM     12  C   UNL     1       3.971   5.590  19.068  0.00  0.00    +0.000 C 
BRANCH  12  13
ATOM     13  O   UNL     1       4.966   4.617  18.792  0.00  0.00    +0.000 OA
BRANCH  13  14
ATOM     14  C   UNL     1       5.474   4.647  17.514  0.00  0.00    +0.000 A 
ATOM     15  C   UNL     1       4.768   4.193  16.392  0.00  0.00    +0.000 A 
ATOM     16  C   UNL     1       5.337   4.251  15.117  0.00  0.00    +0.000 A 
ATOM     17  C   UNL     1       6.613   4.777  14.952  0.00  0.00    +0.000 A 
ATOM     18 CL   UNL     1       7.309   4.838  13.379  0.00  0.00    +0.000 Cl
ATOM     19  C   UNL     1       7.324   5.256  16.047  0.00  0.00    +0.000 A 
ATOM     20  C   UNL     1       6.754   5.194  17.325  0.00  0.00    +0.000 A 
ATOM     21 CL   UNL     1       7.687   5.791  18.653  0.00  0.00    +0.000 Cl
ENDBRANCH  13  14
ENDBRANCH  12  13
ENDBRANCH   2  12
TORSDOF 3
ENDMDL
MODEL 8
REMARK VINA RESULT:      -6.8      3.273      6.463
REMARK  Name = 
REMARK  3 active torsions:
REMARK  status: ('A' for Active; 'I' for Inactive)
REMARK    1  A    between atoms: C_2  and  C_3
REMARK    2  A    between atoms: C_3  and  O_4
REMARK    3  A    between atoms: O_4  and  C_5
REMARK                            x       y       z     vdW  Elec       q    Type
REMARK                         _______ _______ _______ _____ _____    ______ ____
ROOT
ATOM      1  O   UNL     1       2.321   2.635  21.370  0.00  0.00    +0.000 OA
ATOM      2  C   UNL     1       2.562   3.577  20.604  0.00  0.00    +0.000 C 
ATOM      3  N   UNL     1       2.140   4.821  20.973  0.00  0.00    +0.000 N 
ATOM      4  C   UNL     1       2.109   5.985  20.210  0.00  0.00    +0.000 A 
ATOM      5  C   UNL     1       1.843   7.186  20.862  0.00  0.00    +0.000 A 
ATOM      6  C   UNL     1       1.771   8.365  20.114  0.00  0.00    +0.000 A 
ATOM      7  C   UNL     1       1.930   8.301  18.736  0.00  0.00    +0.000 A 
ATOM      8 CL   UNL     1       1.822   9.714  17.773  0.00  0.00    +0.000 Cl
ATOM      9  C   UNL     1       2.181   7.064  18.169  0.00  0.00    +0.000 A 
ATOM     10  N   UNL     1       2.293   5.917  18.881  0.00  0.00    +0.000 NA
ATOM     11  H   UNL     1       1.738   4.850  21.900  0.00  0.00    +0.000 HD
ENDROOT
BRANCH   2  12
ATOM     12  C   UNL     1       3.440   3.375  19.366  0.00  0.00    +0.000 C 
BRANCH  12  13
ATOM     13  O   UNL     1       4.695   4.037  19.410  0.00  0.00    +0.000 OA
BRANCH  13  14
ATOM     14  C   UNL     1       5.289   4.243  18.186  0.00  0.00    +0.000 A 
ATOM     15  C   UNL     1       4.736   3.802  16.976  0.00  0.00    +0.000 A 
ATOM     16  C   UNL     1       5.387   4.042  15.763  0.00  0.00    +0.000 A 
ATOM     17  C   UNL     1       6.591   4.738  15.749  0.00  0.00    +0.000 A 
ATOM     18 CL   UNL     1       7.388   5.022  14.251  0.00  0.00    +0.000 Cl
ATOM     19  C   UNL     1       7.147   5.206  16.935  0.00  0.00    +0.000 A 
ATOM     20  C   UNL     1       6.495   4.962  18.150  0.00  0.00    +0.000 A 
ATOM     21 CL   UNL     1       7.237   5.554  19.595  0.00  0.00    +0.000 Cl
ENDBRANCH  13  14
ENDBRANCH  12  13
ENDBRANCH   2  12
TORSDOF 3
ENDMDL
MODEL 9
REMARK VINA RESULT:      -6.7      4.549      7.626
REMARK  Name = 
REMARK  3 active torsions:
REMARK  status: ('A' for Active; 'I' for Inactive)
REMARK    1  A    between atoms: C_2  and  C_3
REMARK    2  A    between atoms: C_3  and  O_4
REMARK    3  A    between atoms: O_4  and  C_5
REMARK                            x       y       z     vdW  Elec       q    Type
REMARK                         _______ _______ _______ _____ _____    ______ ____
ROOT
ATOM      1  O   UNL     1       2.048   4.823  20.705  0.00  0.00    +0.000 OA
ATOM      2  C   UNL     1       2.070   5.995  20.307  0.00  0.00    +0.000 C 
ATOM      3  N   UNL     1       1.579   6.959  21.138  0.00  0.00    +0.000 N 
ATOM      4  C   UNL     1       1.310   8.294  20.850  0.00  0.00    +0.000 A 
ATOM      5  C   UNL     1       1.020   9.146  21.912  0.00  0.00    +0.000 A 
ATOM      6  C   UNL     1       0.711  10.483  21.648  0.00  0.00    +0.000 A 
ATOM      7  C   UNL     1       0.667  10.917  20.330  0.00  0.00    +0.000 A 
ATOM      8 CL   UNL     1       0.267  12.541  19.953  0.00  0.00    +0.000 Cl
ATOM      9  C   UNL     1       0.959  10.001  19.335  0.00  0.00    +0.000 A 
ATOM     10  N   UNL     1       1.298   8.712  19.573  0.00  0.00    +0.000 NA
ATOM     11  H   UNL     1       1.320   6.608  22.050  0.00  0.00    +0.000 HD
ENDROOT
BRANCH   2  12
ATOM     12  C   UNL     1       2.769   6.363  18.995  0.00  0.00    +0.000 C 
BRANCH  12  13
ATOM     13  O   UNL     1       4.147   6.030  18.939  0.00  0.00    +0.000 OA
BRANCH  13  14
ATOM     14  C   UNL     1       4.592   5.589  17.714  0.00  0.00    +0.000 A 
ATOM     15  C   UNL     1       4.922   6.450  16.657  0.00  0.00    +0.000 A 
ATOM     16  C   UNL     1       5.371   5.943  15.436  0.00  0.00    +0.000 A 
ATOM     17  C   UNL     1       5.506   4.570  15.264  0.00  0.00    +0.000 A 
ATOM     18 CL   UNL     1       6.052   3.954  13.753  0.00  0.00    +0.000 Cl
ATOM     19  C   UNL     1       5.208   3.697  16.305  0.00  0.00    +0.000 A 
ATOM     20  C   UNL     1       4.755   4.207  17.528  0.00  0.00    +0.000 A 
ATOM     21 CL   UNL     1       4.386   3.077  18.784  0.00  0.00    +0.000 Cl
ENDBRANCH  13  14
ENDBRANCH  12  13
ENDBRANCH   2  12
TORSDOF 3
ENDMDL
