MODEL 1
REMARK VINA RESULT:      -8.0      0.000      0.000
REMARK  Name = 
REMARK  1 active torsions:
REMARK  status: ('A' for Active; 'I' for Inactive)
REMARK    1  A    between atoms: C_1  and  N_2
REMARK                            x       y       z     vdW  Elec       q    Type
REMARK                         _______ _______ _______ _____ _____    ______ ____
ROOT
ATOM      1  C   UNL     1       0.941   3.238  20.329  0.00  0.00    +0.000 C 
ATOM      2  N   UNL     1       2.279   3.582  20.809  0.00  0.00    +0.000 NA
ATOM      3  C   UNL     1       3.226   2.469  20.676  0.00  0.00    +0.000 C 
ATOM      4  C   UNL     1       3.710   2.215  19.246  0.00  0.00    +0.000 C 
ATOM      5  C   UNL     1       4.254   3.494  18.590  0.00  0.00    +0.000 C 
ATOM      6  C   UNL     1       3.225   4.632  18.747  0.00  0.00    +0.000 C 
ATOM      7  C   UNL     1       2.789   4.810  20.195  0.00  0.00    +0.000 C 
ATOM      8  N   UNL     1       4.525   3.255  17.187  0.00  0.00    +0.000 N 
ATOM      9  C   UNL     1       5.241   4.153  16.434  0.00  0.00    +0.000 C 
ATOM     10  O   UNL     1       5.140   4.192  15.215  0.00  0.00    +0.000 OA
ATOM     11  C   UNL     1       6.135   5.061  17.185  0.00  0.00    +0.000 A 
ATOM     12  C   UNL     1       6.824   6.094  16.546  0.00  0.00    +0.000 A 
ATOM     13  C   UNL     1       7.678   6.908  17.288  0.00  0.00    +0.000 A 
ATOM     14  C   UNL     1       7.863   6.665  18.649  0.00  0.00    +0.000 A 
ATOM     15  C   UNL     1       7.169   5.631  19.282  0.00  0.00    +0.000 A 
ATOM     16  C   UNL     1       6.257   4.853  18.566  0.00  0.00    +0.000 A 
ATOM     17  N   UNL     1       5.543   3.826  19.204  0.00  0.00    +0.000 N 
ATOM     18  H   UNL     1       3.855   2.726  16.645  0.00  0.00    +0.000 HD
ATOM     19  H   UNL     1       5.497   3.960  20.209  0.00  0.00    +0.000 HD
ENDROOT
TORSDOF 0
ENDMDL
MODEL 2
REMARK VINA RESULT:      -7.8      2.070      5.394
REMARK  Name = 
REMARK  1 active torsions:
REMARK  status: ('A' for Active; 'I' for Inactive)
REMARK    1  A    between atoms: C_1  and  N_2
REMARK                            x       y       z     vdW  Elec       q    Type
REMARK                         _______ _______ _______ _____ _____    ______ ____
ROOT
ATOM      1  C   UNL     1       6.853   6.932  16.999  0.00  0.00    +0.000 C 
ATOM      2  N   UNL     1       5.443   6.580  16.841  0.00  0.00    +0.000 NA
ATOM      3  C   UNL     1       5.256   5.341  16.077  0.00  0.00    +0.000 C 
ATOM      4  C   UNL     1       5.578   4.062  16.855  0.00  0.00    +0.000 C 
ATOM      5  C   UNL     1       4.837   4.007  18.200  0.00  0.00    +0.000 C 
ATOM      6  C   UNL     1       5.067   5.324  18.969  0.00  0.00    +0.000 C 
ATOM      7  C   UNL     1       4.733   6.545  18.122  0.00  0.00    +0.000 C 
ATOM      8  N   UNL     1       5.309   2.883  18.982  0.00  0.00    +0.000 N 
ATOM      9  C   UNL     1       4.644   2.467  20.109  0.00  0.00    +0.000 C 
ATOM     10  O   UNL     1       5.208   1.825  20.986  0.00  0.00    +0.000 OA
ATOM     11  C   UNL     1       3.217   2.841  20.195  0.00  0.00    +0.000 A 
ATOM     12  C   UNL     1       2.465   2.580  21.343  0.00  0.00    +0.000 A 
ATOM     13  C   UNL     1       1.115   2.924  21.370  0.00  0.00    +0.000 A 
ATOM     14  C   UNL     1       0.519   3.494  20.244  0.00  0.00    +0.000 A 
ATOM     15  C   UNL     1       1.277   3.754  19.100  0.00  0.00    +0.000 A 
ATOM     16  C   UNL     1       2.647   3.479  19.085  0.00  0.00    +0.000 A 
ATOM     17  N   UNL     1       3.415   3.758  17.944  0.00  0.00    +0.000 N 
ATOM     18  H   UNL     1       6.301   2.694  19.012  0.00  0.00    +0.000 HD
ATOM     19  H   UNL     1       2.978   4.454  17.349  0.00  0.00    +0.000 HD
ENDROOT
TORSDOF 0
ENDMDL
MODEL 3
REMARK VINA RESULT:      -7.8      1.048      1.153
REMARK  Name = 
REMARK  1 active torsions:
REMARK  status: ('A' for Active; 'I' for Inactive)
REMARK    1  A    between atoms: C_1  and  N_2
REMARK                            x       y       z     vdW  Elec       q    Type
REMARK                         _______ _______ _______ _____ _____    ______ ____
ROOT
ATOM      1  C   UNL     1       1.122   3.149  19.376  0.00  0.00    +0.000 C 
ATOM      2  N   UNL     1       2.494   3.144  19.881  0.00  0.00    +0.000 NA
ATOM      3  C   UNL     1       3.353   2.197  19.160  0.00  0.00    +0.000 C 
ATOM      4  C   UNL     1       3.776   2.659  17.764  0.00  0.00    +0.000 C 
ATOM      5  C   UNL     1       4.394   4.066  17.788  0.00  0.00    +0.000 C 
ATOM      6  C   UNL     1       3.456   5.027  18.547  0.00  0.00    +0.000 C 
ATOM      7  C   UNL     1       3.076   4.488  19.920  0.00  0.00    +0.000 C 
ATOM      8  N   UNL     1       4.606   4.540  16.436  0.00  0.00    +0.000 N 
ATOM      9  C   UNL     1       5.365   5.655  16.180  0.00  0.00    +0.000 C 
ATOM     10  O   UNL     1       5.232   6.297  15.146  0.00  0.00    +0.000 OA
ATOM     11  C   UNL     1       6.344   6.026  17.224  0.00  0.00    +0.000 A 
ATOM     12  C   UNL     1       7.089   7.205  17.134  0.00  0.00    +0.000 A 
ATOM     13  C   UNL     1       8.021   7.502  18.126  0.00  0.00    +0.000 A 
ATOM     14  C   UNL     1       8.227   6.608  19.178  0.00  0.00    +0.000 A 
ATOM     15  C   UNL     1       7.477   5.433  19.262  0.00  0.00    +0.000 A 
ATOM     16  C   UNL     1       6.490   5.157  18.313  0.00  0.00    +0.000 A 
ATOM     17  N   UNL     1       5.720   3.987  18.406  0.00  0.00    +0.000 N 
ATOM     18  H   UNL     1       3.884   4.381  15.746  0.00  0.00    +0.000 HD
ATOM     19  H   UNL     1       5.713   3.608  19.348  0.00  0.00    +0.000 HD
ENDROOT
TORSDOF 0
ENDMDL
MODEL 4
REMARK VINA RESULT:      -7.7      1.862      2.952
REMARK  Name = 
REMARK  1 active torsions:
REMARK  status: ('A' for Active; 'I' for Inactive)
REMARK    1  A    between atoms: C_1  and  N_2
REMARK                            x       y       z     vdW  Elec       q    Type
REMARK                         _______ _______ _______ _____ _____    ______ ____
ROOT
ATOM      1  C   UNL     1       1.407   2.473  21.317  0.00  0.00    +0.000 C 
ATOM      2  N   UNL     1       1.457   2.800  19.893  0.00  0.00    +0.000 NA
ATOM      3  C   UNL     1       1.239   4.229  19.637  0.00  0.00    +0.000 C 
ATOM      4  C   UNL     1       2.435   5.123  19.975  0.00  0.00    +0.000 C 
ATOM      5  C   UNL     1       3.728   4.627  19.308  0.00  0.00    +0.000 C 
ATOM      6  C   UNL     1       3.920   3.127  19.609  0.00  0.00    +0.000 C 
ATOM      7  C   UNL     1       2.682   2.312  19.255  0.00  0.00    +0.000 C 
ATOM      8  N   UNL     1       4.862   5.384  19.799  0.00  0.00    +0.000 N 
ATOM      9  C   UNL     1       6.089   5.308  19.188  0.00  0.00    +0.000 C 
ATOM     10  O   UNL     1       7.121   5.588  19.787  0.00  0.00    +0.000 OA
ATOM     11  C   UNL     1       6.086   4.871  17.776  0.00  0.00    +0.000 A 
ATOM     12  C   UNL     1       7.277   4.640  17.085  0.00  0.00    +0.000 A 
ATOM     13  C   UNL     1       7.227   4.257  15.745  0.00  0.00    +0.000 A 
ATOM     14  C   UNL     1       5.995   4.139  15.100  0.00  0.00    +0.000 A 
ATOM     15  C   UNL     1       4.808   4.369  15.799  0.00  0.00    +0.000 A 
ATOM     16  C   UNL     1       4.841   4.685  17.160  0.00  0.00    +0.000 A 
ATOM     17  N   UNL     1       3.649   4.897  17.870  0.00  0.00    +0.000 N 
ATOM     18  H   UNL     1       4.919   5.588  20.787  0.00  0.00    +0.000 HD
ATOM     19  H   UNL     1       2.851   4.465  17.414  0.00  0.00    +0.000 HD
ENDROOT
TORSDOF 0
ENDMDL
MODEL 5
REMARK VINA RESULT:      -7.5      2.052      2.708
REMARK  Name = 
REMARK  1 active torsions:
REMARK  status: ('A' for Active; 'I' for Inactive)
REMARK    1  A    between atoms: C_1  and  N_2
REMARK                            x       y       z     vdW  Elec       q    Type
REMARK                         _______ _______ _______ _____ _____    ______ ____
ROOT
ATOM      1  C   UNL     1       1.371   2.686  21.453  0.00  0.00    +0.000 C 
ATOM      2  N   UNL     1       2.110   2.226  20.279  0.00  0.00    +0.000 NA
ATOM      3  C   UNL     1       1.336   2.361  19.040  0.00  0.00    +0.000 C 
ATOM      4  C   UNL     1       1.223   3.794  18.515  0.00  0.00    +0.000 C 
ATOM      5  C   UNL     1       2.598   4.469  18.391  0.00  0.00    +0.000 C 
ATOM      6  C   UNL     1       3.372   4.309  19.715  0.00  0.00    +0.000 C 
ATOM      7  C   UNL     1       3.428   2.857  20.171  0.00  0.00    +0.000 C 
ATOM      8  N   UNL     1       2.435   5.874  18.074  0.00  0.00    +0.000 N 
ATOM      9  C   UNL     1       3.499   6.643  17.670  0.00  0.00    +0.000 C 
ATOM     10  O   UNL     1       3.490   7.861  17.790  0.00  0.00    +0.000 OA
ATOM     11  C   UNL     1       4.644   5.911  17.087  0.00  0.00    +0.000 A 
ATOM     12  C   UNL     1       5.829   6.569  16.750  0.00  0.00    +0.000 A 
ATOM     13  C   UNL     1       6.873   5.845  16.176  0.00  0.00    +0.000 A 
ATOM     14  C   UNL     1       6.714   4.484  15.913  0.00  0.00    +0.000 A 
ATOM     15  C   UNL     1       5.527   3.833  16.255  0.00  0.00    +0.000 A 
ATOM     16  C   UNL     1       4.500   4.531  16.895  0.00  0.00    +0.000 A 
ATOM     17  N   UNL     1       3.313   3.875  17.258  0.00  0.00    +0.000 N 
ATOM     18  H   UNL     1       1.721   6.402  18.556  0.00  0.00    +0.000 HD
ATOM     19  H   UNL     1       3.438   2.871  17.333  0.00  0.00    +0.000 HD
ENDROOT
TORSDOF 0
ENDMDL
MODEL 6
REMARK VINA RESULT:      -7.4      2.016      5.290
REMARK  Name = 
REMARK  1 active torsions:
REMARK  status: ('A' for Active; 'I' for Inactive)
REMARK    1  A    between atoms: C_1  and  N_2
REMARK                            x       y       z     vdW  Elec       q    Type
REMARK                         _______ _______ _______ _____ _____    ______ ____
ROOT
ATOM      1  C   UNL     1       6.790   5.001  14.852  0.00  0.00    +0.000 C 
ATOM      2  N   UNL     1       6.646   4.086  15.983  0.00  0.00    +0.000 NA
ATOM      3  C   UNL     1       7.277   4.599  17.205  0.00  0.00    +0.000 C 
ATOM      4  C   UNL     1       6.497   5.719  17.899  0.00  0.00    +0.000 C 
ATOM      5  C   UNL     1       5.032   5.328  18.149  0.00  0.00    +0.000 C 
ATOM      6  C   UNL     1       4.409   4.802  16.840  0.00  0.00    +0.000 C 
ATOM      7  C   UNL     1       5.251   3.700  16.210  0.00  0.00    +0.000 C 
ATOM      8  N   UNL     1       4.288   6.473  18.632  0.00  0.00    +0.000 N 
ATOM      9  C   UNL     1       3.028   6.334  19.160  0.00  0.00    +0.000 C 
ATOM     10  O   UNL     1       2.240   7.271  19.192  0.00  0.00    +0.000 OA
ATOM     11  C   UNL     1       2.687   4.994  19.684  0.00  0.00    +0.000 A 
ATOM     12  C   UNL     1       1.400   4.697  20.137  0.00  0.00    +0.000 A 
ATOM     13  C   UNL     1       1.130   3.429  20.649  0.00  0.00    +0.000 A 
ATOM     14  C   UNL     1       2.152   2.482  20.736  0.00  0.00    +0.000 A 
ATOM     15  C   UNL     1       3.436   2.786  20.280  0.00  0.00    +0.000 A 
ATOM     16  C   UNL     1       3.703   4.028  19.699  0.00  0.00    +0.000 A 
ATOM     17  N   UNL     1       4.988   4.329  19.221  0.00  0.00    +0.000 N 
ATOM     18  H   UNL     1       4.441   7.372  18.197  0.00  0.00    +0.000 HD
ATOM     19  H   UNL     1       5.529   3.493  19.026  0.00  0.00    +0.000 HD
ENDROOT
TORSDOF 0
ENDMDL
MODEL 7
REMARK VINA RESULT:      -7.1      1.899      5.278
REMARK  Name = 
REMARK  1 active torsions:
REMARK  status: ('A' for Active; 'I' for Inactive)
REMARK    1  A    between atoms: C_1  and  N_2
REMARK                            x       y       z     vdW  Elec       q    Type
REMARK                         _______ _______ _______ _____ _____    ______ ____
ROOT
ATOM      1  C   UNL     1       7.489   6.281  16.892  0.00  0.00    +0.000 C 
ATOM      2  N   UNL     1       6.104   6.635  17.198  0.00  0.00    +0.000 NA
ATOM      3  C   UNL     1       5.178   6.262  16.122  0.00  0.00    +0.000 C 
ATOM      4  C   UNL     1       4.870   4.765  16.041  0.00  0.00    +0.000 C 
ATOM      5  C   UNL     1       4.410   4.200  17.395  0.00  0.00    +0.000 C 
ATOM      6  C   UNL     1       5.413   4.610  18.492  0.00  0.00    +0.000 C 
ATOM      7  C   UNL     1       5.672   6.111  18.496  0.00  0.00    +0.000 C 
ATOM      8  N   UNL     1       4.310   2.757  17.323  0.00  0.00    +0.000 N 
ATOM      9  C   UNL     1       3.690   2.033  18.311  0.00  0.00    +0.000 C 
ATOM     10  O   UNL     1       3.938   0.847  18.489  0.00  0.00    +0.000 OA
ATOM     11  C   UNL     1       2.713   2.772  19.140  0.00  0.00    +0.000 A 
ATOM     12  C   UNL     1       2.107   2.179  20.249  0.00  0.00    +0.000 A 
ATOM     13  C   UNL     1       1.170   2.903  20.985  0.00  0.00    +0.000 A 
ATOM     14  C   UNL     1       0.822   4.195  20.590  0.00  0.00    +0.000 A 
ATOM     15  C   UNL     1       1.434   4.782  19.480  0.00  0.00    +0.000 A 
ATOM     16  C   UNL     1       2.426   4.095  18.776  0.00  0.00    +0.000 A 
ATOM     17  N   UNL     1       3.057   4.690  17.673  0.00  0.00    +0.000 N 
ATOM     18  H   UNL     1       5.039   2.242  16.849  0.00  0.00    +0.000 HD
ATOM     19  H   UNL     1       2.982   5.702  17.689  0.00  0.00    +0.000 HD
ENDROOT
TORSDOF 0
ENDMDL
MODEL 8
REMARK VINA RESULT:      -7.0      2.122      5.445
REMARK  Name = 
REMARK  1 active torsions:
REMARK  status: ('A' for Active; 'I' for Inactive)
REMARK    1  A    between atoms: C_1  and  N_2
REMARK                            x       y       z     vdW  Elec       q    Type
REMARK                         _______ _______ _______ _____ _____    ______ ____
ROOT
ATOM      1  C   UNL     1       7.440   6.592  16.418  0.00  0.00    +0.000 C 
ATOM      2  N   UNL     1       7.093   5.205  16.719  0.00  0.00    +0.000 NA
ATOM      3  C   UNL     1       7.441   4.824  18.093  0.00  0.00    +0.000 C 
ATOM      4  C   UNL     1       6.501   5.383  19.163  0.00  0.00    +0.000 C 
ATOM      5  C   UNL     1       5.028   5.070  18.853  0.00  0.00    +0.000 C 
ATOM      6  C   UNL     1       4.706   5.491  17.405  0.00  0.00    +0.000 C 
ATOM      7  C   UNL     1       5.694   4.902  16.407  0.00  0.00    +0.000 C 
ATOM      8  N   UNL     1       4.165   5.771  19.781  0.00  0.00    +0.000 N 
ATOM      9  C   UNL     1       2.828   5.474  19.877  0.00  0.00    +0.000 C 
ATOM     10  O   UNL     1       2.022   6.282  20.321  0.00  0.00    +0.000 OA
ATOM     11  C   UNL     1       2.428   4.128  19.415  0.00  0.00    +0.000 A 
ATOM     12  C   UNL     1       1.085   3.751  19.352  0.00  0.00    +0.000 A 
ATOM     13  C   UNL     1       0.755   2.462  18.937  0.00  0.00    +0.000 A 
ATOM     14  C   UNL     1       1.765   1.552  18.622  0.00  0.00    +0.000 A 
ATOM     15  C   UNL     1       3.106   1.936  18.686  0.00  0.00    +0.000 A 
ATOM     16  C   UNL     1       3.448   3.246  19.032  0.00  0.00    +0.000 A 
ATOM     17  N   UNL     1       4.794   3.641  19.077  0.00  0.00    +0.000 N 
ATOM     18  H   UNL     1       4.377   6.732  20.013  0.00  0.00    +0.000 HD
ATOM     19  H   UNL     1       5.390   3.035  18.522  0.00  0.00    +0.000 HD
ENDROOT
TORSDOF 0
ENDMDL
MODEL 9
REMARK VINA RESULT:      -6.8      2.937      5.248
REMARK  Name = 
REMARK  1 active torsions:
REMARK  status: ('A' for Active; 'I' for Inactive)
REMARK    1  A    between atoms: C_1  and  N_2
REMARK                            x       y       z     vdW  Elec       q    Type
REMARK                         _______ _______ _______ _____ _____    ______ ____
ROOT
ATOM      1  C   UNL     1       7.728   4.389  17.433  0.00  0.00    +0.000 C 
ATOM      2  N   UNL     1       6.746   5.330  16.896  0.00  0.00    +0.000 NA
ATOM      3  C   UNL     1       5.605   4.653  16.267  0.00  0.00    +0.000 C 
ATOM      4  C   UNL     1       4.608   4.040  17.254  0.00  0.00    +0.000 C 
ATOM      5  C   UNL     1       4.142   5.060  18.305  0.00  0.00    +0.000 C 
ATOM      6  C   UNL     1       5.370   5.740  18.943  0.00  0.00    +0.000 C 
ATOM      7  C   UNL     1       6.315   6.312  17.894  0.00  0.00    +0.000 C 
ATOM      8  N   UNL     1       3.353   4.398  19.323  0.00  0.00    +0.000 N 
ATOM      9  C   UNL     1       2.617   5.114  20.235  0.00  0.00    +0.000 C 
ATOM     10  O   UNL     1       2.289   4.634  21.313  0.00  0.00    +0.000 OA
ATOM     11  C   UNL     1       2.251   6.490  19.836  0.00  0.00    +0.000 A 
ATOM     12  C   UNL     1       1.608   7.356  20.723  0.00  0.00    +0.000 A 
ATOM     13  C   UNL     1       1.256   8.635  20.296  0.00  0.00    +0.000 A 
ATOM     14  C   UNL     1       1.516   9.026  18.981  0.00  0.00    +0.000 A 
ATOM     15  C   UNL     1       2.161   8.155  18.101  0.00  0.00    +0.000 A 
ATOM     16  C   UNL     1       2.583   6.897  18.537  0.00  0.00    +0.000 A 
ATOM     17  N   UNL     1       3.249   6.026  17.660  0.00  0.00    +0.000 N 
ATOM     18  H   UNL     1       3.665   3.504  19.677  0.00  0.00    +0.000 HD
ATOM     19  H   UNL     1       3.672   6.519  16.880  0.00  0.00    +0.000 HD
ENDROOT
TORSDOF 0
ENDMDL
