MODEL 1
REMARK VINA RESULT:      -8.0      0.000      0.000
REMARK  Name = 
REMARK  8 active torsions:
REMARK  status: ('A' for Active; 'I' for Inactive)
REMARK    1  A    between atoms: C_1  and  C_2
REMARK    2  A    between atoms: C_2  and  C_3
REMARK    3  A    between atoms: C_3  and  C_4
REMARK    4  A    between atoms: C_5  and  C_6
REMARK    5  A    between atoms: C_8  and  C_9
REMARK    6  A    between atoms: C_14  and  C_15
REMARK    7  A    between atoms: C_15  and  O_16
REMARK    8  A    between atoms: C_23  and  O_24
REMARK                            x       y       z     vdW  Elec       q    Type
REMARK                         _______ _______ _______ _____ _____    ______ ____
ROOT
ATOM      1  C   UNL     1       4.219   4.664  17.586  0.00  0.00    +0.000 A 
ATOM      2  C   UNL     1       3.616   5.926  17.736  0.00  0.00    +0.000 A 
ATOM      3  C   UNL     1       2.853   6.277  18.866  0.00  0.00    +0.000 A 
ATOM      4  C   UNL     1       2.750   5.316  19.887  0.00  0.00    +0.000 A 
ATOM      5  C   UNL     1       3.391   4.079  19.793  0.00  0.00    +0.000 A 
ATOM      6  C   UNL     1       4.124   3.759  18.649  0.00  0.00    +0.000 A 
ENDROOT
BRANCH   3   7
ATOM      7  C   UNL     1       2.201   7.604  18.965  0.00  0.00    +0.000 A 
ATOM      8  C   UNL     1       2.132   8.471  17.865  0.00  0.00    +0.000 A 
ATOM      9  C   UNL     1       1.504   9.718  17.954  0.00  0.00    +0.000 A 
ATOM     10  C   UNL     1       0.903  10.133  19.148  0.00  0.00    +0.000 A 
ATOM     11  C   UNL     1       0.243  11.369  19.245  0.00  0.00    +0.000 A 
ATOM     12  C   UNL     1      -0.379  11.769  20.437  0.00  0.00    +0.000 A 
ATOM     13  C   UNL     1      -0.326  10.920  21.547  0.00  0.00    +0.000 A 
ATOM     14  C   UNL     1       0.335   9.692  21.464  0.00  0.00    +0.000 A 
ATOM     15  C   UNL     1       0.951   9.284  20.271  0.00  0.00    +0.000 A 
ATOM     16  C   UNL     1       1.606   8.042  20.167  0.00  0.00    +0.000 A 
BRANCH  12  17
ATOM     17  C   UNL     1      -1.120  13.077  20.497  0.00  0.00    +0.000 C 
BRANCH  17  18
ATOM     18  O   UNL     1      -1.894  13.267  19.322  0.00  0.00    +0.000 OA
ATOM     19  H   UNL     1      -2.802  12.988  19.536  0.00  0.00    +0.000 HD
ENDBRANCH  17  18
ENDBRANCH  12  17
ENDBRANCH   3   7
BRANCH   1  21
ATOM     20  C   UNL     1       5.777   5.198  15.724  0.00  0.00    +0.000 C 
ATOM     21  C   UNL     1       4.964   4.335  16.355  0.00  0.00    +0.000 C 
BRANCH  20  22
ATOM     22  C   UNL     1       6.535   4.891  14.467  0.00  0.00    +0.000 C 
BRANCH  22  24
ATOM     23  C   UNL     1       6.466   3.601  12.307  0.00  0.00    +0.000 C 
ATOM     24  C   UNL     1       5.889   3.730  13.708  0.00  0.00    +0.000 C 
ENDBRANCH  22  24
ENDBRANCH  20  22
ENDBRANCH   1  21
BRANCH   6  25
ATOM     25  O   UNL     1       4.747   2.544  18.567  0.00  0.00    +0.000 OA
ATOM     26  H   UNL     1       5.077   2.299  19.446  0.00  0.00    +0.000 HD
ENDBRANCH   6  25
TORSDOF 7
ENDMDL
MODEL 2
REMARK VINA RESULT:      -8.0      1.132      1.207
REMARK  Name = 
REMARK  8 active torsions:
REMARK  status: ('A' for Active; 'I' for Inactive)
REMARK    1  A    between atoms: C_1  and  C_2
REMARK    2  A    between atoms: C_2  and  C_3
REMARK    3  A    between atoms: C_3  and  C_4
REMARK    4  A    between atoms: C_5  and  C_6
REMARK    5  A    between atoms: C_8  and  C_9
REMARK    6  A    between atoms: C_14  and  C_15
REMARK    7  A    between atoms: C_15  and  O_16
REMARK    8  A    between atoms: C_23  and  O_24
REMARK                            x       y       z     vdW  Elec       q    Type
REMARK                         _______ _______ _______ _____ _____    ______ ____
ROOT
ATOM      1  C   UNL     1       3.944   4.577  17.855  0.00  0.00    +0.000 A 
ATOM      2  C   UNL     1       3.369   5.818  18.187  0.00  0.00    +0.000 A 
ATOM      3  C   UNL     1       2.651   6.029  19.379  0.00  0.00    +0.000 A 
ATOM      4  C   UNL     1       2.563   4.946  20.270  0.00  0.00    +0.000 A 
ATOM      5  C   UNL     1       3.178   3.722  19.995  0.00  0.00    +0.000 A 
ATOM      6  C   UNL     1       3.867   3.544  18.795  0.00  0.00    +0.000 A 
ENDROOT
BRANCH   3   7
ATOM      7  C   UNL     1       2.026   7.342  19.671  0.00  0.00    +0.000 A 
ATOM      8  C   UNL     1       1.939   8.345  18.696  0.00  0.00    +0.000 A 
ATOM      9  C   UNL     1       1.336   9.579  18.967  0.00  0.00    +0.000 A 
ATOM     10  C   UNL     1       0.782   9.843  20.224  0.00  0.00    +0.000 A 
ATOM     11  C   UNL     1       0.148  11.065  20.503  0.00  0.00    +0.000 A 
ATOM     12  C   UNL     1      -0.428  11.317  21.757  0.00  0.00    +0.000 A 
ATOM     13  C   UNL     1      -0.354  10.330  22.745  0.00  0.00    +0.000 A 
ATOM     14  C   UNL     1       0.281   9.114  22.482  0.00  0.00    +0.000 A 
ATOM     15  C   UNL     1       0.850   8.855  21.226  0.00  0.00    +0.000 A 
ATOM     16  C   UNL     1       1.479   7.629  20.940  0.00  0.00    +0.000 A 
BRANCH  12  17
ATOM     17  C   UNL     1      -1.142  12.616  22.011  0.00  0.00    +0.000 C 
BRANCH  17  18
ATOM     18  O   UNL     1      -1.025  12.991  23.376  0.00  0.00    +0.000 OA
ATOM     19  H   UNL     1      -1.186  12.189  23.902  0.00  0.00    +0.000 HD
ENDBRANCH  17  18
ENDBRANCH  12  17
ENDBRANCH   3   7
BRANCH   1  21
ATOM     20  C   UNL     1       5.439   5.333  16.017  0.00  0.00    +0.000 C 
ATOM     21  C   UNL     1       4.642   4.401  16.567  0.00  0.00    +0.000 C 
BRANCH  20  22
ATOM     22  C   UNL     1       6.150   5.180  14.706  0.00  0.00    +0.000 C 
BRANCH  22  24
ATOM     23  C   UNL     1       6.188   3.617  12.734  0.00  0.00    +0.000 C 
ATOM     24  C   UNL     1       6.151   3.719  14.251  0.00  0.00    +0.000 C 
ENDBRANCH  22  24
ENDBRANCH  20  22
ENDBRANCH   1  21
BRANCH   6  25
ATOM     25  O   UNL     1       4.465   2.341  18.535  0.00  0.00    +0.000 OA
ATOM     26  H   UNL     1       5.417   2.482  18.413  0.00  0.00    +0.000 HD
ENDBRANCH   6  25
TORSDOF 7
ENDMDL
MODEL 3
REMARK VINA RESULT:      -7.7      1.223      2.009
REMARK  Name = 
REMARK  8 active torsions:
REMARK  status: ('A' for Active; 'I' for Inactive)
REMARK    1  A    between atoms: C_1  and  C_2
REMARK    2  A    between atoms: C_2  and  C_3
REMARK    3  A    between atoms: C_3  and  C_4
REMARK    4  A    between atoms: C_5  and  C_6
REMARK    5  A    between atoms: C_8  and  C_9
REMARK    6  A    between atoms: C_14  and  C_15
REMARK    7  A    between atoms: C_15  and  O_16
REMARK    8  A    between atoms: C_23  and  O_24
REMARK                            x       y       z     vdW  Elec       q    Type
REMARK                         _______ _______ _______ _____ _____    ______ ____
ROOT
ATOM      1  C   UNL     1       4.068   3.696  17.501  0.00  0.00    +0.000 A 
ATOM      2  C   UNL     1       3.583   4.943  17.938  0.00  0.00    +0.000 A 
ATOM      3  C   UNL     1       2.716   5.079  19.038  0.00  0.00    +0.000 A 
ATOM      4  C   UNL     1       2.376   3.904  19.731  0.00  0.00    +0.000 A 
ATOM      5  C   UNL     1       2.893   2.662  19.358  0.00  0.00    +0.000 A 
ATOM      6  C   UNL     1       3.737   2.562  18.251  0.00  0.00    +0.000 A 
ENDROOT
BRANCH   3   7
ATOM      7  C   UNL     1       2.196   6.408  19.441  0.00  0.00    +0.000 A 
ATOM      8  C   UNL     1       1.635   6.623  20.707  0.00  0.00    +0.000 A 
ATOM      9  C   UNL     1       1.157   7.881  21.093  0.00  0.00    +0.000 A 
ATOM     10  C   UNL     1       1.243   8.975  20.224  0.00  0.00    +0.000 A 
ATOM     11  C   UNL     1       0.795  10.250  20.607  0.00  0.00    +0.000 A 
ATOM     12  C   UNL     1       0.905  11.349  19.743  0.00  0.00    +0.000 A 
ATOM     13  C   UNL     1       1.463  11.159  18.474  0.00  0.00    +0.000 A 
ATOM     14  C   UNL     1       1.905   9.894  18.080  0.00  0.00    +0.000 A 
ATOM     15  C   UNL     1       1.804   8.794  18.945  0.00  0.00    +0.000 A 
ATOM     16  C   UNL     1       2.259   7.516  18.569  0.00  0.00    +0.000 A 
BRANCH  12  17
ATOM     17  C   UNL     1       0.461  12.713  20.197  0.00  0.00    +0.000 C 
BRANCH  17  18
ATOM     18  O   UNL     1       1.022  13.024  21.464  0.00  0.00    +0.000 OA
ATOM     19  H   UNL     1       1.255  12.177  21.883  0.00  0.00    +0.000 HD
ENDBRANCH  17  18
ENDBRANCH  12  17
ENDBRANCH   3   7
BRANCH   1  21
ATOM     20  C   UNL     1       5.433   4.683  15.672  0.00  0.00    +0.000 C 
ATOM     21  C   UNL     1       4.934   3.610  16.310  0.00  0.00    +0.000 C 
BRANCH  20  22
ATOM     22  C   UNL     1       6.306   4.620  14.455  0.00  0.00    +0.000 C 
BRANCH  22  24
ATOM     23  C   UNL     1       6.580   3.484  12.226  0.00  0.00    +0.000 C 
ATOM     24  C   UNL     1       5.595   3.898  13.307  0.00  0.00    +0.000 C 
ENDBRANCH  22  24
ENDBRANCH  20  22
ENDBRANCH   1  21
BRANCH   6  25
ATOM     25  O   UNL     1       4.237   1.340  17.893  0.00  0.00    +0.000 OA
ATOM     26  H   UNL     1       5.130   1.245  18.262  0.00  0.00    +0.000 HD
ENDBRANCH   6  25
TORSDOF 7
ENDMDL
MODEL 4
REMARK VINA RESULT:      -7.5      5.672      7.119
REMARK  Name = 
REMARK  8 active torsions:
REMARK  status: ('A' for Active; 'I' for Inactive)
REMARK    1  A    between atoms: C_1  and  C_2
REMARK    2  A    between atoms: C_2  and  C_3
REMARK    3  A    between atoms: C_3  and  C_4
REMARK    4  A    between atoms: C_5  and  C_6
REMARK    5  A    between atoms: C_8  and  C_9
REMARK    6  A    between atoms: C_14  and  C_15
REMARK    7  A    between atoms: C_15  and  O_16
REMARK    8  A    between atoms: C_23  and  O_24
REMARK                            x       y       z     vdW  Elec       q    Type
REMARK                         _______ _______ _______ _____ _____    ______ ____
ROOT
ATOM      1  C   UNL     1       5.861   3.959  12.746  0.00  0.00    +0.000 A 
ATOM      2  C   UNL     1       5.256   3.805  14.007  0.00  0.00    +0.000 A 
ATOM      3  C   UNL     1       5.871   4.219  15.204  0.00  0.00    +0.000 A 
ATOM      4  C   UNL     1       7.122   4.850  15.091  0.00  0.00    +0.000 A 
ATOM      5  C   UNL     1       7.717   5.074  13.847  0.00  0.00    +0.000 A 
ATOM      6  C   UNL     1       7.086   4.633  12.683  0.00  0.00    +0.000 A 
ENDROOT
BRANCH   3   7
ATOM      7  C   UNL     1       5.216   4.000  16.515  0.00  0.00    +0.000 A 
ATOM      8  C   UNL     1       5.814   4.418  17.712  0.00  0.00    +0.000 A 
ATOM      9  C   UNL     1       5.189   4.225  18.950  0.00  0.00    +0.000 A 
ATOM     10  C   UNL     1       3.929   3.620  19.027  0.00  0.00    +0.000 A 
ATOM     11  C   UNL     1       3.276   3.444  20.259  0.00  0.00    +0.000 A 
ATOM     12  C   UNL     1       2.003   2.860  20.330  0.00  0.00    +0.000 A 
ATOM     13  C   UNL     1       1.386   2.436  19.148  0.00  0.00    +0.000 A 
ATOM     14  C   UNL     1       2.030   2.598  17.919  0.00  0.00    +0.000 A 
ATOM     15  C   UNL     1       3.299   3.191  17.843  0.00  0.00    +0.000 A 
ATOM     16  C   UNL     1       3.954   3.375  16.610  0.00  0.00    +0.000 A 
BRANCH  12  17
ATOM     17  C   UNL     1       1.308   2.729  21.657  0.00  0.00    +0.000 C 
BRANCH  17  18
ATOM     18  O   UNL     1       2.137   3.209  22.705  0.00  0.00    +0.000 OA
ATOM     19  H   UNL     1       2.373   2.438  23.251  0.00  0.00    +0.000 HD
ENDBRANCH  17  18
ENDBRANCH  12  17
ENDBRANCH   3   7
BRANCH   1  21
ATOM     20  C   UNL     1       3.875   3.598  11.296  0.00  0.00    +0.000 C 
ATOM     21  C   UNL     1       5.190   3.458  11.532  0.00  0.00    +0.000 C 
BRANCH  20  22
ATOM     22  C   UNL     1       3.169   3.089  10.075  0.00  0.00    +0.000 C 
BRANCH  22  24
ATOM     23  C   UNL     1       2.883   5.006   8.470  0.00  0.00    +0.000 C 
ATOM     24  C   UNL     1       2.206   4.140   9.520  0.00  0.00    +0.000 C 
ENDBRANCH  22  24
ENDBRANCH  20  22
ENDBRANCH   1  21
BRANCH   6  25
ATOM     25  O   UNL     1       7.678   4.856  11.470  0.00  0.00    +0.000 OA
ATOM     26  H   UNL     1       7.332   5.683  11.098  0.00  0.00    +0.000 HD
ENDBRANCH   6  25
TORSDOF 7
ENDMDL
MODEL 5
REMARK VINA RESULT:      -7.4      1.237      1.588
REMARK  Name = 
REMARK  8 active torsions:
REMARK  status: ('A' for Active; 'I' for Inactive)
REMARK    1  A    between atoms: C_1  and  C_2
REMARK    2  A    between atoms: C_2  and  C_3
REMARK    3  A    between atoms: C_3  and  C_4
REMARK    4  A    between atoms: C_5  and  C_6
REMARK    5  A    between atoms: C_8  and  C_9
REMARK    6  A    between atoms: C_14  and  C_15
REMARK    7  A    between atoms: C_15  and  O_16
REMARK    8  A    between atoms: C_23  and  O_24
REMARK                            x       y       z     vdW  Elec       q    Type
REMARK                         _______ _______ _______ _____ _____    ______ ____
ROOT
ATOM      1  C   UNL     1       3.619   4.490  18.867  0.00  0.00    +0.000 A 
ATOM      2  C   UNL     1       3.209   5.832  18.763  0.00  0.00    +0.000 A 
ATOM      3  C   UNL     1       2.293   6.420  19.656  0.00  0.00    +0.000 A 
ATOM      4  C   UNL     1       1.824   5.615  20.709  0.00  0.00    +0.000 A 
ATOM      5  C   UNL     1       2.264   4.300  20.874  0.00  0.00    +0.000 A 
ATOM      6  C   UNL     1       3.159   3.745  19.959  0.00  0.00    +0.000 A 
ENDROOT
BRANCH   3   7
ATOM      7  C   UNL     1       1.855   7.826  19.485  0.00  0.00    +0.000 A 
ATOM      8  C   UNL     1       2.034   8.507  18.272  0.00  0.00    +0.000 A 
ATOM      9  C   UNL     1       1.609   9.830  18.106  0.00  0.00    +0.000 A 
ATOM     10  C   UNL     1       0.970  10.511  19.147  0.00  0.00    +0.000 A 
ATOM     11  C   UNL     1       0.510  11.829  18.987  0.00  0.00    +0.000 A 
ATOM     12  C   UNL     1      -0.152  12.500  20.025  0.00  0.00    +0.000 A 
ATOM     13  C   UNL     1      -0.343  11.841  21.243  0.00  0.00    +0.000 A 
ATOM     14  C   UNL     1       0.116  10.533  21.417  0.00  0.00    +0.000 A 
ATOM     15  C   UNL     1       0.771   9.855  20.378  0.00  0.00    +0.000 A 
ATOM     16  C   UNL     1       1.226   8.532  20.532  0.00  0.00    +0.000 A 
BRANCH  12  17
ATOM     17  C   UNL     1      -0.675  13.894  19.808  0.00  0.00    +0.000 C 
BRANCH  17  18
ATOM     18  O   UNL     1      -0.593  14.250  18.436  0.00  0.00    +0.000 OA
ATOM     19  H   UNL     1       0.319  14.066  18.152  0.00  0.00    +0.000 HD
ENDBRANCH  17  18
ENDBRANCH  12  17
ENDBRANCH   3   7
BRANCH   1  21
ATOM     20  C   UNL     1       4.772   4.459  16.665  0.00  0.00    +0.000 C 
ATOM     21  C   UNL     1       4.543   3.914  17.871  0.00  0.00    +0.000 C 
BRANCH  20  22
ATOM     22  C   UNL     1       5.697   3.886  15.633  0.00  0.00    +0.000 C 
BRANCH  22  24
ATOM     23  C   UNL     1       7.035   5.884  16.378  0.00  0.00    +0.000 C 
ATOM     24  C   UNL     1       7.094   4.502  15.749  0.00  0.00    +0.000 C 
ENDBRANCH  22  24
ENDBRANCH  20  22
ENDBRANCH   1  21
BRANCH   6  25
ATOM     25  O   UNL     1       3.583   2.455  20.129  0.00  0.00    +0.000 OA
ATOM     26  H   UNL     1       2.850   1.853  19.924  0.00  0.00    +0.000 HD
ENDBRANCH   6  25
TORSDOF 7
ENDMDL
MODEL 6
REMARK VINA RESULT:      -7.3      2.296      3.927
REMARK  Name = 
REMARK  8 active torsions:
REMARK  status: ('A' for Active; 'I' for Inactive)
REMARK    1  A    between atoms: C_1  and  C_2
REMARK    2  A    between atoms: C_2  and  C_3
REMARK    3  A    between atoms: C_3  and  C_4
REMARK    4  A    between atoms: C_5  and  C_6
REMARK    5  A    between atoms: C_8  and  C_9
REMARK    6  A    between atoms: C_14  and  C_15
REMARK    7  A    between atoms: C_15  and  O_16
REMARK    8  A    between atoms: C_23  and  O_24
REMARK                            x       y       z     vdW  Elec       q    Type
REMARK                         _______ _______ _______ _____ _____    ______ ____
ROOT
ATOM      1  C   UNL     1       5.776   4.604  14.939  0.00  0.00    +0.000 A 
ATOM      2  C   UNL     1       4.824   5.037  15.881  0.00  0.00    +0.000 A 
ATOM      3  C   UNL     1       5.138   5.921  16.930  0.00  0.00    +0.000 A 
ATOM      4  C   UNL     1       6.456   6.406  16.982  0.00  0.00    +0.000 A 
ATOM      5  C   UNL     1       7.405   6.043  16.023  0.00  0.00    +0.000 A 
ATOM      6  C   UNL     1       7.063   5.150  15.007  0.00  0.00    +0.000 A 
ENDROOT
BRANCH   3   7
ATOM      7  C   UNL     1       4.113   6.320  17.925  0.00  0.00    +0.000 A 
ATOM      8  C   UNL     1       3.856   5.544  19.064  0.00  0.00    +0.000 A 
ATOM      9  C   UNL     1       2.900   5.927  20.011  0.00  0.00    +0.000 A 
ATOM     10  C   UNL     1       2.177   7.116  19.856  0.00  0.00    +0.000 A 
ATOM     11  C   UNL     1       1.234   7.529  20.812  0.00  0.00    +0.000 A 
ATOM     12  C   UNL     1       0.530   8.734  20.665  0.00  0.00    +0.000 A 
ATOM     13  C   UNL     1       0.771   9.525  19.538  0.00  0.00    +0.000 A 
ATOM     14  C   UNL     1       1.700   9.120  18.577  0.00  0.00    +0.000 A 
ATOM     15  C   UNL     1       2.413   7.920  18.724  0.00  0.00    +0.000 A 
ATOM     16  C   UNL     1       3.365   7.507  17.773  0.00  0.00    +0.000 A 
BRANCH  12  17
ATOM     17  C   UNL     1      -0.438   9.174  21.729  0.00  0.00    +0.000 C 
BRANCH  17  18
ATOM     18  O   UNL     1       0.197   9.210  22.998  0.00  0.00    +0.000 OA
ATOM     19  H   UNL     1      -0.405   9.683  23.599  0.00  0.00    +0.000 HD
ENDBRANCH  17  18
ENDBRANCH  12  17
ENDBRANCH   3   7
BRANCH   1  21
ATOM     20  C   UNL     1       5.124   3.981  12.623  0.00  0.00    +0.000 C 
ATOM     21  C   UNL     1       5.400   3.636  13.891  0.00  0.00    +0.000 C 
BRANCH  20  22
ATOM     22  C   UNL     1       4.730   3.017  11.544  0.00  0.00    +0.000 C 
BRANCH  22  24
ATOM     23  C   UNL     1       3.191   3.994   9.809  0.00  0.00    +0.000 C 
ATOM     24  C   UNL     1       3.275   3.232  11.122  0.00  0.00    +0.000 C 
ENDBRANCH  22  24
ENDBRANCH  20  22
ENDBRANCH   1  21
BRANCH   6  25
ATOM     25  O   UNL     1       8.000   4.800  14.074  0.00  0.00    +0.000 OA
ATOM     26  H   UNL     1       8.006   3.834  13.980  0.00  0.00    +0.000 HD
ENDBRANCH   6  25
TORSDOF 7
ENDMDL
MODEL 7
REMARK VINA RESULT:      -7.3      0.935      1.059
REMARK  Name = 
REMARK  8 active torsions:
REMARK  status: ('A' for Active; 'I' for Inactive)
REMARK    1  A    between atoms: C_1  and  C_2
REMARK    2  A    between atoms: C_2  and  C_3
REMARK    3  A    between atoms: C_3  and  C_4
REMARK    4  A    between atoms: C_5  and  C_6
REMARK    5  A    between atoms: C_8  and  C_9
REMARK    6  A    between atoms: C_14  and  C_15
REMARK    7  A    between atoms: C_15  and  O_16
REMARK    8  A    between atoms: C_23  and  O_24
REMARK                            x       y       z     vdW  Elec       q    Type
REMARK                         _______ _______ _______ _____ _____    ______ ____
ROOT
ATOM      1  C   UNL     1       4.228   4.868  18.759  0.00  0.00    +0.000 A 
ATOM      2  C   UNL     1       3.605   6.125  18.863  0.00  0.00    +0.000 A 
ATOM      3  C   UNL     1       2.485   6.354  19.684  0.00  0.00    +0.000 A 
ATOM      4  C   UNL     1       2.025   5.269  20.451  0.00  0.00    +0.000 A 
ATOM      5  C   UNL     1       2.663   4.027  20.415  0.00  0.00    +0.000 A 
ATOM      6  C   UNL     1       3.760   3.832  19.576  0.00  0.00    +0.000 A 
ENDROOT
BRANCH   3   7
ATOM      7  C   UNL     1       1.833   7.685  19.733  0.00  0.00    +0.000 A 
ATOM      8  C   UNL     1       1.818   8.535  18.618  0.00  0.00    +0.000 A 
ATOM      9  C   UNL     1       1.191   9.785  18.660  0.00  0.00    +0.000 A 
ATOM     10  C   UNL     1       0.539  10.220  19.819  0.00  0.00    +0.000 A 
ATOM     11  C   UNL     1      -0.120  11.460  19.868  0.00  0.00    +0.000 A 
ATOM     12  C   UNL     1      -0.793  11.881  21.024  0.00  0.00    +0.000 A 
ATOM     13  C   UNL     1      -0.793  11.049  22.148  0.00  0.00    +0.000 A 
ATOM     14  C   UNL     1      -0.134   9.818  22.114  0.00  0.00    +0.000 A 
ATOM     15  C   UNL     1       0.533   9.389  20.956  0.00  0.00    +0.000 A 
ATOM     16  C   UNL     1       1.188   8.144  20.901  0.00  0.00    +0.000 A 
BRANCH  12  17
ATOM     17  C   UNL     1      -1.531  13.192  21.030  0.00  0.00    +0.000 C 
BRANCH  17  18
ATOM     18  O   UNL     1      -2.008  13.503  19.729  0.00  0.00    +0.000 OA
ATOM     19  H   UNL     1      -2.657  12.816  19.497  0.00  0.00    +0.000 HD
ENDBRANCH  17  18
ENDBRANCH  12  17
ENDBRANCH   3   7
BRANCH   1  21
ATOM     20  C   UNL     1       5.670   5.518  16.840  0.00  0.00    +0.000 C 
ATOM     21  C   UNL     1       5.369   4.675  17.842  0.00  0.00    +0.000 C 
BRANCH  20  22
ATOM     22  C   UNL     1       6.816   5.338  15.891  0.00  0.00    +0.000 C 
BRANCH  22  24
ATOM     23  C   UNL     1       5.740   4.107  13.977  0.00  0.00    +0.000 C 
ATOM     24  C   UNL     1       6.706   4.005  15.147  0.00  0.00    +0.000 C 
ENDBRANCH  22  24
ENDBRANCH  20  22
ENDBRANCH   1  21
BRANCH   6  25
ATOM     25  O   UNL     1       4.378   2.611  19.548  0.00  0.00    +0.000 OA
ATOM     26  H   UNL     1       4.440   2.269  20.454  0.00  0.00    +0.000 HD
ENDBRANCH   6  25
TORSDOF 7
ENDMDL
MODEL 8
REMARK VINA RESULT:      -7.3      0.727      1.604
REMARK  Name = 
REMARK  8 active torsions:
REMARK  status: ('A' for Active; 'I' for Inactive)
REMARK    1  A    between atoms: C_1  and  C_2
REMARK    2  A    between atoms: C_2  and  C_3
REMARK    3  A    between atoms: C_3  and  C_4
REMARK    4  A    between atoms: C_5  and  C_6
REMARK    5  A    between atoms: C_8  and  C_9
REMARK    6  A    between atoms: C_14  and  C_15
REMARK    7  A    between atoms: C_15  and  O_16
REMARK    8  A    between atoms: C_23  and  O_24
REMARK                            x       y       z     vdW  Elec       q    Type
REMARK                         _______ _______ _______ _____ _____    ______ ____
ROOT
ATOM      1  C   UNL     1       3.834   4.710  17.966  0.00  0.00    +0.000 A 
ATOM      2  C   UNL     1       3.194   5.912  18.319  0.00  0.00    +0.000 A 
ATOM      3  C   UNL     1       2.536   6.091  19.551  0.00  0.00    +0.000 A 
ATOM      4  C   UNL     1       2.578   5.018  20.457  0.00  0.00    +0.000 A 
ATOM      5  C   UNL     1       3.260   3.836  20.159  0.00  0.00    +0.000 A 
ATOM      6  C   UNL     1       3.886   3.688  18.921  0.00  0.00    +0.000 A 
ENDROOT
BRANCH   3   7
ATOM      7  C   UNL     1       1.839   7.361  19.866  0.00  0.00    +0.000 A 
ATOM      8  C   UNL     1       1.170   7.547  21.084  0.00  0.00    +0.000 A 
ATOM      9  C   UNL     1       0.524   8.751  21.388  0.00  0.00    +0.000 A 
ATOM     10  C   UNL     1       0.543   9.820  20.485  0.00  0.00    +0.000 A 
ATOM     11  C   UNL     1      -0.076  11.045  20.788  0.00  0.00    +0.000 A 
ATOM     12  C   UNL     1      -0.034  12.122  19.890  0.00  0.00    +0.000 A 
ATOM     13  C   UNL     1       0.629  11.960  18.670  0.00  0.00    +0.000 A 
ATOM     14  C   UNL     1       1.240  10.744  18.354  0.00  0.00    +0.000 A 
ATOM     15  C   UNL     1       1.208   9.667  19.254  0.00  0.00    +0.000 A 
ATOM     16  C   UNL     1       1.834   8.441  18.958  0.00  0.00    +0.000 A 
BRANCH  12  17
ATOM     17  C   UNL     1      -0.664  13.436  20.262  0.00  0.00    +0.000 C 
BRANCH  17  18
ATOM     18  O   UNL     1      -1.959  13.549  19.689  0.00  0.00    +0.000 OA
ATOM     19  H   UNL     1      -2.581  13.148  20.321  0.00  0.00    +0.000 HD
ENDBRANCH  17  18
ENDBRANCH  12  17
ENDBRANCH   3   7
BRANCH   1  21
ATOM     20  C   UNL     1       5.447   5.361  16.189  0.00  0.00    +0.000 C 
ATOM     21  C   UNL     1       4.464   4.563  16.640  0.00  0.00    +0.000 C 
BRANCH  20  22
ATOM     22  C   UNL     1       6.094   5.237  14.843  0.00  0.00    +0.000 C 
BRANCH  22  24
ATOM     23  C   UNL     1       6.308   3.671  12.884  0.00  0.00    +0.000 C 
ATOM     24  C   UNL     1       6.147   3.775  14.393  0.00  0.00    +0.000 C 
ENDBRANCH  22  24
ENDBRANCH  20  22
ENDBRANCH   1  21
BRANCH   6  25
ATOM     25  O   UNL     1       4.551   2.526  18.638  0.00  0.00    +0.000 OA
ATOM     26  H   UNL     1       3.979   1.773  18.859  0.00  0.00    +0.000 HD
ENDBRANCH   6  25
TORSDOF 7
ENDMDL
MODEL 9
REMARK VINA RESULT:      -7.3      2.123      2.548
REMARK  Name = 
REMARK  8 active torsions:
REMARK  status: ('A' for Active; 'I' for Inactive)
REMARK    1  A    between atoms: C_1  and  C_2
REMARK    2  A    between atoms: C_2  and  C_3
REMARK    3  A    between atoms: C_3  and  C_4
REMARK    4  A    between atoms: C_5  and  C_6
REMARK    5  A    between atoms: C_8  and  C_9
REMARK    6  A    between atoms: C_14  and  C_15
REMARK    7  A    between atoms: C_15  and  O_16
REMARK    8  A    between atoms: C_23  and  O_24
REMARK                            x       y       z     vdW  Elec       q    Type
REMARK                         _______ _______ _______ _____ _____    ______ ____
ROOT
ATOM      1  C   UNL     1       3.832   4.946  19.333  0.00  0.00    +0.000 A 
ATOM      2  C   UNL     1       3.246   6.208  19.544  0.00  0.00    +0.000 A 
ATOM      3  C   UNL     1       2.038   6.378  20.246  0.00  0.00    +0.000 A 
ATOM      4  C   UNL     1       1.444   5.223  20.781  0.00  0.00    +0.000 A 
ATOM      5  C   UNL     1       2.037   3.966  20.642  0.00  0.00    +0.000 A 
ATOM      6  C   UNL     1       3.225   3.832  19.924  0.00  0.00    +0.000 A 
ENDROOT
BRANCH   3   7
ATOM      7  C   UNL     1       1.434   7.722  20.410  0.00  0.00    +0.000 A 
ATOM      8  C   UNL     1       1.493   8.682  19.390  0.00  0.00    +0.000 A 
ATOM      9  C   UNL     1       0.911   9.946  19.540  0.00  0.00    +0.000 A 
ATOM     10  C   UNL     1       0.231  10.286  20.715  0.00  0.00    +0.000 A 
ATOM     11  C   UNL     1      -0.384  11.539  20.869  0.00  0.00    +0.000 A 
ATOM     12  C   UNL     1      -1.085  11.866  22.039  0.00  0.00    +0.000 A 
ATOM     13  C   UNL     1      -1.159  10.924  23.069  0.00  0.00    +0.000 A 
ATOM     14  C   UNL     1      -0.544   9.677  22.931  0.00  0.00    +0.000 A 
ATOM     15  C   UNL     1       0.151   9.343  21.759  0.00  0.00    +0.000 A 
ATOM     16  C   UNL     1       0.761   8.085  21.597  0.00  0.00    +0.000 A 
BRANCH  12  17
ATOM     17  C   UNL     1      -1.774  13.199  22.156  0.00  0.00    +0.000 C 
BRANCH  17  18
ATOM     18  O   UNL     1      -1.928  13.795  20.877  0.00  0.00    +0.000 OA
ATOM     19  H   UNL     1      -2.871  13.726  20.647  0.00  0.00    +0.000 HD
ENDBRANCH  17  18
ENDBRANCH  12  17
ENDBRANCH   3   7
BRANCH   1  21
ATOM     20  C   UNL     1       6.195   5.516  18.808  0.00  0.00    +0.000 C 
ATOM     21  C   UNL     1       5.074   4.824  18.545  0.00  0.00    +0.000 C 
BRANCH  20  22
ATOM     22  C   UNL     1       7.463   5.416  18.016  0.00  0.00    +0.000 C 
BRANCH  22  24
ATOM     23  C   UNL     1       7.851   7.895  17.817  0.00  0.00    +0.000 C 
ATOM     24  C   UNL     1       7.606   6.602  17.058  0.00  0.00    +0.000 C 
ENDBRANCH  22  24
ENDBRANCH  20  22
ENDBRANCH   1  21
BRANCH   6  25
ATOM     25  O   UNL     1       3.797   2.596  19.792  0.00  0.00    +0.000 OA
ATOM     26  H   UNL     1       4.221   2.536  18.921  0.00  0.00    +0.000 HD
ENDBRANCH   6  25
TORSDOF 7
ENDMDL
