MODEL 1
REMARK VINA RESULT:      -8.0      0.000      0.000
REMARK  Name = 
REMARK  5 active torsions:
REMARK  status: ('A' for Active; 'I' for Inactive)
REMARK    1  A    between atoms: C_2  and  C_3
REMARK    2  A    between atoms: C_7  and  N_8
REMARK    3  A    between atoms: N_8  and  C_9
REMARK    4  A    between atoms: C_13  and  C_14
REMARK    5  A    between atoms: C_19  and  N_20
REMARK                            x       y       z     vdW  Elec       q    Type
REMARK                         _______ _______ _______ _____ _____    ______ ____
ROOT
ATOM      1  C   UNL     1       6.123   3.939  14.132  0.00  0.00    +0.000 A 
ATOM      2  C   UNL     1       5.228   3.404  15.071  0.00  0.00    +0.000 A 
ATOM      3  C   UNL     1       5.215   3.871  16.389  0.00  0.00    +0.000 A 
ATOM      4  C   UNL     1       6.133   4.866  16.769  0.00  0.00    +0.000 A 
ATOM      5  C   UNL     1       6.438   5.575  17.964  0.00  0.00    +0.000 A 
ATOM      6  C   UNL     1       7.376   6.536  17.631  0.00  0.00    +0.000 A 
ATOM      7  O   UNL     1       7.733   6.406  16.324  0.00  0.00    +0.000 OA
ATOM      8  C   UNL     1       6.977   5.400  15.801  0.00  0.00    +0.000 A 
ATOM      9  C   UNL     1       7.013   4.962  14.479  0.00  0.00    +0.000 A 
ENDROOT
BRANCH   6  10
ATOM     10  N   UNL     1       7.987   7.515  18.316  0.00  0.00    +0.000 N 
ATOM     11  H   UNL     1       7.878   8.486  18.045  0.00  0.00    +0.000 HD
ATOM     12  H   UNL     1       8.177   7.370  19.303  0.00  0.00    +0.000 HD
ENDBRANCH   6  10
BRANCH   1  14
ATOM     13  N   UNL     1       6.091   3.016  11.715  0.00  0.00    +0.000 NA
ATOM     14  C   UNL     1       6.112   3.430  12.793  0.00  0.00    +0.000 C 
ENDBRANCH   1  14
BRANCH   5  15
ATOM     15  N   UNL     1       5.836   5.414  19.166  0.00  0.00    +0.000 N 
ATOM     16  H   UNL     1       6.426   5.338  19.989  0.00  0.00    +0.000 HD
BRANCH  15  17
ATOM     17  C   UNL     1       4.461   5.283  19.460  0.00  0.00    +0.000 A 
ATOM     18  C   UNL     1       3.616   6.378  19.253  0.00  0.00    +0.000 A 
ATOM     19  C   UNL     1       2.262   6.308  19.579  0.00  0.00    +0.000 A 
ATOM     20  C   UNL     1       1.736   5.134  20.112  0.00  0.00    +0.000 A 
ATOM     21  C   UNL     1       2.545   4.006  20.286  0.00  0.00    +0.000 A 
ATOM     22  C   UNL     1       3.901   4.081  19.923  0.00  0.00    +0.000 A 
BRANCH  21  23
ATOM     23  C   UNL     1       1.992   2.754  20.918  0.00  0.00    +0.000 C 
ATOM     24  F   UNL     1       2.797   2.246  21.895  0.00  0.00    +0.000 F 
ATOM     25  F   UNL     1       0.775   2.942  21.498  0.00  0.00    +0.000 F 
ATOM     26  F   UNL     1       1.828   1.746  20.016  0.00  0.00    +0.000 F 
ENDBRANCH  21  23
ENDBRANCH  15  17
ENDBRANCH   5  15
TORSDOF 5
ENDMDL
MODEL 2
REMARK VINA RESULT:      -8.0      1.488      1.846
REMARK  Name = 
REMARK  5 active torsions:
REMARK  status: ('A' for Active; 'I' for Inactive)
REMARK    1  A    between atoms: C_2  and  C_3
REMARK    2  A    between atoms: C_7  and  N_8
REMARK    3  A    between atoms: N_8  and  C_9
REMARK    4  A    between atoms: C_13  and  C_14
REMARK    5  A    between atoms: C_19  and  N_20
REMARK                            x       y       z     vdW  Elec       q    Type
REMARK                         _______ _______ _______ _____ _____    ______ ____
ROOT
ATOM      1  C   UNL     1       6.275   4.330  14.523  0.00  0.00    +0.000 A 
ATOM      2  C   UNL     1       4.984   4.736  14.893  0.00  0.00    +0.000 A 
ATOM      3  C   UNL     1       4.710   5.137  16.205  0.00  0.00    +0.000 A 
ATOM      4  C   UNL     1       5.745   5.098  17.158  0.00  0.00    +0.000 A 
ATOM      5  C   UNL     1       5.873   5.402  18.542  0.00  0.00    +0.000 A 
ATOM      6  C   UNL     1       7.214   5.277  18.857  0.00  0.00    +0.000 A 
ATOM      7  O   UNL     1       7.907   4.831  17.774  0.00  0.00    +0.000 OA
ATOM      8  C   UNL     1       7.020   4.728  16.744  0.00  0.00    +0.000 A 
ATOM      9  C   UNL     1       7.327   4.329  15.446  0.00  0.00    +0.000 A 
ENDROOT
BRANCH   6  10
ATOM     10  N   UNL     1       7.930   5.485  19.973  0.00  0.00    +0.000 N 
ATOM     11  H   UNL     1       7.530   5.311  20.887  0.00  0.00    +0.000 HD
ATOM     12  H   UNL     1       8.939   5.385  19.926  0.00  0.00    +0.000 HD
ENDBRANCH   6  10
BRANCH   1  14
ATOM     13  N   UNL     1       6.700   3.600  12.078  0.00  0.00    +0.000 NA
ATOM     14  C   UNL     1       6.513   3.920  13.172  0.00  0.00    +0.000 C 
ENDBRANCH   1  14
BRANCH   5  15
ATOM     15  N   UNL     1       4.887   5.842  19.359  0.00  0.00    +0.000 N 
ATOM     16  H   UNL     1       5.075   6.655  19.939  0.00  0.00    +0.000 HD
BRANCH  15  17
ATOM     17  C   UNL     1       3.603   5.296  19.576  0.00  0.00    +0.000 A 
ATOM     18  C   UNL     1       2.709   5.975  20.411  0.00  0.00    +0.000 A 
ATOM     19  C   UNL     1       1.451   5.446  20.693  0.00  0.00    +0.000 A 
ATOM     20  C   UNL     1       1.068   4.229  20.135  0.00  0.00    +0.000 A 
ATOM     21  C   UNL     1       1.921   3.549  19.257  0.00  0.00    +0.000 A 
ATOM     22  C   UNL     1       3.174   4.111  18.957  0.00  0.00    +0.000 A 
BRANCH  21  23
ATOM     23  C   UNL     1       1.534   2.203  18.699  0.00  0.00    +0.000 C 
ATOM     24  F   UNL     1       0.192   2.078  18.486  0.00  0.00    +0.000 F 
ATOM     25  F   UNL     1       2.127   1.930  17.505  0.00  0.00    +0.000 F 
ATOM     26  F   UNL     1       1.871   1.179  19.530  0.00  0.00    +0.000 F 
ENDBRANCH  21  23
ENDBRANCH  15  17
ENDBRANCH   5  15
TORSDOF 5
ENDMDL
MODEL 3
REMARK VINA RESULT:      -7.8      1.044      1.053
REMARK  Name = 
REMARK  5 active torsions:
REMARK  status: ('A' for Active; 'I' for Inactive)
REMARK    1  A    between atoms: C_2  and  C_3
REMARK    2  A    between atoms: C_7  and  N_8
REMARK    3  A    between atoms: N_8  and  C_9
REMARK    4  A    between atoms: C_13  and  C_14
REMARK    5  A    between atoms: C_19  and  N_20
REMARK                            x       y       z     vdW  Elec       q    Type
REMARK                         _______ _______ _______ _____ _____    ______ ____
ROOT
ATOM      1  C   UNL     1       6.052   4.148  14.510  0.00  0.00    +0.000 A 
ATOM      2  C   UNL     1       4.831   4.662  14.972  0.00  0.00    +0.000 A 
ATOM      3  C   UNL     1       4.705   5.134  16.283  0.00  0.00    +0.000 A 
ATOM      4  C   UNL     1       5.816   5.057  17.143  0.00  0.00    +0.000 A 
ATOM      5  C   UNL     1       6.089   5.405  18.495  0.00  0.00    +0.000 A 
ATOM      6  C   UNL     1       7.441   5.195  18.698  0.00  0.00    +0.000 A 
ATOM      7  O   UNL     1       8.001   4.657  17.581  0.00  0.00    +0.000 OA
ATOM      8  C   UNL     1       7.019   4.578  16.638  0.00  0.00    +0.000 A 
ATOM      9  C   UNL     1       7.180   4.107  15.337  0.00  0.00    +0.000 A 
ENDROOT
BRANCH   6  10
ATOM     10  N   UNL     1       8.267   5.394  19.737  0.00  0.00    +0.000 N 
ATOM     11  H   UNL     1       8.153   4.873  20.599  0.00  0.00    +0.000 HD
ATOM     12  H   UNL     1       9.216   5.700  19.548  0.00  0.00    +0.000 HD
ENDBRANCH   6  10
BRANCH   1  14
ATOM     13  N   UNL     1       6.209   3.269  12.082  0.00  0.00    +0.000 NA
ATOM     14  C   UNL     1       6.139   3.668  13.164  0.00  0.00    +0.000 C 
ENDBRANCH   1  14
BRANCH   5  15
ATOM     15  N   UNL     1       5.213   5.949  19.374  0.00  0.00    +0.000 N 
ATOM     16  H   UNL     1       5.531   6.727  19.944  0.00  0.00    +0.000 HD
BRANCH  15  17
ATOM     17  C   UNL     1       3.889   5.555  19.667  0.00  0.00    +0.000 A 
ATOM     18  C   UNL     1       2.852   6.475  19.485  0.00  0.00    +0.000 A 
ATOM     19  C   UNL     1       1.538   6.145  19.812  0.00  0.00    +0.000 A 
ATOM     20  C   UNL     1       1.244   4.883  20.321  0.00  0.00    +0.000 A 
ATOM     21  C   UNL     1       2.253   3.924  20.469  0.00  0.00    +0.000 A 
ATOM     22  C   UNL     1       3.568   4.260  20.105  0.00  0.00    +0.000 A 
BRANCH  21  23
ATOM     23  C   UNL     1       1.948   2.577  21.075  0.00  0.00    +0.000 C 
ATOM     24  F   UNL     1       2.950   2.112  21.876  0.00  0.00    +0.000 F 
ATOM     25  F   UNL     1       0.826   2.580  21.845  0.00  0.00    +0.000 F 
ATOM     26  F   UNL     1       1.756   1.615  20.131  0.00  0.00    +0.000 F 
ENDBRANCH  21  23
ENDBRANCH  15  17
ENDBRANCH   5  15
TORSDOF 5
ENDMDL
MODEL 4
REMARK VINA RESULT:      -7.7      3.944      7.040
REMARK  Name = 
REMARK  5 active torsions:
REMARK  status: ('A' for Active; 'I' for Inactive)
REMARK    1  A    between atoms: C_2  and  C_3
REMARK    2  A    between atoms: C_7  and  N_8
REMARK    3  A    between atoms: N_8  and  C_9
REMARK    4  A    between atoms: C_13  and  C_14
REMARK    5  A    between atoms: C_19  and  N_20
REMARK                            x       y       z     vdW  Elec       q    Type
REMARK                         _______ _______ _______ _____ _____    ______ ____
ROOT
ATOM      1  C   UNL     1       2.675   3.513  19.760  0.00  0.00    +0.000 A 
ATOM      2  C   UNL     1       2.133   4.035  18.576  0.00  0.00    +0.000 A 
ATOM      3  C   UNL     1       2.966   4.532  17.568  0.00  0.00    +0.000 A 
ATOM      4  C   UNL     1       4.358   4.527  17.772  0.00  0.00    +0.000 A 
ATOM      5  C   UNL     1       5.502   4.933  17.031  0.00  0.00    +0.000 A 
ATOM      6  C   UNL     1       6.611   4.524  17.748  0.00  0.00    +0.000 A 
ATOM      7  O   UNL     1       6.223   3.968  18.928  0.00  0.00    +0.000 OA
ATOM      8  C   UNL     1       4.859   3.965  18.941  0.00  0.00    +0.000 A 
ATOM      9  C   UNL     1       4.059   3.458  19.961  0.00  0.00    +0.000 A 
ENDROOT
BRANCH   6  10
ATOM     10  N   UNL     1       7.934   4.579  17.527  0.00  0.00    +0.000 N 
ATOM     11  H   UNL     1       8.448   5.442  17.660  0.00  0.00    +0.000 HD
ATOM     12  H   UNL     1       8.482   3.734  17.659  0.00  0.00    +0.000 HD
ENDBRANCH   6  10
BRANCH   1  14
ATOM     13  N   UNL     1       1.080   2.632  21.597  0.00  0.00    +0.000 NA
ATOM     14  C   UNL     1       1.789   3.021  20.772  0.00  0.00    +0.000 C 
ENDBRANCH   1  14
BRANCH   5  15
ATOM     15  N   UNL     1       5.498   5.504  15.802  0.00  0.00    +0.000 N 
ATOM     16  H   UNL     1       5.114   6.440  15.712  0.00  0.00    +0.000 HD
BRANCH  15  17
ATOM     17  C   UNL     1       5.919   4.960  14.569  0.00  0.00    +0.000 A 
ATOM     18  C   UNL     1       7.250   5.131  14.171  0.00  0.00    +0.000 A 
ATOM     19  C   UNL     1       7.694   4.656  12.939  0.00  0.00    +0.000 A 
ATOM     20  C   UNL     1       6.810   3.996  12.089  0.00  0.00    +0.000 A 
ATOM     21  C   UNL     1       5.485   3.768  12.478  0.00  0.00    +0.000 A 
ATOM     22  C   UNL     1       5.060   4.225  13.738  0.00  0.00    +0.000 A 
BRANCH  21  23
ATOM     23  C   UNL     1       4.511   3.107  11.536  0.00  0.00    +0.000 C 
ATOM     24  F   UNL     1       4.969   1.923  11.036  0.00  0.00    +0.000 F 
ATOM     25  F   UNL     1       3.313   2.828  12.117  0.00  0.00    +0.000 F 
ATOM     26  F   UNL     1       4.233   3.880  10.450  0.00  0.00    +0.000 F 
ENDBRANCH  21  23
ENDBRANCH  15  17
ENDBRANCH   5  15
TORSDOF 5
ENDMDL
MODEL 5
REMARK VINA RESULT:      -7.7      4.137      7.156
REMARK  Name = 
REMARK  5 active torsions:
REMARK  status: ('A' for Active; 'I' for Inactive)
REMARK    1  A    between atoms: C_2  and  C_3
REMARK    2  A    between atoms: C_7  and  N_8
REMARK    3  A    between atoms: N_8  and  C_9
REMARK    4  A    between atoms: C_13  and  C_14
REMARK    5  A    between atoms: C_19  and  N_20
REMARK                            x       y       z     vdW  Elec       q    Type
REMARK                         _______ _______ _______ _____ _____    ______ ____
ROOT
ATOM      1  C   UNL     1       1.559   8.439  19.680  0.00  0.00    +0.000 A 
ATOM      2  C   UNL     1       2.167   8.134  18.454  0.00  0.00    +0.000 A 
ATOM      3  C   UNL     1       2.689   6.858  18.214  0.00  0.00    +0.000 A 
ATOM      4  C   UNL     1       2.620   5.892  19.234  0.00  0.00    +0.000 A 
ATOM      5  C   UNL     1       3.024   4.537  19.389  0.00  0.00    +0.000 A 
ATOM      6  C   UNL     1       2.534   4.109  20.609  0.00  0.00    +0.000 A 
ATOM      7  O   UNL     1       1.928   5.142  21.255  0.00  0.00    +0.000 OA
ATOM      8  C   UNL     1       1.975   6.219  20.421  0.00  0.00    +0.000 A 
ATOM      9  C   UNL     1       1.441   7.477  20.691  0.00  0.00    +0.000 A 
ENDROOT
BRANCH   6  10
ATOM     10  N   UNL     1       2.551   2.934  21.258  0.00  0.00    +0.000 N 
ATOM     11  H   UNL     1       2.986   2.850  22.170  0.00  0.00    +0.000 HD
ATOM     12  H   UNL     1       1.800   2.274  21.085  0.00  0.00    +0.000 HD
ENDBRANCH   6  10
BRANCH   1  14
ATOM     13  N   UNL     1       0.617  10.818  20.063  0.00  0.00    +0.000 NA
ATOM     14  C   UNL     1       1.044   9.759  19.891  0.00  0.00    +0.000 C 
ENDBRANCH   1  14
BRANCH   5  15
ATOM     15  N   UNL     1       3.663   3.781  18.464  0.00  0.00    +0.000 N 
ATOM     16  H   UNL     1       3.279   2.866  18.247  0.00  0.00    +0.000 HD
BRANCH  15  17
ATOM     17  C   UNL     1       4.854   4.060  17.759  0.00  0.00    +0.000 A 
ATOM     18  C   UNL     1       5.987   4.463  18.474  0.00  0.00    +0.000 A 
ATOM     19  C   UNL     1       7.167   4.798  17.814  0.00  0.00    +0.000 A 
ATOM     20  C   UNL     1       7.231   4.727  16.424  0.00  0.00    +0.000 A 
ATOM     21  C   UNL     1       6.130   4.281  15.684  0.00  0.00    +0.000 A 
ATOM     22  C   UNL     1       4.956   3.916  16.366  0.00  0.00    +0.000 A 
BRANCH  21  23
ATOM     23  C   UNL     1       6.176   4.260  14.177  0.00  0.00    +0.000 C 
ATOM     24  F   UNL     1       6.582   3.059  13.671  0.00  0.00    +0.000 F 
ATOM     25  F   UNL     1       4.970   4.517  13.602  0.00  0.00    +0.000 F 
ATOM     26  F   UNL     1       7.040   5.183  13.670  0.00  0.00    +0.000 F 
ENDBRANCH  21  23
ENDBRANCH  15  17
ENDBRANCH   5  15
TORSDOF 5
ENDMDL
MODEL 6
REMARK VINA RESULT:      -7.7      4.838      8.143
REMARK  Name = 
REMARK  5 active torsions:
REMARK  status: ('A' for Active; 'I' for Inactive)
REMARK    1  A    between atoms: C_2  and  C_3
REMARK    2  A    between atoms: C_7  and  N_8
REMARK    3  A    between atoms: N_8  and  C_9
REMARK    4  A    between atoms: C_13  and  C_14
REMARK    5  A    between atoms: C_19  and  N_20
REMARK                            x       y       z     vdW  Elec       q    Type
REMARK                         _______ _______ _______ _____ _____    ______ ____
ROOT
ATOM      1  C   UNL     1      -1.142  11.018  22.407  0.00  0.00    +0.000 A 
ATOM      2  C   UNL     1      -0.464  10.036  23.144  0.00  0.00    +0.000 A 
ATOM      3  C   UNL     1       0.451   9.180  22.521  0.00  0.00    +0.000 A 
ATOM      4  C   UNL     1       0.660   9.301  21.134  0.00  0.00    +0.000 A 
ATOM      5  C   UNL     1       1.463   8.646  20.160  0.00  0.00    +0.000 A 
ATOM      6  C   UNL     1       1.305   9.343  18.976  0.00  0.00    +0.000 A 
ATOM      7  O   UNL     1       0.387  10.334  19.138  0.00  0.00    +0.000 OA
ATOM      8  C   UNL     1      -0.000  10.312  20.446  0.00  0.00    +0.000 A 
ATOM      9  C   UNL     1      -0.912  11.183  21.036  0.00  0.00    +0.000 A 
ENDROOT
BRANCH   6  10
ATOM     10  N   UNL     1       1.843   9.229  17.752  0.00  0.00    +0.000 N 
ATOM     11  H   UNL     1       2.548   8.529  17.556  0.00  0.00    +0.000 HD
ATOM     12  H   UNL     1       1.283   9.502  16.950  0.00  0.00    +0.000 HD
ENDBRANCH   6  10
BRANCH   1  14
ATOM     13  N   UNL     1      -2.834  12.561  23.609  0.00  0.00    +0.000 NA
ATOM     14  C   UNL     1      -2.076  11.870  23.079  0.00  0.00    +0.000 C 
ENDBRANCH   1  14
BRANCH   5  15
ATOM     15  N   UNL     1       2.310   7.612  20.384  0.00  0.00    +0.000 N 
ATOM     16  H   UNL     1       3.003   7.714  21.120  0.00  0.00    +0.000 HD
BRANCH  15  17
ATOM     17  C   UNL     1       2.414   6.385  19.695  0.00  0.00    +0.000 A 
ATOM     18  C   UNL     1       3.131   6.339  18.494  0.00  0.00    +0.000 A 
ATOM     19  C   UNL     1       3.214   5.161  17.755  0.00  0.00    +0.000 A 
ATOM     20  C   UNL     1       2.584   4.007  18.214  0.00  0.00    +0.000 A 
ATOM     21  C   UNL     1       1.899   4.008  19.434  0.00  0.00    +0.000 A 
ATOM     22  C   UNL     1       1.850   5.195  20.185  0.00  0.00    +0.000 A 
BRANCH  21  23
ATOM     23  C   UNL     1       1.166   2.777  19.904  0.00  0.00    +0.000 C 
ATOM     24  F   UNL     1       1.850   1.621  19.661  0.00  0.00    +0.000 F 
ATOM     25  F   UNL     1       0.911   2.785  21.241  0.00  0.00    +0.000 F 
ATOM     26  F   UNL     1      -0.041   2.625  19.291  0.00  0.00    +0.000 F 
ENDBRANCH  21  23
ENDBRANCH  15  17
ENDBRANCH   5  15
TORSDOF 5
ENDMDL
MODEL 7
REMARK VINA RESULT:      -7.6      4.178      7.165
REMARK  Name = 
REMARK  5 active torsions:
REMARK  status: ('A' for Active; 'I' for Inactive)
REMARK    1  A    between atoms: C_2  and  C_3
REMARK    2  A    between atoms: C_7  and  N_8
REMARK    3  A    between atoms: N_8  and  C_9
REMARK    4  A    between atoms: C_13  and  C_14
REMARK    5  A    between atoms: C_19  and  N_20
REMARK                            x       y       z     vdW  Elec       q    Type
REMARK                         _______ _______ _______ _____ _____    ______ ____
ROOT
ATOM      1  C   UNL     1       2.609   7.452  18.199  0.00  0.00    +0.000 A 
ATOM      2  C   UNL     1       3.744   7.701  17.413  0.00  0.00    +0.000 A 
ATOM      3  C   UNL     1       4.576   6.652  17.008  0.00  0.00    +0.000 A 
ATOM      4  C   UNL     1       4.274   5.343  17.426  0.00  0.00    +0.000 A 
ATOM      5  C   UNL     1       4.847   4.054  17.246  0.00  0.00    +0.000 A 
ATOM      6  C   UNL     1       3.975   3.144  17.815  0.00  0.00    +0.000 A 
ATOM      7  O   UNL     1       2.942   3.800  18.411  0.00  0.00    +0.000 OA
ATOM      8  C   UNL     1       3.120   5.130  18.171  0.00  0.00    +0.000 A 
ATOM      9  C   UNL     1       2.267   6.150  18.586  0.00  0.00    +0.000 A 
ENDROOT
BRANCH   6  10
ATOM     10  N   UNL     1       3.955   1.806  17.905  0.00  0.00    +0.000 N 
ATOM     11  H   UNL     1       3.564   1.344  18.718  0.00  0.00    +0.000 HD
ATOM     12  H   UNL     1       3.910   1.264  17.047  0.00  0.00    +0.000 HD
ENDBRANCH   6  10
BRANCH   1  14
ATOM     13  N   UNL     1       1.128   9.447  18.915  0.00  0.00    +0.000 NA
ATOM     14  C   UNL     1       1.786   8.552  18.601  0.00  0.00    +0.000 C 
ENDBRANCH   1  14
BRANCH   5  15
ATOM     15  N   UNL     1       5.972   3.768  16.548  0.00  0.00    +0.000 N 
ATOM     16  H   UNL     1       6.761   3.375  17.053  0.00  0.00    +0.000 HD
BRANCH  15  17
ATOM     17  C   UNL     1       6.248   3.986  15.180  0.00  0.00    +0.000 A 
ATOM     18  C   UNL     1       7.336   4.790  14.827  0.00  0.00    +0.000 A 
ATOM     19  C   UNL     1       7.612   5.073  13.490  0.00  0.00    +0.000 A 
ATOM     20  C   UNL     1       6.802   4.547  12.487  0.00  0.00    +0.000 A 
ATOM     21  C   UNL     1       5.734   3.700  12.806  0.00  0.00    +0.000 A 
ATOM     22  C   UNL     1       5.488   3.397  14.156  0.00  0.00    +0.000 A 
BRANCH  21  23
ATOM     23  C   UNL     1       4.821   3.177  11.727  0.00  0.00    +0.000 C 
ATOM     24  F   UNL     1       5.219   1.972  11.225  0.00  0.00    +0.000 F 
ATOM     25  F   UNL     1       3.540   2.998  12.151  0.00  0.00    +0.000 F 
ATOM     26  F   UNL     1       4.749   4.014  10.655  0.00  0.00    +0.000 F 
ENDBRANCH  21  23
ENDBRANCH  15  17
ENDBRANCH   5  15
TORSDOF 5
ENDMDL
MODEL 8
REMARK VINA RESULT:      -7.6      4.852      8.192
REMARK  Name = 
REMARK  5 active torsions:
REMARK  status: ('A' for Active; 'I' for Inactive)
REMARK    1  A    between atoms: C_2  and  C_3
REMARK    2  A    between atoms: C_7  and  N_8
REMARK    3  A    between atoms: N_8  and  C_9
REMARK    4  A    between atoms: C_13  and  C_14
REMARK    5  A    between atoms: C_19  and  N_20
REMARK                            x       y       z     vdW  Elec       q    Type
REMARK                         _______ _______ _______ _____ _____    ______ ____
ROOT
ATOM      1  C   UNL     1      -0.900  10.930  22.297  0.00  0.00    +0.000 A 
ATOM      2  C   UNL     1      -0.326   9.922  23.086  0.00  0.00    +0.000 A 
ATOM      3  C   UNL     1       0.536   8.977  22.520  0.00  0.00    +0.000 A 
ATOM      4  C   UNL     1       0.798   9.035  21.139  0.00  0.00    +0.000 A 
ATOM      5  C   UNL     1       1.578   8.288  20.213  0.00  0.00    +0.000 A 
ATOM      6  C   UNL     1       1.513   8.956  19.003  0.00  0.00    +0.000 A 
ATOM      7  O   UNL     1       0.672  10.021  19.104  0.00  0.00    +0.000 OA
ATOM      8  C   UNL     1       0.243  10.072  20.398  0.00  0.00    +0.000 A 
ATOM      9  C   UNL     1      -0.615  11.032  20.930  0.00  0.00    +0.000 A 
ENDROOT
BRANCH   6  10
ATOM     10  N   UNL     1       2.078   8.761  17.802  0.00  0.00    +0.000 N 
ATOM     11  H   UNL     1       1.773   8.005  17.200  0.00  0.00    +0.000 HD
ATOM     12  H   UNL     1       2.465   9.562  17.313  0.00  0.00    +0.000 HD
ENDBRANCH   6  10
BRANCH   1  14
ATOM     13  N   UNL     1      -2.507  12.629  23.402  0.00  0.00    +0.000 NA
ATOM     14  C   UNL     1      -1.784  11.875  22.911  0.00  0.00    +0.000 C 
ENDBRANCH   1  14
BRANCH   5  15
ATOM     15  N   UNL     1       2.331   7.199  20.496  0.00  0.00    +0.000 N 
ATOM     16  H   UNL     1       3.144   7.323  21.093  0.00  0.00    +0.000 HD
BRANCH  15  17
ATOM     17  C   UNL     1       2.184   5.873  20.034  0.00  0.00    +0.000 A 
ATOM     18  C   UNL     1       1.170   5.075  20.572  0.00  0.00    +0.000 A 
ATOM     19  C   UNL     1       1.022   3.745  20.182  0.00  0.00    +0.000 A 
ATOM     20  C   UNL     1       1.889   3.197  19.240  0.00  0.00    +0.000 A 
ATOM     21  C   UNL     1       2.885   3.983  18.648  0.00  0.00    +0.000 A 
ATOM     22  C   UNL     1       3.001   5.332  19.027  0.00  0.00    +0.000 A 
BRANCH  21  23
ATOM     23  C   UNL     1       3.862   3.378  17.672  0.00  0.00    +0.000 C 
ATOM     24  F   UNL     1       3.677   3.810  16.391  0.00  0.00    +0.000 F 
ATOM     25  F   UNL     1       5.159   3.655  17.975  0.00  0.00    +0.000 F 
ATOM     26  F   UNL     1       3.769   2.020  17.618  0.00  0.00    +0.000 F 
ENDBRANCH  21  23
ENDBRANCH  15  17
ENDBRANCH   5  15
TORSDOF 5
ENDMDL
MODEL 9
REMARK VINA RESULT:      -7.6      3.591      4.785
REMARK  Name = 
REMARK  5 active torsions:
REMARK  status: ('A' for Active; 'I' for Inactive)
REMARK    1  A    between atoms: C_2  and  C_3
REMARK    2  A    between atoms: C_7  and  N_8
REMARK    3  A    between atoms: N_8  and  C_9
REMARK    4  A    between atoms: C_13  and  C_14
REMARK    5  A    between atoms: C_19  and  N_20
REMARK                            x       y       z     vdW  Elec       q    Type
REMARK                         _______ _______ _______ _____ _____    ______ ____
ROOT
ATOM      1  C   UNL     1       5.427   4.625  15.513  0.00  0.00    +0.000 A 
ATOM      2  C   UNL     1       5.610   5.904  16.059  0.00  0.00    +0.000 A 
ATOM      3  C   UNL     1       4.960   6.275  17.242  0.00  0.00    +0.000 A 
ATOM      4  C   UNL     1       4.095   5.354  17.860  0.00  0.00    +0.000 A 
ATOM      5  C   UNL     1       3.271   5.344  19.020  0.00  0.00    +0.000 A 
ATOM      6  C   UNL     1       2.770   4.060  19.145  0.00  0.00    +0.000 A 
ATOM      7  O   UNL     1       3.164   3.302  18.085  0.00  0.00    +0.000 OA
ATOM      8  C   UNL     1       3.970   4.083  17.311  0.00  0.00    +0.000 A 
ATOM      9  C   UNL     1       4.605   3.680  16.139  0.00  0.00    +0.000 A 
ENDROOT
BRANCH   6  10
ATOM     10  N   UNL     1       1.996   3.449  20.054  0.00  0.00    +0.000 N 
ATOM     11  H   UNL     1       1.121   3.863  20.355  0.00  0.00    +0.000 HD
ATOM     12  H   UNL     1       2.028   2.436  20.116  0.00  0.00    +0.000 HD
ENDBRANCH   6  10
BRANCH   1  14
ATOM     13  N   UNL     1       6.659   4.018  13.321  0.00  0.00    +0.000 NA
ATOM     14  C   UNL     1       6.103   4.285  14.297  0.00  0.00    +0.000 C 
ENDBRANCH   1  14
BRANCH   5  15
ATOM     15  N   UNL     1       3.109   6.364  19.895  0.00  0.00    +0.000 N 
ATOM     16  H   UNL     1       3.662   6.356  20.747  0.00  0.00    +0.000 HD
BRANCH  15  17
ATOM     17  C   UNL     1       2.219   7.459  19.828  0.00  0.00    +0.000 A 
ATOM     18  C   UNL     1       2.106   8.168  18.627  0.00  0.00    +0.000 A 
ATOM     19  C   UNL     1       1.279   9.286  18.532  0.00  0.00    +0.000 A 
ATOM     20  C   UNL     1       0.548   9.706  19.641  0.00  0.00    +0.000 A 
ATOM     21  C   UNL     1       0.603   8.990  20.842  0.00  0.00    +0.000 A 
ATOM     22  C   UNL     1       1.417   7.845  20.913  0.00  0.00    +0.000 A 
BRANCH  21  23
ATOM     23  C   UNL     1      -0.141   9.475  22.060  0.00  0.00    +0.000 C 
ATOM     24  F   UNL     1       0.681   9.752  23.114  0.00  0.00    +0.000 F 
ATOM     25  F   UNL     1      -0.851  10.613  21.833  0.00  0.00    +0.000 F 
ATOM     26  F   UNL     1      -1.035   8.558  22.522  0.00  0.00    +0.000 F 
ENDBRANCH  21  23
ENDBRANCH  15  17
ENDBRANCH   5  15
TORSDOF 5
ENDMDL
