MODEL 1
REMARK VINA RESULT:      -5.8      0.000      0.000
REMARK  Name = 
REMARK  5 active torsions:
REMARK  status: ('A' for Active; 'I' for Inactive)
REMARK    1  A    between atoms: N_5  and  C_6
REMARK    2  A    between atoms: C_6  and  C_7
REMARK    3  A    between atoms: C_7  and  C_8
REMARK    4  A    between atoms: C_8  and  O_9
REMARK    5  A    between atoms: O_9  and  C_10
REMARK                            x       y       z     vdW  Elec       q    Type
REMARK                         _______ _______ _______ _____ _____    ______ ____
ROOT
ATOM      1  C   UNL     1       5.427   4.109  16.166  0.00  0.00    +0.000 C 
ENDROOT
BRANCH   1   6
ATOM      2  C   UNL     1       7.464   7.569  17.287  0.00  0.00    +0.000 A 
ATOM      3  C   UNL     1       8.092   7.333  18.488  0.00  0.00    +0.000 A 
ATOM      4  S   UNL     1       7.760   5.734  19.004  0.00  0.00    +0.000 S 
ATOM      5  C   UNL     1       6.834   5.471  17.574  0.00  0.00    +0.000 A 
ATOM      6  N   UNL     1       6.256   4.274  17.345  0.00  0.00    +0.000 N 
ATOM      7  N   UNL     1       6.753   6.507  16.772  0.00  0.00    +0.000 NA
ATOM      8  H   UNL     1       6.202   3.587  18.087  0.00  0.00    +0.000 HD
ENDBRANCH   1   6
BRANCH   1   9
ATOM      9  C   UNL     1       3.950   4.109  16.546  0.00  0.00    +0.000 C 
BRANCH   9  10
ATOM     10  C   UNL     1       3.627   2.961  17.495  0.00  0.00    +0.000 C 
BRANCH  10  11
ATOM     11  O   UNL     1       2.261   2.580  17.336  0.00  0.00    +0.000 OA
BRANCH  11  12
ATOM     12  C   UNL     1       1.461   2.905  18.465  0.00  0.00    +0.000 C 
ATOM     13  C   UNL     1       1.960   2.168  19.701  0.00  0.00    +0.000 C 
ATOM     14  C   UNL     1       1.359   2.956  20.858  0.00  0.00    +0.000 C 
ATOM     15  C   UNL     1       1.224   4.393  20.357  0.00  0.00    +0.000 C 
ATOM     16  C   UNL     1       1.599   4.366  18.881  0.00  0.00    +0.000 C 
ENDBRANCH  11  12
ENDBRANCH  10  11
ENDBRANCH   9  10
ENDBRANCH   1   9
TORSDOF 5
ENDMDL
MODEL 2
REMARK VINA RESULT:      -5.8      1.141      1.408
REMARK  Name = 
REMARK  5 active torsions:
REMARK  status: ('A' for Active; 'I' for Inactive)
REMARK    1  A    between atoms: N_5  and  C_6
REMARK    2  A    between atoms: C_6  and  C_7
REMARK    3  A    between atoms: C_7  and  C_8
REMARK    4  A    between atoms: C_8  and  O_9
REMARK    5  A    between atoms: O_9  and  C_10
REMARK                            x       y       z     vdW  Elec       q    Type
REMARK                         _______ _______ _______ _____ _____    ______ ____
ROOT
ATOM      1  C   UNL     1       6.095   3.941  15.954  0.00  0.00    +0.000 C 
ENDROOT
BRANCH   1   6
ATOM      2  C   UNL     1       7.771   7.536  17.233  0.00  0.00    +0.000 A 
ATOM      3  C   UNL     1       8.128   7.402  18.555  0.00  0.00    +0.000 A 
ATOM      4  S   UNL     1       7.725   5.830  19.101  0.00  0.00    +0.000 S 
ATOM      5  C   UNL     1       7.135   5.441  17.528  0.00  0.00    +0.000 A 
ATOM      6  N   UNL     1       6.644   4.212  17.268  0.00  0.00    +0.000 N 
ATOM      7  N   UNL     1       7.209   6.418  16.655  0.00  0.00    +0.000 NA
ATOM      8  H   UNL     1       6.445   3.574  18.028  0.00  0.00    +0.000 HD
ENDBRANCH   1   6
BRANCH   1   9
ATOM      9  C   UNL     1       4.575   4.074  15.971  0.00  0.00    +0.000 C 
BRANCH   9  10
ATOM     10  C   UNL     1       4.033   3.992  17.393  0.00  0.00    +0.000 C 
BRANCH  10  11
ATOM     11  O   UNL     1       3.500   5.259  17.776  0.00  0.00    +0.000 OA
BRANCH  11  12
ATOM     12  C   UNL     1       2.496   5.158  18.776  0.00  0.00    +0.000 C 
ATOM     13  C   UNL     1       1.575   3.980  18.488  0.00  0.00    +0.000 C 
ATOM     14  C   UNL     1       0.903   3.711  19.828  0.00  0.00    +0.000 C 
ATOM     15  C   UNL     1       1.909   4.146  20.892  0.00  0.00    +0.000 C 
ATOM     16  C   UNL     1       3.065   4.798  20.145  0.00  0.00    +0.000 C 
ENDBRANCH  11  12
ENDBRANCH  10  11
ENDBRANCH   9  10
ENDBRANCH   1   9
TORSDOF 5
ENDMDL
MODEL 3
REMARK VINA RESULT:      -5.7      3.149      6.362
REMARK  Name = 
REMARK  5 active torsions:
REMARK  status: ('A' for Active; 'I' for Inactive)
REMARK    1  A    between atoms: N_5  and  C_6
REMARK    2  A    between atoms: C_6  and  C_7
REMARK    3  A    between atoms: C_7  and  C_8
REMARK    4  A    between atoms: C_8  and  O_9
REMARK    5  A    between atoms: O_9  and  C_10
REMARK                            x       y       z     vdW  Elec       q    Type
REMARK                         _______ _______ _______ _____ _____    ______ ____
ROOT
ATOM      1  C   UNL     1       5.744   5.002  17.930  0.00  0.00    +0.000 C 
ENDROOT
BRANCH   1   6
ATOM      2  C   UNL     1       2.737   2.115  17.937  0.00  0.00    +0.000 A 
ATOM      3  C   UNL     1       2.176   2.076  19.192  0.00  0.00    +0.000 A 
ATOM      4  S   UNL     1       2.956   3.216  20.204  0.00  0.00    +0.000 S 
ATOM      5  C   UNL     1       3.957   3.695  18.884  0.00  0.00    +0.000 A 
ATOM      6  N   UNL     1       4.872   4.673  19.041  0.00  0.00    +0.000 N 
ATOM      7  N   UNL     1       3.747   3.038  17.768  0.00  0.00    +0.000 NA
ATOM      8  H   UNL     1       5.108   5.002  19.969  0.00  0.00    +0.000 HD
ENDBRANCH   1   6
BRANCH   1   9
ATOM      9  C   UNL     1       5.169   6.163  17.125  0.00  0.00    +0.000 C 
BRANCH   9  10
ATOM     10  C   UNL     1       5.463   6.000  15.639  0.00  0.00    +0.000 C 
BRANCH  10  11
ATOM     11  O   UNL     1       6.821   5.596  15.461  0.00  0.00    +0.000 OA
BRANCH  11  12
ATOM     12  C   UNL     1       6.977   4.609  14.452  0.00  0.00    +0.000 C 
ATOM     13  C   UNL     1       5.617   4.118  13.972  0.00  0.00    +0.000 C 
ATOM     14  C   UNL     1       5.920   3.475  12.624  0.00  0.00    +0.000 C 
ATOM     15  C   UNL     1       7.129   4.225  12.069  0.00  0.00    +0.000 C 
ATOM     16  C   UNL     1       7.589   5.169  13.172  0.00  0.00    +0.000 C 
ENDBRANCH  11  12
ENDBRANCH  10  11
ENDBRANCH   9  10
ENDBRANCH   1   9
TORSDOF 5
ENDMDL
MODEL 4
REMARK VINA RESULT:      -5.7      3.020      6.017
REMARK  Name = 
REMARK  5 active torsions:
REMARK  status: ('A' for Active; 'I' for Inactive)
REMARK    1  A    between atoms: N_5  and  C_6
REMARK    2  A    between atoms: C_6  and  C_7
REMARK    3  A    between atoms: C_7  and  C_8
REMARK    4  A    between atoms: C_8  and  O_9
REMARK    5  A    between atoms: O_9  and  C_10
REMARK                            x       y       z     vdW  Elec       q    Type
REMARK                         _______ _______ _______ _____ _____    ______ ____
ROOT
ATOM      1  C   UNL     1       4.089   3.104  17.379  0.00  0.00    +0.000 C 
ENDROOT
BRANCH   1   6
ATOM      2  C   UNL     1       2.819   2.634  21.322  0.00  0.00    +0.000 A 
ATOM      3  C   UNL     1       1.449   2.748  21.352  0.00  0.00    +0.000 A 
ATOM      4  S   UNL     1       0.862   3.039  19.770  0.00  0.00    +0.000 S 
ATOM      5  C   UNL     1       2.474   2.960  19.164  0.00  0.00    +0.000 A 
ATOM      6  N   UNL     1       2.716   3.108  17.845  0.00  0.00    +0.000 N 
ATOM      7  N   UNL     1       3.396   2.754  20.075  0.00  0.00    +0.000 NA
ATOM      8  H   UNL     1       1.986   3.448  17.232  0.00  0.00    +0.000 HD
ENDBRANCH   1   6
BRANCH   1   9
ATOM      9  C   UNL     1       4.474   4.476  16.837  0.00  0.00    +0.000 C 
BRANCH   9  10
ATOM     10  C   UNL     1       5.345   4.351  15.593  0.00  0.00    +0.000 C 
BRANCH  10  11
ATOM     11  O   UNL     1       6.633   4.908  15.853  0.00  0.00    +0.000 OA
BRANCH  11  12
ATOM     12  C   UNL     1       6.715   5.544  17.120  0.00  0.00    +0.000 C 
ATOM     13  C   UNL     1       7.681   4.795  18.029  0.00  0.00    +0.000 C 
ATOM     14  C   UNL     1       8.029   5.815  19.106  0.00  0.00    +0.000 C 
ATOM     15  C   UNL     1       7.913   7.183  18.435  0.00  0.00    +0.000 C 
ATOM     16  C   UNL     1       7.351   6.928  17.042  0.00  0.00    +0.000 C 
ENDBRANCH  11  12
ENDBRANCH  10  11
ENDBRANCH   9  10
ENDBRANCH   1   9
TORSDOF 5
ENDMDL
MODEL 5
REMARK VINA RESULT:      -5.6      2.710      3.586
REMARK  Name = 
REMARK  5 active torsions:
REMARK  status: ('A' for Active; 'I' for Inactive)
REMARK    1  A    between atoms: N_5  and  C_6
REMARK    2  A    between atoms: C_6  and  C_7
REMARK    3  A    between atoms: C_7  and  C_8
REMARK    4  A    between atoms: C_8  and  O_9
REMARK    5  A    between atoms: O_9  and  C_10
REMARK                            x       y       z     vdW  Elec       q    Type
REMARK                         _______ _______ _______ _____ _____    ______ ____
ROOT
ATOM      1  C   UNL     1       7.092   4.602  17.089  0.00  0.00    +0.000 C 
ENDROOT
BRANCH   1   6
ATOM      2  C   UNL     1       7.944   5.363  13.080  0.00  0.00    +0.000 A 
ATOM      3  C   UNL     1       7.109   4.592  12.305  0.00  0.00    +0.000 A 
ATOM      4  S   UNL     1       6.093   3.654  13.316  0.00  0.00    +0.000 S 
ATOM      5  C   UNL     1       6.823   4.370  14.705  0.00  0.00    +0.000 A 
ATOM      6  N   UNL     1       6.410   4.032  15.944  0.00  0.00    +0.000 N 
ATOM      7  N   UNL     1       7.776   5.233  14.442  0.00  0.00    +0.000 NA
ATOM      8  H   UNL     1       5.808   3.230  16.076  0.00  0.00    +0.000 HD
ENDBRANCH   1   6
BRANCH   1   9
ATOM      9  C   UNL     1       6.090   4.990  18.171  0.00  0.00    +0.000 C 
BRANCH   9  10
ATOM     10  C   UNL     1       5.080   6.004  17.646  0.00  0.00    +0.000 C 
BRANCH  10  11
ATOM     11  O   UNL     1       3.957   5.320  17.093  0.00  0.00    +0.000 OA
BRANCH  11  12
ATOM     12  C   UNL     1       3.350   4.420  18.009  0.00  0.00    +0.000 C 
ATOM     13  C   UNL     1       2.213   5.107  18.755  0.00  0.00    +0.000 C 
ATOM     14  C   UNL     1       1.386   3.949  19.298  0.00  0.00    +0.000 C 
ATOM     15  C   UNL     1       1.581   2.800  18.310  0.00  0.00    +0.000 C 
ATOM     16  C   UNL     1       2.633   3.268  17.314  0.00  0.00    +0.000 C 
ENDBRANCH  11  12
ENDBRANCH  10  11
ENDBRANCH   9  10
ENDBRANCH   1   9
TORSDOF 5
ENDMDL
MODEL 6
REMARK VINA RESULT:      -5.6      3.379      6.677
REMARK  Name = 
REMARK  5 active torsions:
REMARK  status: ('A' for Active; 'I' for Inactive)
REMARK    1  A    between atoms: N_5  and  C_6
REMARK    2  A    between atoms: C_6  and  C_7
REMARK    3  A    between atoms: C_7  and  C_8
REMARK    4  A    between atoms: C_8  and  O_9
REMARK    5  A    between atoms: O_9  and  C_10
REMARK                            x       y       z     vdW  Elec       q    Type
REMARK                         _______ _______ _______ _____ _____    ______ ____
ROOT
ATOM      1  C   UNL     1       5.532   4.988  18.487  0.00  0.00    +0.000 C 
ENDROOT
BRANCH   1   6
ATOM      2  C   UNL     1       2.941   1.733  18.741  0.00  0.00    +0.000 A 
ATOM      3  C   UNL     1       1.649   2.205  18.726  0.00  0.00    +0.000 A 
ATOM      4  S   UNL     1       1.664   3.914  18.619  0.00  0.00    +0.000 S 
ATOM      5  C   UNL     1       3.387   3.890  18.569  0.00  0.00    +0.000 A 
ATOM      6  N   UNL     1       4.083   5.040  18.457  0.00  0.00    +0.000 N 
ATOM      7  N   UNL     1       3.924   2.695  18.650  0.00  0.00    +0.000 NA
ATOM      8  H   UNL     1       3.618   5.929  18.589  0.00  0.00    +0.000 HD
ENDBRANCH   1   6
BRANCH   1   9
ATOM      9  C   UNL     1       6.117   5.640  17.238  0.00  0.00    +0.000 C 
BRANCH   9  10
ATOM     10  C   UNL     1       6.975   4.655  16.455  0.00  0.00    +0.000 C 
BRANCH  10  11
ATOM     11  O   UNL     1       7.591   5.326  15.356  0.00  0.00    +0.000 OA
BRANCH  11  12
ATOM     12  C   UNL     1       6.906   5.121  14.128  0.00  0.00    +0.000 C 
ATOM     13  C   UNL     1       7.898   5.015  12.976  0.00  0.00    +0.000 C 
ATOM     14  C   UNL     1       7.099   4.335  11.872  0.00  0.00    +0.000 C 
ATOM     15  C   UNL     1       6.071   3.457  12.585  0.00  0.00    +0.000 C 
ATOM     16  C   UNL     1       6.197   3.772  14.069  0.00  0.00    +0.000 C 
ENDBRANCH  11  12
ENDBRANCH  10  11
ENDBRANCH   9  10
ENDBRANCH   1   9
TORSDOF 5
ENDMDL
MODEL 7
REMARK VINA RESULT:      -5.5      2.796      6.123
REMARK  Name = 
REMARK  5 active torsions:
REMARK  status: ('A' for Active; 'I' for Inactive)
REMARK    1  A    between atoms: N_5  and  C_6
REMARK    2  A    between atoms: C_6  and  C_7
REMARK    3  A    between atoms: C_7  and  C_8
REMARK    4  A    between atoms: C_8  and  O_9
REMARK    5  A    between atoms: O_9  and  C_10
REMARK                            x       y       z     vdW  Elec       q    Type
REMARK                         _______ _______ _______ _____ _____    ______ ____
ROOT
ATOM      1  C   UNL     1       5.675   5.158  19.043  0.00  0.00    +0.000 C 
ENDROOT
BRANCH   1   6
ATOM      2  C   UNL     1       1.811   3.633  18.706  0.00  0.00    +0.000 A 
ATOM      3  C   UNL     1       1.892   2.264  18.603  0.00  0.00    +0.000 A 
ATOM      4  S   UNL     1       3.534   1.783  18.648  0.00  0.00    +0.000 S 
ATOM      5  C   UNL     1       4.007   3.430  18.834  0.00  0.00    +0.000 A 
ATOM      6  N   UNL     1       5.310   3.757  18.958  0.00  0.00    +0.000 N 
ATOM      7  N   UNL     1       3.015   4.290  18.839  0.00  0.00    +0.000 NA
ATOM      8  H   UNL     1       6.025   3.071  18.758  0.00  0.00    +0.000 HD
ENDBRANCH   1   6
BRANCH   1   9
ATOM      9  C   UNL     1       7.145   5.350  18.686  0.00  0.00    +0.000 C 
BRANCH   9  10
ATOM     10  C   UNL     1       7.331   5.488  17.180  0.00  0.00    +0.000 C 
BRANCH  10  11
ATOM     11  O   UNL     1       6.218   4.903  16.505  0.00  0.00    +0.000 OA
BRANCH  11  12
ATOM     12  C   UNL     1       6.585   4.247  15.299  0.00  0.00    +0.000 C 
ATOM     13  C   UNL     1       5.350   3.948  14.459  0.00  0.00    +0.000 C 
ATOM     14  C   UNL     1       5.910   3.716  13.062  0.00  0.00    +0.000 C 
ATOM     15  C   UNL     1       7.177   4.566  12.976  0.00  0.00    +0.000 C 
ATOM     16  C   UNL     1       7.401   5.139  14.369  0.00  0.00    +0.000 C 
ENDBRANCH  11  12
ENDBRANCH  10  11
ENDBRANCH   9  10
ENDBRANCH   1   9
TORSDOF 5
ENDMDL
MODEL 8
REMARK VINA RESULT:      -5.5      2.711      3.227
REMARK  Name = 
REMARK  5 active torsions:
REMARK  status: ('A' for Active; 'I' for Inactive)
REMARK    1  A    between atoms: N_5  and  C_6
REMARK    2  A    between atoms: C_6  and  C_7
REMARK    3  A    between atoms: C_7  and  C_8
REMARK    4  A    between atoms: C_8  and  O_9
REMARK    5  A    between atoms: O_9  and  C_10
REMARK                            x       y       z     vdW  Elec       q    Type
REMARK                         _______ _______ _______ _____ _____    ______ ____
ROOT
ATOM      1  C   UNL     1       6.368   4.745  16.852  0.00  0.00    +0.000 C 
ENDROOT
BRANCH   1   6
ATOM      2  C   UNL     1       7.956   5.333  13.043  0.00  0.00    +0.000 A 
ATOM      3  C   UNL     1       7.290   4.512  12.164  0.00  0.00    +0.000 A 
ATOM      4  S   UNL     1       6.110   3.604  13.009  0.00  0.00    +0.000 S 
ATOM      5  C   UNL     1       6.557   4.397  14.474  0.00  0.00    +0.000 A 
ATOM      6  N   UNL     1       5.920   4.110  15.628  0.00  0.00    +0.000 N 
ATOM      7  N   UNL     1       7.535   5.264  14.354  0.00  0.00    +0.000 NA
ATOM      8  H   UNL     1       5.311   3.304  15.683  0.00  0.00    +0.000 HD
ENDBRANCH   1   6
BRANCH   1   9
ATOM      9  C   UNL     1       5.240   5.560  17.476  0.00  0.00    +0.000 C 
BRANCH   9  10
ATOM     10  C   UNL     1       3.921   4.797  17.429  0.00  0.00    +0.000 C 
BRANCH  10  11
ATOM     11  O   UNL     1       4.015   3.628  18.241  0.00  0.00    +0.000 OA
BRANCH  11  12
ATOM     12  C   UNL     1       2.788   3.291  18.872  0.00  0.00    +0.000 C 
ATOM     13  C   UNL     1       3.040   2.744  20.271  0.00  0.00    +0.000 C 
ATOM     14  C   UNL     1       1.694   2.893  20.966  0.00  0.00    +0.000 C 
ATOM     15  C   UNL     1       1.019   4.097  20.310  0.00  0.00    +0.000 C 
ATOM     16  C   UNL     1       1.918   4.512  19.154  0.00  0.00    +0.000 C 
ENDBRANCH  11  12
ENDBRANCH  10  11
ENDBRANCH   9  10
ENDBRANCH   1   9
TORSDOF 5
ENDMDL
MODEL 9
REMARK VINA RESULT:      -5.5      3.261      6.590
REMARK  Name = 
REMARK  5 active torsions:
REMARK  status: ('A' for Active; 'I' for Inactive)
REMARK    1  A    between atoms: N_5  and  C_6
REMARK    2  A    between atoms: C_6  and  C_7
REMARK    3  A    between atoms: C_7  and  C_8
REMARK    4  A    between atoms: C_8  and  O_9
REMARK    5  A    between atoms: O_9  and  C_10
REMARK                            x       y       z     vdW  Elec       q    Type
REMARK                         _______ _______ _______ _____ _____    ______ ____
ROOT
ATOM      1  C   UNL     1       4.278   5.560  17.114  0.00  0.00    +0.000 C 
ENDROOT
BRANCH   1   6
ATOM      2  C   UNL     1       1.343   2.937  18.486  0.00  0.00    +0.000 A 
ATOM      3  C   UNL     1       1.848   2.244  19.561  0.00  0.00    +0.000 A 
ATOM      4  S   UNL     1       3.456   2.749  19.864  0.00  0.00    +0.000 S 
ATOM      5  C   UNL     1       3.343   3.872  18.560  0.00  0.00    +0.000 A 
ATOM      6  N   UNL     1       4.383   4.676  18.259  0.00  0.00    +0.000 N 
ATOM      7  N   UNL     1       2.196   3.862  17.922  0.00  0.00    +0.000 NA
ATOM      8  H   UNL     1       5.293   4.501  18.667  0.00  0.00    +0.000 HD
ENDBRANCH   1   6
BRANCH   1   9
ATOM      9  C   UNL     1       5.643   6.137  16.756  0.00  0.00    +0.000 C 
BRANCH   9  10
ATOM     10  C   UNL     1       6.671   5.031  16.551  0.00  0.00    +0.000 C 
BRANCH  10  11
ATOM     11  O   UNL     1       7.490   5.342  15.424  0.00  0.00    +0.000 OA
BRANCH  11  12
ATOM     12  C   UNL     1       6.833   5.119  14.184  0.00  0.00    +0.000 C 
ATOM     13  C   UNL     1       7.845   5.071  13.047  0.00  0.00    +0.000 C 
ATOM     14  C   UNL     1       7.095   4.366  11.924  0.00  0.00    +0.000 C 
ATOM     15  C   UNL     1       6.098   3.434  12.612  0.00  0.00    +0.000 C 
ATOM     16  C   UNL     1       6.188   3.739  14.101  0.00  0.00    +0.000 C 
ENDBRANCH  11  12
ENDBRANCH  10  11
ENDBRANCH   9  10
ENDBRANCH   1   9
TORSDOF 5
ENDMDL
