MODEL 1
REMARK VINA RESULT:      -8.4      0.000      0.000
REMARK  Name = 
REMARK  11 active torsions:
REMARK  status: ('A' for Active; 'I' for Inactive)
REMARK    1  A    between atoms: C_1  and  C_2
REMARK    2  A    between atoms: C_7  and  S_8
REMARK    3  A    between atoms: S_8  and  N_11
REMARK    4  A    between atoms: N_11  and  C_12
REMARK    5  A    between atoms: C_15  and  C_16
REMARK    6  A    between atoms: C_17  and  C_18
REMARK    7  A    between atoms: C_18  and  C_19
REMARK    8  A    between atoms: N_21  and  C_22
REMARK    9  A    between atoms: C_22  and  C_23
REMARK   10  A    between atoms: C_29  and  C_30
REMARK   11  A    between atoms: C_31  and  O_32
REMARK                            x       y       z     vdW  Elec       q    Type
REMARK                         _______ _______ _______ _____ _____    ______ ____
ROOT
ATOM      1  C   UNL     1       2.213   7.951  18.948  0.00  0.00    +0.000 A 
ATOM      2  C   UNL     1       1.976   7.476  20.236  0.00  0.00    +0.000 A 
ATOM      3  C   UNL     1       1.156   8.189  21.102  0.00  0.00    +0.000 A 
ATOM      4  C   UNL     1       0.543   9.387  20.695  0.00  0.00    +0.000 A 
ATOM      5  C   UNL     1      -0.347  10.083  21.702  0.00  0.00    +0.000 C 
ATOM      6  C   UNL     1       0.745   9.881  19.367  0.00  0.00    +0.000 A 
ATOM      7  C   UNL     1       1.597   9.134  18.500  0.00  0.00    +0.000 A 
ENDROOT
BRANCH   1   8
ATOM      8  N   UNL     1       3.101   7.247  18.099  0.00  0.00    +0.000 N 
ATOM      9  H   UNL     1       2.848   7.252  17.105  0.00  0.00    +0.000 HD
BRANCH   8  10
ATOM     10  S   UNL     1       3.744   5.692  18.597  0.00  0.00    +0.000 S 
ATOM     11  O   UNL     1       5.044   6.016  19.351  0.00  0.00    +0.000 OA
ATOM     12  O   UNL     1       4.298   5.068  17.305  0.00  0.00    +0.000 OA
BRANCH  10  19
ATOM     13  C   UNL     1       1.162   4.141  17.467  0.00  0.00    +0.000 C 
ATOM     14  C   UNL     1       1.562   3.888  18.895  0.00  0.00    +0.000 A 
ATOM     15  C   UNL     1       0.803   2.974  19.650  0.00  0.00    +0.000 A 
ATOM     16  C   UNL     1       1.131   2.703  20.977  0.00  0.00    +0.000 A 
ATOM     17  C   UNL     1       2.219   3.341  21.570  0.00  0.00    +0.000 A 
ATOM     18  C   UNL     1       2.985   4.249  20.837  0.00  0.00    +0.000 A 
ATOM     19  C   UNL     1       2.673   4.535  19.498  0.00  0.00    +0.000 A 
ENDBRANCH  10  19
ENDBRANCH   8  10
ENDBRANCH   1   8
BRANCH   7  20
ATOM     20  O   UNL     1       1.839   9.494  17.220  0.00  0.00    +0.000 OA
ATOM     21  H   UNL     1       1.498  10.287  16.794  0.00  0.00    +0.000 HD
ENDBRANCH   7  20
BRANCH   6  22
ATOM     22  C   UNL     1       0.016  11.138  18.869  0.00  0.00    +0.000 C 
BRANCH  22  23
ATOM     23  C   UNL     1      -1.467  11.003  18.555  0.00  0.00    +0.000 C 
ATOM     24  O   UNL     1      -1.850   9.967  18.028  0.00  0.00    +0.000 OA
ATOM     25  N   UNL     1      -2.367  11.989  18.834  0.00  0.00    +0.000 N 
ATOM     26  H   UNL     1      -2.033  12.877  19.236  0.00  0.00    +0.000 HD
BRANCH  25  27
ATOM     27  C   UNL     1      -3.776  11.862  18.467  0.00  0.00    +0.000 C 
BRANCH  27  28
ATOM     28  C   UNL     1      -4.755  12.127  19.609  0.00  0.00    +0.000 A 
ATOM     29  C   UNL     1      -4.362  12.801  20.784  0.00  0.00    +0.000 A 
ATOM     30  C   UNL     1      -5.290  13.084  21.785  0.00  0.00    +0.000 A 
ATOM     31  C   UNL     1      -6.621  12.690  21.625  0.00  0.00    +0.000 A 
ATOM     32  N   UNL     1      -7.586  12.986  22.617  0.00  0.00    +0.000 N 
ATOM     33  N   UNL     1      -6.991  12.027  20.499  0.00  0.00    +0.000 NA
ATOM     34  C   UNL     1      -6.116  11.735  19.498  0.00  0.00    +0.000 A 
ATOM     35  C   UNL     1      -6.636  10.988  18.304  0.00  0.00    +0.000 C 
ATOM     36  H   UNL     1      -7.327  13.502  23.470  0.00  0.00    +0.000 HD
ATOM     37  H   UNL     1      -8.569  12.703  22.487  0.00  0.00    +0.000 HD
ENDBRANCH  27  28
ENDBRANCH  25  27
ENDBRANCH  22  23
ENDBRANCH   6  22
TORSDOF 8
ENDMDL
MODEL 2
REMARK VINA RESULT:      -8.3      4.062      6.526
REMARK  Name = 
REMARK  11 active torsions:
REMARK  status: ('A' for Active; 'I' for Inactive)
REMARK    1  A    between atoms: C_1  and  C_2
REMARK    2  A    between atoms: C_7  and  S_8
REMARK    3  A    between atoms: S_8  and  N_11
REMARK    4  A    between atoms: N_11  and  C_12
REMARK    5  A    between atoms: C_15  and  C_16
REMARK    6  A    between atoms: C_17  and  C_18
REMARK    7  A    between atoms: C_18  and  C_19
REMARK    8  A    between atoms: N_21  and  C_22
REMARK    9  A    between atoms: C_22  and  C_23
REMARK   10  A    between atoms: C_29  and  C_30
REMARK   11  A    between atoms: C_31  and  O_32
REMARK                            x       y       z     vdW  Elec       q    Type
REMARK                         _______ _______ _______ _____ _____    ______ ____
ROOT
ATOM      1  C   UNL     1       4.889   3.897  17.605  0.00  0.00    +0.000 A 
ATOM      2  C   UNL     1       4.101   2.835  17.168  0.00  0.00    +0.000 A 
ATOM      3  C   UNL     1       2.860   2.603  17.749  0.00  0.00    +0.000 A 
ATOM      4  C   UNL     1       2.374   3.436  18.772  0.00  0.00    +0.000 A 
ATOM      5  C   UNL     1       1.005   3.114  19.331  0.00  0.00    +0.000 C 
ATOM      6  C   UNL     1       3.151   4.551  19.219  0.00  0.00    +0.000 A 
ATOM      7  C   UNL     1       4.424   4.764  18.611  0.00  0.00    +0.000 A 
ENDROOT
BRANCH   1   8
ATOM      8  N   UNL     1       6.178   4.083  17.048  0.00  0.00    +0.000 N 
ATOM      9  H   UNL     1       6.940   4.166  17.730  0.00  0.00    +0.000 HD
BRANCH   8  10
ATOM     10  S   UNL     1       6.398   5.180  15.696  0.00  0.00    +0.000 S 
ATOM     11  O   UNL     1       7.670   5.977  16.027  0.00  0.00    +0.000 OA
ATOM     12  O   UNL     1       5.316   6.255  15.887  0.00  0.00    +0.000 OA
BRANCH  10  19
ATOM     13  C   UNL     1       8.472   5.865  13.335  0.00  0.00    +0.000 C 
ATOM     14  C   UNL     1       7.378   4.876  13.040  0.00  0.00    +0.000 A 
ATOM     15  C   UNL     1       7.332   4.290  11.761  0.00  0.00    +0.000 A 
ATOM     16  C   UNL     1       6.339   3.367  11.437  0.00  0.00    +0.000 A 
ATOM     17  C   UNL     1       5.376   3.019  12.382  0.00  0.00    +0.000 A 
ATOM     18  C   UNL     1       5.405   3.588  13.657  0.00  0.00    +0.000 A 
ATOM     19  C   UNL     1       6.399   4.518  14.005  0.00  0.00    +0.000 A 
ENDBRANCH  10  19
ENDBRANCH   8  10
ENDBRANCH   1   8
BRANCH   7  20
ATOM     20  O   UNL     1       5.230   5.799  18.938  0.00  0.00    +0.000 OA
ATOM     21  H   UNL     1       6.175   5.733  19.103  0.00  0.00    +0.000 HD
ENDBRANCH   7  20
BRANCH   6  22
ATOM     22  C   UNL     1       2.603   5.528  20.271  0.00  0.00    +0.000 C 
BRANCH  22  23
ATOM     23  C   UNL     1       2.194   6.912  19.789  0.00  0.00    +0.000 C 
ATOM     24  O   UNL     1       2.357   7.178  18.605  0.00  0.00    +0.000 OA
ATOM     25  N   UNL     1       1.667   7.851  20.624  0.00  0.00    +0.000 N 
ATOM     26  H   UNL     1       1.574   7.639  21.628  0.00  0.00    +0.000 HD
BRANCH  25  27
ATOM     27  C   UNL     1       1.338   9.195  20.152  0.00  0.00    +0.000 C 
BRANCH  27  28
ATOM     28  C   UNL     1       0.355   9.956  21.038  0.00  0.00    +0.000 A 
ATOM     29  C   UNL     1      -0.016   9.484  22.314  0.00  0.00    +0.000 A 
ATOM     30  C   UNL     1      -0.868  10.229  23.128  0.00  0.00    +0.000 A 
ATOM     31  C   UNL     1      -1.364  11.453  22.672  0.00  0.00    +0.000 A 
ATOM     32  N   UNL     1      -2.212  12.238  23.489  0.00  0.00    +0.000 N 
ATOM     33  N   UNL     1      -1.017  11.896  21.436  0.00  0.00    +0.000 NA
ATOM     34  C   UNL     1      -0.186  11.200  20.613  0.00  0.00    +0.000 A 
ATOM     35  C   UNL     1       0.120  11.783  19.263  0.00  0.00    +0.000 C 
ATOM     36  H   UNL     1      -2.473  11.925  24.434  0.00  0.00    +0.000 HD
ATOM     37  H   UNL     1      -2.564  13.146  23.151  0.00  0.00    +0.000 HD
ENDBRANCH  27  28
ENDBRANCH  25  27
ENDBRANCH  22  23
ENDBRANCH   6  22
TORSDOF 8
ENDMDL
MODEL 3
REMARK VINA RESULT:      -8.3      3.028      4.810
REMARK  Name = 
REMARK  11 active torsions:
REMARK  status: ('A' for Active; 'I' for Inactive)
REMARK    1  A    between atoms: C_1  and  C_2
REMARK    2  A    between atoms: C_7  and  S_8
REMARK    3  A    between atoms: S_8  and  N_11
REMARK    4  A    between atoms: N_11  and  C_12
REMARK    5  A    between atoms: C_15  and  C_16
REMARK    6  A    between atoms: C_17  and  C_18
REMARK    7  A    between atoms: C_18  and  C_19
REMARK    8  A    between atoms: N_21  and  C_22
REMARK    9  A    between atoms: C_22  and  C_23
REMARK   10  A    between atoms: C_29  and  C_30
REMARK   11  A    between atoms: C_31  and  O_32
REMARK                            x       y       z     vdW  Elec       q    Type
REMARK                         _______ _______ _______ _____ _____    ______ ____
ROOT
ATOM      1  C   UNL     1       2.591   5.665  19.068  0.00  0.00    +0.000 A 
ATOM      2  C   UNL     1       2.841   6.094  17.767  0.00  0.00    +0.000 A 
ATOM      3  C   UNL     1       2.649   7.425  17.423  0.00  0.00    +0.000 A 
ATOM      4  C   UNL     1       2.214   8.363  18.376  0.00  0.00    +0.000 A 
ATOM      5  C   UNL     1       2.050   9.794  17.911  0.00  0.00    +0.000 C 
ATOM      6  C   UNL     1       1.980   7.956  19.727  0.00  0.00    +0.000 A 
ATOM      7  C   UNL     1       2.178   6.581  20.054  0.00  0.00    +0.000 A 
ENDROOT
BRANCH   1   8
ATOM      8  N   UNL     1       2.730   4.292  19.389  0.00  0.00    +0.000 N 
ATOM      9  H   UNL     1       2.616   4.064  20.382  0.00  0.00    +0.000 HD
BRANCH   8  10
ATOM     10  S   UNL     1       4.009   3.344  18.649  0.00  0.00    +0.000 S 
ATOM     11  O   UNL     1       3.304   2.116  18.051  0.00  0.00    +0.000 OA
ATOM     12  O   UNL     1       4.757   2.709  19.833  0.00  0.00    +0.000 OA
BRANCH  10  19
ATOM     13  C   UNL     1       6.375   5.409  19.342  0.00  0.00    +0.000 C 
ATOM     14  C   UNL     1       6.175   5.032  17.900  0.00  0.00    +0.000 A 
ATOM     15  C   UNL     1       7.043   5.582  16.938  0.00  0.00    +0.000 A 
ATOM     16  C   UNL     1       6.901   5.264  15.588  0.00  0.00    +0.000 A 
ATOM     17  C   UNL     1       5.891   4.397  15.179  0.00  0.00    +0.000 A 
ATOM     18  C   UNL     1       5.021   3.839  16.118  0.00  0.00    +0.000 A 
ATOM     19  C   UNL     1       5.148   4.144  17.484  0.00  0.00    +0.000 A 
ENDBRANCH  10  19
ENDBRANCH   8  10
ENDBRANCH   1   8
BRANCH   7  20
ATOM     20  O   UNL     1       2.009   6.091  21.302  0.00  0.00    +0.000 OA
ATOM     21  H   UNL     1       2.691   5.656  21.822  0.00  0.00    +0.000 HD
ENDBRANCH   7  20
BRANCH   6  22
ATOM     22  C   UNL     1       1.593   8.977  20.807  0.00  0.00    +0.000 C 
BRANCH  22  23
ATOM     23  C   UNL     1       0.591  10.055  20.419  0.00  0.00    +0.000 C 
ATOM     24  O   UNL     1       0.890  11.221  20.641  0.00  0.00    +0.000 OA
ATOM     25  N   UNL     1      -0.611   9.765  19.846  0.00  0.00    +0.000 N 
ATOM     26  H   UNL     1      -0.877   8.780  19.703  0.00  0.00    +0.000 HD
BRANCH  25  27
ATOM     27  C   UNL     1      -1.582  10.812  19.538  0.00  0.00    +0.000 C 
BRANCH  27  28
ATOM     28  C   UNL     1      -2.252  10.675  18.172  0.00  0.00    +0.000 A 
ATOM     29  C   UNL     1      -1.653   9.951  17.120  0.00  0.00    +0.000 A 
ATOM     30  C   UNL     1      -2.314   9.790  15.903  0.00  0.00    +0.000 A 
ATOM     31  C   UNL     1      -3.579  10.356  15.722  0.00  0.00    +0.000 A 
ATOM     32  N   UNL     1      -4.278  10.186  14.504  0.00  0.00    +0.000 N 
ATOM     33  N   UNL     1      -4.144  11.066  16.733  0.00  0.00    +0.000 NA
ATOM     34  C   UNL     1      -3.533  11.243  17.936  0.00  0.00    +0.000 A 
ATOM     35  C   UNL     1      -4.249  12.056  18.976  0.00  0.00    +0.000 C 
ATOM     36  H   UNL     1      -3.872   9.638  13.732  0.00  0.00    +0.000 HD
ATOM     37  H   UNL     1      -5.217  10.596  14.382  0.00  0.00    +0.000 HD
ENDBRANCH  27  28
ENDBRANCH  25  27
ENDBRANCH  22  23
ENDBRANCH   6  22
TORSDOF 8
ENDMDL
MODEL 4
REMARK VINA RESULT:      -8.2      3.394      4.997
REMARK  Name = 
REMARK  11 active torsions:
REMARK  status: ('A' for Active; 'I' for Inactive)
REMARK    1  A    between atoms: C_1  and  C_2
REMARK    2  A    between atoms: C_7  and  S_8
REMARK    3  A    between atoms: S_8  and  N_11
REMARK    4  A    between atoms: N_11  and  C_12
REMARK    5  A    between atoms: C_15  and  C_16
REMARK    6  A    between atoms: C_17  and  C_18
REMARK    7  A    between atoms: C_18  and  C_19
REMARK    8  A    between atoms: N_21  and  C_22
REMARK    9  A    between atoms: C_22  and  C_23
REMARK   10  A    between atoms: C_29  and  C_30
REMARK   11  A    between atoms: C_31  and  O_32
REMARK                            x       y       z     vdW  Elec       q    Type
REMARK                         _______ _______ _______ _____ _____    ______ ____
ROOT
ATOM      1  C   UNL     1       2.676   5.275  19.058  0.00  0.00    +0.000 A 
ATOM      2  C   UNL     1       2.917   5.792  17.787  0.00  0.00    +0.000 A 
ATOM      3  C   UNL     1       2.716   7.143  17.535  0.00  0.00    +0.000 A 
ATOM      4  C   UNL     1       2.282   8.012  18.552  0.00  0.00    +0.000 A 
ATOM      5  C   UNL     1       2.109   9.470  18.186  0.00  0.00    +0.000 C 
ATOM      6  C   UNL     1       2.057   7.512  19.874  0.00  0.00    +0.000 A 
ATOM      7  C   UNL     1       2.263   6.119  20.105  0.00  0.00    +0.000 A 
ENDROOT
BRANCH   1   8
ATOM      8  N   UNL     1       2.823   3.884  19.284  0.00  0.00    +0.000 N 
ATOM      9  H   UNL     1       2.586   3.569  20.230  0.00  0.00    +0.000 HD
BRANCH   8  10
ATOM     10  S   UNL     1       4.225   3.037  18.652  0.00  0.00    +0.000 S 
ATOM     11  O   UNL     1       3.681   1.703  18.115  0.00  0.00    +0.000 OA
ATOM     12  O   UNL     1       4.989   2.564  19.900  0.00  0.00    +0.000 OA
BRANCH  10  19
ATOM     13  C   UNL     1       6.374   5.342  19.293  0.00  0.00    +0.000 C 
ATOM     14  C   UNL     1       6.248   4.879  17.868  0.00  0.00    +0.000 A 
ATOM     15  C   UNL     1       7.088   5.460  16.899  0.00  0.00    +0.000 A 
ATOM     16  C   UNL     1       7.012   5.066  15.564  0.00  0.00    +0.000 A 
ATOM     17  C   UNL     1       6.097   4.090  15.177  0.00  0.00    +0.000 A 
ATOM     18  C   UNL     1       5.256   3.500  16.123  0.00  0.00    +0.000 A 
ATOM     19  C   UNL     1       5.318   3.881  17.474  0.00  0.00    +0.000 A 
ENDBRANCH  10  19
ENDBRANCH   8  10
ENDBRANCH   1   8
BRANCH   7  20
ATOM     20  O   UNL     1       2.103   5.545  21.318  0.00  0.00    +0.000 OA
ATOM     21  H   UNL     1       1.853   4.628  21.467  0.00  0.00    +0.000 HD
ENDBRANCH   7  20
BRANCH   6  22
ATOM     22  C   UNL     1       1.670   8.455  21.023  0.00  0.00    +0.000 C 
BRANCH  22  23
ATOM     23  C   UNL     1       0.334   9.174  20.913  0.00  0.00    +0.000 C 
ATOM     24  O   UNL     1      -0.671   8.574  21.271  0.00  0.00    +0.000 OA
ATOM     25  N   UNL     1       0.223  10.444  20.430  0.00  0.00    +0.000 N 
ATOM     26  H   UNL     1       1.065  10.929  20.087  0.00  0.00    +0.000 HD
BRANCH  25  27
ATOM     27  C   UNL     1      -1.078  11.092  20.276  0.00  0.00    +0.000 C 
BRANCH  27  28
ATOM     28  C   UNL     1      -1.689  10.967  18.882  0.00  0.00    +0.000 A 
ATOM     29  C   UNL     1      -2.504   9.874  18.523  0.00  0.00    +0.000 A 
ATOM     30  C   UNL     1      -3.099   9.814  17.263  0.00  0.00    +0.000 A 
ATOM     31  C   UNL     1      -2.879  10.845  16.346  0.00  0.00    +0.000 A 
ATOM     32  N   UNL     1      -3.490  10.818  15.070  0.00  0.00    +0.000 N 
ATOM     33  N   UNL     1      -2.079  11.887  16.690  0.00  0.00    +0.000 NA
ATOM     34  C   UNL     1      -1.483  11.983  17.911  0.00  0.00    +0.000 A 
ATOM     35  C   UNL     1      -0.612  13.176  18.176  0.00  0.00    +0.000 C 
ATOM     36  H   UNL     1      -4.112  10.044  14.797  0.00  0.00    +0.000 HD
ATOM     37  H   UNL     1      -3.333  11.588  14.402  0.00  0.00    +0.000 HD
ENDBRANCH  27  28
ENDBRANCH  25  27
ENDBRANCH  22  23
ENDBRANCH   6  22
TORSDOF 8
ENDMDL
MODEL 5
REMARK VINA RESULT:      -8.1      3.415      6.290
REMARK  Name = 
REMARK  11 active torsions:
REMARK  status: ('A' for Active; 'I' for Inactive)
REMARK    1  A    between atoms: C_1  and  C_2
REMARK    2  A    between atoms: C_7  and  S_8
REMARK    3  A    between atoms: S_8  and  N_11
REMARK    4  A    between atoms: N_11  and  C_12
REMARK    5  A    between atoms: C_15  and  C_16
REMARK    6  A    between atoms: C_17  and  C_18
REMARK    7  A    between atoms: C_18  and  C_19
REMARK    8  A    between atoms: N_21  and  C_22
REMARK    9  A    between atoms: C_22  and  C_23
REMARK   10  A    between atoms: C_29  and  C_30
REMARK   11  A    between atoms: C_31  and  O_32
REMARK                            x       y       z     vdW  Elec       q    Type
REMARK                         _______ _______ _______ _____ _____    ______ ____
ROOT
ATOM      1  C   UNL     1       4.619   3.623  18.438  0.00  0.00    +0.000 A 
ATOM      2  C   UNL     1       3.896   2.592  17.843  0.00  0.00    +0.000 A 
ATOM      3  C   UNL     1       2.564   2.390  18.180  0.00  0.00    +0.000 A 
ATOM      4  C   UNL     1       1.919   3.223  19.112  0.00  0.00    +0.000 A 
ATOM      5  C   UNL     1       0.462   2.936  19.402  0.00  0.00    +0.000 C 
ATOM      6  C   UNL     1       2.631   4.308  19.715  0.00  0.00    +0.000 A 
ATOM      7  C   UNL     1       4.000   4.490  19.358  0.00  0.00    +0.000 A 
ENDROOT
BRANCH   1   8
ATOM      8  N   UNL     1       5.993   3.777  18.132  0.00  0.00    +0.000 N 
ATOM      9  H   UNL     1       6.629   3.708  18.935  0.00  0.00    +0.000 HD
BRANCH   8  10
ATOM     10  S   UNL     1       6.506   5.021  17.005  0.00  0.00    +0.000 S 
ATOM     11  O   UNL     1       5.281   5.287  16.115  0.00  0.00    +0.000 OA
ATOM     12  O   UNL     1       7.436   4.293  16.020  0.00  0.00    +0.000 OA
BRANCH  10  19
ATOM     13  C   UNL     1       8.308   5.342  19.650  0.00  0.00    +0.000 C 
ATOM     14  C   UNL     1       8.058   6.571  18.819  0.00  0.00    +0.000 A 
ATOM     15  C   UNL     1       8.640   7.786  19.228  0.00  0.00    +0.000 A 
ATOM     16  C   UNL     1       8.441   8.953  18.494  0.00  0.00    +0.000 A 
ATOM     17  C   UNL     1       7.655   8.927  17.343  0.00  0.00    +0.000 A 
ATOM     18  C   UNL     1       7.070   7.732  16.919  0.00  0.00    +0.000 A 
ATOM     19  C   UNL     1       7.261   6.543  17.644  0.00  0.00    +0.000 A 
ENDBRANCH  10  19
ENDBRANCH   8  10
ENDBRANCH   1   8
BRANCH   7  20
ATOM     20  O   UNL     1       4.760   5.495  19.847  0.00  0.00    +0.000 OA
ATOM     21  H   UNL     1       5.583   5.805  19.459  0.00  0.00    +0.000 HD
ENDBRANCH   7  20
BRANCH   6  22
ATOM     22  C   UNL     1       1.926   5.287  20.667  0.00  0.00    +0.000 C 
BRANCH  22  23
ATOM     23  C   UNL     1       1.880   6.750  20.252  0.00  0.00    +0.000 C 
ATOM     24  O   UNL     1       2.241   7.035  19.118  0.00  0.00    +0.000 OA
ATOM     25  N   UNL     1       1.462   7.737  21.094  0.00  0.00    +0.000 N 
ATOM     26  H   UNL     1       1.202   7.498  22.062  0.00  0.00    +0.000 HD
BRANCH  25  27
ATOM     27  C   UNL     1       1.484   9.142  20.694  0.00  0.00    +0.000 C 
BRANCH  27  28
ATOM     28  C   UNL     1       0.469  10.024  21.417  0.00  0.00    +0.000 A 
ATOM     29  C   UNL     1      -0.220   9.578  22.563  0.00  0.00    +0.000 A 
ATOM     30  C   UNL     1      -1.097  10.425  23.240  0.00  0.00    +0.000 A 
ATOM     31  C   UNL     1      -1.299  11.727  22.774  0.00  0.00    +0.000 A 
ATOM     32  N   UNL     1      -2.166  12.612  23.457  0.00  0.00    +0.000 N 
ATOM     33  N   UNL     1      -0.645  12.147  21.660  0.00  0.00    +0.000 NA
ATOM     34  C   UNL     1       0.221  11.351  20.973  0.00  0.00    +0.000 A 
ATOM     35  C   UNL     1       0.879  11.919  19.749  0.00  0.00    +0.000 C 
ATOM     36  H   UNL     1      -2.658  12.316  24.312  0.00  0.00    +0.000 HD
ATOM     37  H   UNL     1      -2.300  13.575  23.115  0.00  0.00    +0.000 HD
ENDBRANCH  27  28
ENDBRANCH  25  27
ENDBRANCH  22  23
ENDBRANCH   6  22
TORSDOF 8
ENDMDL
MODEL 6
REMARK VINA RESULT:      -8.1      3.590     10.122
REMARK  Name = 
REMARK  11 active torsions:
REMARK  status: ('A' for Active; 'I' for Inactive)
REMARK    1  A    between atoms: C_1  and  C_2
REMARK    2  A    between atoms: C_7  and  S_8
REMARK    3  A    between atoms: S_8  and  N_11
REMARK    4  A    between atoms: N_11  and  C_12
REMARK    5  A    between atoms: C_15  and  C_16
REMARK    6  A    between atoms: C_17  and  C_18
REMARK    7  A    between atoms: C_18  and  C_19
REMARK    8  A    between atoms: N_21  and  C_22
REMARK    9  A    between atoms: C_22  and  C_23
REMARK   10  A    between atoms: C_29  and  C_30
REMARK   11  A    between atoms: C_31  and  O_32
REMARK                            x       y       z     vdW  Elec       q    Type
REMARK                         _______ _______ _______ _____ _____    ______ ____
ROOT
ATOM      1  C   UNL     1      -1.064  12.892  20.320  0.00  0.00    +0.000 A 
ATOM      2  C   UNL     1      -2.336  12.548  19.869  0.00  0.00    +0.000 A 
ATOM      3  C   UNL     1      -2.486  11.601  18.864  0.00  0.00    +0.000 A 
ATOM      4  C   UNL     1      -1.367  10.965  18.297  0.00  0.00    +0.000 A 
ATOM      5  C   UNL     1      -1.632   9.934  17.221  0.00  0.00    +0.000 C 
ATOM      6  C   UNL     1      -0.052  11.277  18.764  0.00  0.00    +0.000 A 
ATOM      7  C   UNL     1       0.077  12.259  19.791  0.00  0.00    +0.000 A 
ENDROOT
BRANCH   1   8
ATOM      8  N   UNL     1      -0.922  13.905  21.300  0.00  0.00    +0.000 N 
ATOM      9  H   UNL     1      -0.042  14.430  21.260  0.00  0.00    +0.000 HD
BRANCH   8  10
ATOM     10  S   UNL     1      -1.420  13.600  22.955  0.00  0.00    +0.000 S 
ATOM     11  O   UNL     1      -0.604  14.585  23.809  0.00  0.00    +0.000 OA
ATOM     12  O   UNL     1      -0.751  12.265  23.323  0.00  0.00    +0.000 OA
BRANCH  10  19
ATOM     13  C   UNL     1      -3.572  15.896  22.292  0.00  0.00    +0.000 C 
ATOM     14  C   UNL     1      -4.058  14.667  23.010  0.00  0.00    +0.000 A 
ATOM     15  C   UNL     1      -5.425  14.577  23.333  0.00  0.00    +0.000 A 
ATOM     16  C   UNL     1      -5.927  13.459  23.997  0.00  0.00    +0.000 A 
ATOM     17  C   UNL     1      -5.073  12.417  24.352  0.00  0.00    +0.000 A 
ATOM     18  C   UNL     1      -3.713  12.486  24.039  0.00  0.00    +0.000 A 
ATOM     19  C   UNL     1      -3.187  13.603  23.368  0.00  0.00    +0.000 A 
ENDBRANCH  10  19
ENDBRANCH   8  10
ENDBRANCH   1   8
BRANCH   7  20
ATOM     20  O   UNL     1       1.267  12.614  20.324  0.00  0.00    +0.000 OA
ATOM     21  H   UNL     1       2.126  12.420  19.936  0.00  0.00    +0.000 HD
ENDBRANCH   7  20
BRANCH   6  22
ATOM     22  C   UNL     1       1.178  10.532  18.224  0.00  0.00    +0.000 C 
BRANCH  22  23
ATOM     23  C   UNL     1       1.489   9.172  18.831  0.00  0.00    +0.000 C 
ATOM     24  O   UNL     1       1.120   8.958  19.978  0.00  0.00    +0.000 OA
ATOM     25  N   UNL     1       2.160   8.202  18.148  0.00  0.00    +0.000 N 
ATOM     26  H   UNL     1       2.509   8.402  17.199  0.00  0.00    +0.000 HD
BRANCH  25  27
ATOM     27  C   UNL     1       2.501   6.925  18.771  0.00  0.00    +0.000 C 
BRANCH  27  28
ATOM     28  C   UNL     1       3.427   6.040  17.940  0.00  0.00    +0.000 A 
ATOM     29  C   UNL     1       4.684   6.494  17.490  0.00  0.00    +0.000 A 
ATOM     30  C   UNL     1       5.535   5.644  16.784  0.00  0.00    +0.000 A 
ATOM     31  C   UNL     1       5.136   4.333  16.515  0.00  0.00    +0.000 A 
ATOM     32  N   UNL     1       5.992   3.446  15.820  0.00  0.00    +0.000 N 
ATOM     33  N   UNL     1       3.917   3.906  16.935  0.00  0.00    +0.000 NA
ATOM     34  C   UNL     1       3.059   4.703  17.629  0.00  0.00    +0.000 A 
ATOM     35  C   UNL     1       1.733   4.125  18.034  0.00  0.00    +0.000 C 
ATOM     36  H   UNL     1       6.925   3.747  15.507  0.00  0.00    +0.000 HD
ATOM     37  H   UNL     1       5.695   2.475  15.635  0.00  0.00    +0.000 HD
ENDBRANCH  27  28
ENDBRANCH  25  27
ENDBRANCH  22  23
ENDBRANCH   6  22
TORSDOF 8
ENDMDL
MODEL 7
REMARK VINA RESULT:      -8.1      2.159      2.804
REMARK  Name = 
REMARK  11 active torsions:
REMARK  status: ('A' for Active; 'I' for Inactive)
REMARK    1  A    between atoms: C_1  and  C_2
REMARK    2  A    between atoms: C_7  and  S_8
REMARK    3  A    between atoms: S_8  and  N_11
REMARK    4  A    between atoms: N_11  and  C_12
REMARK    5  A    between atoms: C_15  and  C_16
REMARK    6  A    between atoms: C_17  and  C_18
REMARK    7  A    between atoms: C_18  and  C_19
REMARK    8  A    between atoms: N_21  and  C_22
REMARK    9  A    between atoms: C_22  and  C_23
REMARK   10  A    between atoms: C_29  and  C_30
REMARK   11  A    between atoms: C_31  and  O_32
REMARK                            x       y       z     vdW  Elec       q    Type
REMARK                         _______ _______ _______ _____ _____    ______ ____
ROOT
ATOM      1  C   UNL     1       2.077   8.336  18.942  0.00  0.00    +0.000 A 
ATOM      2  C   UNL     1       1.906   7.751  20.194  0.00  0.00    +0.000 A 
ATOM      3  C   UNL     1       1.084   8.353  21.138  0.00  0.00    +0.000 A 
ATOM      4  C   UNL     1       0.403   9.549  20.847  0.00  0.00    +0.000 A 
ATOM      5  C   UNL     1      -0.483  10.119  21.933  0.00  0.00    +0.000 C 
ATOM      6  C   UNL     1       0.537  10.154  19.557  0.00  0.00    +0.000 A 
ATOM      7  C   UNL     1       1.393   9.520  18.608  0.00  0.00    +0.000 A 
ENDROOT
BRANCH   1   8
ATOM      8  N   UNL     1       2.968   7.745  18.012  0.00  0.00    +0.000 N 
ATOM      9  H   UNL     1       2.871   8.076  17.046  0.00  0.00    +0.000 HD
BRANCH   8  10
ATOM     10  S   UNL     1       3.286   6.020  18.077  0.00  0.00    +0.000 S 
ATOM     11  O   UNL     1       1.900   5.355  18.050  0.00  0.00    +0.000 OA
ATOM     12  O   UNL     1       3.712   5.758  19.531  0.00  0.00    +0.000 OA
BRANCH  10  19
ATOM     13  C   UNL     1       3.940   2.898  17.671  0.00  0.00    +0.000 C 
ATOM     14  C   UNL     1       4.649   3.883  16.782  0.00  0.00    +0.000 A 
ATOM     15  C   UNL     1       5.539   3.388  15.811  0.00  0.00    +0.000 A 
ATOM     16  C   UNL     1       6.221   4.259  14.962  0.00  0.00    +0.000 A 
ATOM     17  C   UNL     1       6.026   5.634  15.072  0.00  0.00    +0.000 A 
ATOM     18  C   UNL     1       5.146   6.145  16.027  0.00  0.00    +0.000 A 
ATOM     19  C   UNL     1       4.447   5.285  16.892  0.00  0.00    +0.000 A 
ENDBRANCH  10  19
ENDBRANCH   8  10
ENDBRANCH   1   8
BRANCH   7  20
ATOM     20  O   UNL     1       1.575   9.991  17.354  0.00  0.00    +0.000 OA
ATOM     21  H   UNL     1       0.869  10.224  16.744  0.00  0.00    +0.000 HD
ENDBRANCH   7  20
BRANCH   6  22
ATOM     22  C   UNL     1      -0.266  11.409  19.184  0.00  0.00    +0.000 C 
BRANCH  22  23
ATOM     23  C   UNL     1      -1.740  11.221  18.858  0.00  0.00    +0.000 C 
ATOM     24  O   UNL     1      -2.099  10.128  18.437  0.00  0.00    +0.000 OA
ATOM     25  N   UNL     1      -2.657  12.217  19.012  0.00  0.00    +0.000 N 
ATOM     26  H   UNL     1      -2.343  13.148  19.322  0.00  0.00    +0.000 HD
BRANCH  25  27
ATOM     27  C   UNL     1      -4.057  12.032  18.634  0.00  0.00    +0.000 C 
BRANCH  27  28
ATOM     28  C   UNL     1      -5.044  12.110  19.796  0.00  0.00    +0.000 A 
ATOM     29  C   UNL     1      -4.732  12.791  20.991  0.00  0.00    +0.000 A 
ATOM     30  C   UNL     1      -5.674  12.899  22.014  0.00  0.00    +0.000 A 
ATOM     31  C   UNL     1      -6.937  12.322  21.855  0.00  0.00    +0.000 A 
ATOM     32  N   UNL     1      -7.917  12.438  22.869  0.00  0.00    +0.000 N 
ATOM     33  N   UNL     1      -7.226  11.653  20.709  0.00  0.00    +0.000 NA
ATOM     34  C   UNL     1      -6.335  11.528  19.687  0.00  0.00    +0.000 A 
ATOM     35  C   UNL     1      -6.762  10.757  18.471  0.00  0.00    +0.000 C 
ATOM     36  H   UNL     1      -7.720  12.955  23.738  0.00  0.00    +0.000 HD
ATOM     37  H   UNL     1      -8.850  12.020  22.739  0.00  0.00    +0.000 HD
ENDBRANCH  27  28
ENDBRANCH  25  27
ENDBRANCH  22  23
ENDBRANCH   6  22
TORSDOF 8
ENDMDL
MODEL 8
REMARK VINA RESULT:      -8.0      3.285      4.844
REMARK  Name = 
REMARK  11 active torsions:
REMARK  status: ('A' for Active; 'I' for Inactive)
REMARK    1  A    between atoms: C_1  and  C_2
REMARK    2  A    between atoms: C_7  and  S_8
REMARK    3  A    between atoms: S_8  and  N_11
REMARK    4  A    between atoms: N_11  and  C_12
REMARK    5  A    between atoms: C_15  and  C_16
REMARK    6  A    between atoms: C_17  and  C_18
REMARK    7  A    between atoms: C_18  and  C_19
REMARK    8  A    between atoms: N_21  and  C_22
REMARK    9  A    between atoms: C_22  and  C_23
REMARK   10  A    between atoms: C_29  and  C_30
REMARK   11  A    between atoms: C_31  and  O_32
REMARK                            x       y       z     vdW  Elec       q    Type
REMARK                         _______ _______ _______ _____ _____    ______ ____
ROOT
ATOM      1  C   UNL     1       2.412   5.249  19.099  0.00  0.00    +0.000 A 
ATOM      2  C   UNL     1       2.438   5.863  17.850  0.00  0.00    +0.000 A 
ATOM      3  C   UNL     1       2.227   7.232  17.741  0.00  0.00    +0.000 A 
ATOM      4  C   UNL     1       1.998   8.021  18.882  0.00  0.00    +0.000 A 
ATOM      5  C   UNL     1       1.796   9.505  18.666  0.00  0.00    +0.000 C 
ATOM      6  C   UNL     1       1.996   7.420  20.181  0.00  0.00    +0.000 A 
ATOM      7  C   UNL     1       2.208   6.011  20.265  0.00  0.00    +0.000 A 
ENDROOT
BRANCH   1   8
ATOM      8  N   UNL     1       2.565   3.844  19.189  0.00  0.00    +0.000 N 
ATOM      9  H   UNL     1       2.274   3.430  20.081  0.00  0.00    +0.000 HD
BRANCH   8  10
ATOM     10  S   UNL     1       4.015   3.079  18.562  0.00  0.00    +0.000 S 
ATOM     11  O   UNL     1       3.538   1.751  17.952  0.00  0.00    +0.000 OA
ATOM     12  O   UNL     1       4.762   2.579  19.810  0.00  0.00    +0.000 OA
BRANCH  10  19
ATOM     13  C   UNL     1       6.092   5.397  19.373  0.00  0.00    +0.000 C 
ATOM     14  C   UNL     1       6.004   5.012  17.921  0.00  0.00    +0.000 A 
ATOM     15  C   UNL     1       6.846   5.667  17.003  0.00  0.00    +0.000 A 
ATOM     16  C   UNL     1       6.804   5.347  15.647  0.00  0.00    +0.000 A 
ATOM     17  C   UNL     1       5.921   4.372  15.188  0.00  0.00    +0.000 A 
ATOM     18  C   UNL     1       5.079   3.709  16.083  0.00  0.00    +0.000 A 
ATOM     19  C   UNL     1       5.107   4.015  17.454  0.00  0.00    +0.000 A 
ENDBRANCH  10  19
ENDBRANCH   8  10
ENDBRANCH   1   8
BRANCH   7  20
ATOM     20  O   UNL     1       2.250   5.344  21.439  0.00  0.00    +0.000 OA
ATOM     21  H   UNL     1       2.743   4.533  21.597  0.00  0.00    +0.000 HD
ENDBRANCH   7  20
BRANCH   6  22
ATOM     22  C   UNL     1       1.838   8.273  21.449  0.00  0.00    +0.000 C 
BRANCH  22  23
ATOM     23  C   UNL     1       0.482   8.919  21.688  0.00  0.00    +0.000 C 
ATOM     24  O   UNL     1      -0.519   8.256  21.448  0.00  0.00    +0.000 OA
ATOM     25  N   UNL     1       0.349  10.194  22.150  0.00  0.00    +0.000 N 
ATOM     26  H   UNL     1       1.193  10.764  22.307  0.00  0.00    +0.000 HD
BRANCH  25  27
ATOM     27  C   UNL     1      -0.964  10.814  22.314  0.00  0.00    +0.000 C 
BRANCH  27  28
ATOM     28  C   UNL     1      -1.109  12.179  21.645  0.00  0.00    +0.000 A 
ATOM     29  C   UNL     1      -0.985  13.381  22.372  0.00  0.00    +0.000 A 
ATOM     30  C   UNL     1      -1.061  14.614  21.726  0.00  0.00    +0.000 A 
ATOM     31  C   UNL     1      -1.270  14.660  20.345  0.00  0.00    +0.000 A 
ATOM     32  N   UNL     1      -1.328  15.898  19.664  0.00  0.00    +0.000 N 
ATOM     33  N   UNL     1      -1.405  13.499  19.651  0.00  0.00    +0.000 NA
ATOM     34  C   UNL     1      -1.334  12.276  20.245  0.00  0.00    +0.000 A 
ATOM     35  C   UNL     1      -1.509  11.062  19.379  0.00  0.00    +0.000 C 
ATOM     36  H   UNL     1      -1.212  16.787  20.171  0.00  0.00    +0.000 HD
ATOM     37  H   UNL     1      -1.470  15.923  18.643  0.00  0.00    +0.000 HD
ENDBRANCH  27  28
ENDBRANCH  25  27
ENDBRANCH  22  23
ENDBRANCH   6  22
TORSDOF 8
ENDMDL
MODEL 9
REMARK VINA RESULT:      -8.0      3.814      5.149
REMARK  Name = 
REMARK  11 active torsions:
REMARK  status: ('A' for Active; 'I' for Inactive)
REMARK    1  A    between atoms: C_1  and  C_2
REMARK    2  A    between atoms: C_7  and  S_8
REMARK    3  A    between atoms: S_8  and  N_11
REMARK    4  A    between atoms: N_11  and  C_12
REMARK    5  A    between atoms: C_15  and  C_16
REMARK    6  A    between atoms: C_17  and  C_18
REMARK    7  A    between atoms: C_18  and  C_19
REMARK    8  A    between atoms: N_21  and  C_22
REMARK    9  A    between atoms: C_22  and  C_23
REMARK   10  A    between atoms: C_29  and  C_30
REMARK   11  A    between atoms: C_31  and  O_32
REMARK                            x       y       z     vdW  Elec       q    Type
REMARK                         _______ _______ _______ _____ _____    ______ ____
ROOT
ATOM      1  C   UNL     1       2.421   7.732  18.856  0.00  0.00    +0.000 A 
ATOM      2  C   UNL     1       2.167   7.171  20.105  0.00  0.00    +0.000 A 
ATOM      3  C   UNL     1       1.319   7.813  20.998  0.00  0.00    +0.000 A 
ATOM      4  C   UNL     1       0.694   9.026  20.657  0.00  0.00    +0.000 A 
ATOM      5  C   UNL     1      -0.226   9.641  21.689  0.00  0.00    +0.000 C 
ATOM      6  C   UNL     1       0.914   9.608  19.369  0.00  0.00    +0.000 A 
ATOM      7  C   UNL     1       1.795   8.932  18.472  0.00  0.00    +0.000 A 
ENDROOT
BRANCH   1   8
ATOM      8  N   UNL     1       3.337   7.099  17.980  0.00  0.00    +0.000 N 
ATOM      9  H   UNL     1       3.131   7.207  16.981  0.00  0.00    +0.000 HD
BRANCH   8  10
ATOM     10  S   UNL     1       3.931   5.488  18.348  0.00  0.00    +0.000 S 
ATOM     11  O   UNL     1       5.292   5.707  19.029  0.00  0.00    +0.000 OA
ATOM     12  O   UNL     1       4.369   4.916  16.990  0.00  0.00    +0.000 OA
BRANCH  10  19
ATOM     13  C   UNL     1       1.125   4.254  17.373  0.00  0.00    +0.000 C 
ATOM     14  C   UNL     1       1.646   3.833  18.720  0.00  0.00    +0.000 A 
ATOM     15  C   UNL     1       0.893   2.909  19.469  0.00  0.00    +0.000 A 
ATOM     16  C   UNL     1       1.331   2.485  20.723  0.00  0.00    +0.000 A 
ATOM     17  C   UNL     1       2.524   2.978  21.248  0.00  0.00    +0.000 A 
ATOM     18  C   UNL     1       3.286   3.893  20.520  0.00  0.00    +0.000 A 
ATOM     19  C   UNL     1       2.864   4.332  19.253  0.00  0.00    +0.000 A 
ENDBRANCH  10  19
ENDBRANCH   8  10
ENDBRANCH   1   8
BRANCH   7  20
ATOM     20  O   UNL     1       2.056   9.379  17.223  0.00  0.00    +0.000 OA
ATOM     21  H   UNL     1       2.380  10.258  17.007  0.00  0.00    +0.000 HD
ENDBRANCH   7  20
BRANCH   6  22
ATOM     22  C   UNL     1       0.173  10.883  18.939  0.00  0.00    +0.000 C 
BRANCH  22  23
ATOM     23  C   UNL     1       0.625  12.194  19.565  0.00  0.00    +0.000 C 
ATOM     24  O   UNL     1      -0.175  12.801  20.265  0.00  0.00    +0.000 OA
ATOM     25  N   UNL     1       1.872  12.709  19.367  0.00  0.00    +0.000 N 
ATOM     26  H   UNL     1       2.526  12.218  18.740  0.00  0.00    +0.000 HD
BRANCH  25  27
ATOM     27  C   UNL     1       2.263  14.000  19.928  0.00  0.00    +0.000 C 
BRANCH  27  28
ATOM     28  C   UNL     1       1.941  15.201  19.041  0.00  0.00    +0.000 A 
ATOM     29  C   UNL     1       0.717  15.894  19.143  0.00  0.00    +0.000 A 
ATOM     30  C   UNL     1       0.474  17.024  18.364  0.00  0.00    +0.000 A 
ATOM     31  C   UNL     1       1.450  17.471  17.469  0.00  0.00    +0.000 A 
ATOM     32  N   UNL     1       1.235  18.628  16.684  0.00  0.00    +0.000 N 
ATOM     33  N   UNL     1       2.620  16.790  17.363  0.00  0.00    +0.000 NA
ATOM     34  C   UNL     1       2.897  15.684  18.108  0.00  0.00    +0.000 A 
ATOM     35  C   UNL     1       4.221  15.008  17.898  0.00  0.00    +0.000 C 
ATOM     36  H   UNL     1       0.360  19.166  16.763  0.00  0.00    +0.000 HD
ATOM     37  H   UNL     1       1.964  18.959  16.035  0.00  0.00    +0.000 HD
ENDBRANCH  27  28
ENDBRANCH  25  27
ENDBRANCH  22  23
ENDBRANCH   6  22
TORSDOF 8
ENDMDL
