MODEL 1
REMARK VINA RESULT:      -6.2      0.000      0.000
REMARK  Name = 
REMARK  11 active torsions:
REMARK  status: ('A' for Active; 'I' for Inactive)
REMARK    1  A    between atoms: C_1  and  C_2
REMARK    2  A    between atoms: C_2  and  C_3
REMARK    3  A    between atoms: C_3  and  C_4
REMARK    4  A    between atoms: C_4  and  C_5
REMARK    5  A    between atoms: C_5  and  C_6
REMARK    6  A    between atoms: C_6  and  C_7
REMARK    7  A    between atoms: C_7  and  C_8
REMARK    8  A    between atoms: C_8  and  C_9
REMARK    9  A    between atoms: N_11  and  C_12
REMARK   10  A    between atoms: C_15  and  C_16
REMARK   11  A    between atoms: C_16  and  O_18
REMARK                            x       y       z     vdW  Elec       q    Type
REMARK                         _______ _______ _______ _____ _____    ______ ____
ROOT
ATOM      1  C   UNL     1       2.780   6.053  18.889  0.00  0.00    +0.000 C 
ATOM      2  O   UNL     1       2.032   5.646  18.017  0.00  0.00    +0.000 OA
ATOM      3  N   UNL     1       4.166   6.104  18.803  0.00  0.00    +0.000 N 
ATOM      4  H   UNL     1       4.703   6.224  19.654  0.00  0.00    +0.000 HD
ENDROOT
BRANCH   3   5
ATOM      5  C   UNL     1       4.863   5.755  17.629  0.00  0.00    +0.000 A 
ATOM      6  C   UNL     1       5.645   4.601  17.552  0.00  0.00    +0.000 A 
ATOM      7  C   UNL     1       6.309   4.265  16.377  0.00  0.00    +0.000 A 
ATOM      8  C   UNL     1       6.201   5.065  15.242  0.00  0.00    +0.000 A 
ATOM      9  C   UNL     1       5.434   6.241  15.313  0.00  0.00    +0.000 A 
ATOM     10  C   UNL     1       4.776   6.576  16.506  0.00  0.00    +0.000 A 
BRANCH   8  11
ATOM     11  C   UNL     1       6.835   4.614  13.961  0.00  0.00    +0.000 C 
ATOM     12  O   UNL     1       7.631   5.281  13.353  0.00  0.00    +0.000 OA
BRANCH  11  13
ATOM     13  O   UNL     1       6.434   3.387  13.529  0.00  0.00    +0.000 OA
ATOM     14  H   UNL     1       5.557   3.070  13.798  0.00  0.00    +0.000 HD
ENDBRANCH  11  13
ENDBRANCH   8  11
ENDBRANCH   3   5
BRANCH   1  15
ATOM     15  C   UNL     1       2.202   6.508  20.213  0.00  0.00    +0.000 C 
BRANCH  15  16
ATOM     16  C   UNL     1       1.357   5.400  20.818  0.00  0.00    +0.000 C 
BRANCH  16  17
ATOM     17  C   UNL     1       2.186   4.228  21.320  0.00  0.00    +0.000 C 
BRANCH  17  18
ATOM     18  C   UNL     1       1.378   2.932  21.234  0.00  0.00    +0.000 C 
BRANCH  18  19
ATOM     19  C   UNL     1       1.757   2.139  19.988  0.00  0.00    +0.000 C 
BRANCH  19  20
ATOM     20  C   UNL     1       3.218   2.368  19.614  0.00  0.00    +0.000 C 
BRANCH  20  22
ATOM     21  C   UNL     1       2.641   2.498  17.177  0.00  0.00    +0.000 C 
ATOM     22  C   UNL     1       3.512   1.821  18.219  0.00  0.00    +0.000 C 
ENDBRANCH  20  22
ENDBRANCH  19  20
ENDBRANCH  18  19
ENDBRANCH  17  18
ENDBRANCH  16  17
ENDBRANCH  15  16
ENDBRANCH   1  15
TORSDOF 10
ENDMDL
MODEL 2
REMARK VINA RESULT:      -6.2      4.664      8.123
REMARK  Name = 
REMARK  11 active torsions:
REMARK  status: ('A' for Active; 'I' for Inactive)
REMARK    1  A    between atoms: C_1  and  C_2
REMARK    2  A    between atoms: C_2  and  C_3
REMARK    3  A    between atoms: C_3  and  C_4
REMARK    4  A    between atoms: C_4  and  C_5
REMARK    5  A    between atoms: C_5  and  C_6
REMARK    6  A    between atoms: C_6  and  C_7
REMARK    7  A    between atoms: C_7  and  C_8
REMARK    8  A    between atoms: C_8  and  C_9
REMARK    9  A    between atoms: N_11  and  C_12
REMARK   10  A    between atoms: C_15  and  C_16
REMARK   11  A    between atoms: C_16  and  O_18
REMARK                            x       y       z     vdW  Elec       q    Type
REMARK                         _______ _______ _______ _____ _____    ______ ____
ROOT
ATOM      1  C   UNL     1       6.176   6.417  17.754  0.00  0.00    +0.000 C 
ATOM      2  O   UNL     1       6.533   5.883  18.789  0.00  0.00    +0.000 OA
ATOM      3  N   UNL     1       4.966   6.192  17.106  0.00  0.00    +0.000 N 
ATOM      4  H   UNL     1       4.867   6.490  16.143  0.00  0.00    +0.000 HD
ENDROOT
BRANCH   3   5
ATOM      5  C   UNL     1       3.965   5.358  17.645  0.00  0.00    +0.000 A 
ATOM      6  C   UNL     1       3.041   5.827  18.581  0.00  0.00    +0.000 A 
ATOM      7  C   UNL     1       2.049   4.992  19.085  0.00  0.00    +0.000 A 
ATOM      8  C   UNL     1       1.944   3.671  18.659  0.00  0.00    +0.000 A 
ATOM      9  C   UNL     1       2.882   3.181  17.734  0.00  0.00    +0.000 A 
ATOM     10  C   UNL     1       3.885   4.028  17.239  0.00  0.00    +0.000 A 
BRANCH   8  11
ATOM     11  C   UNL     1       0.796   2.835  19.136  0.00  0.00    +0.000 C 
ATOM     12  O   UNL     1       0.188   2.085  18.416  0.00  0.00    +0.000 OA
BRANCH  11  13
ATOM     13  O   UNL     1       0.483   2.994  20.451  0.00  0.00    +0.000 OA
ATOM     14  H   UNL     1      -0.347   2.607  20.775  0.00  0.00    +0.000 HD
ENDBRANCH  11  13
ENDBRANCH   8  11
ENDBRANCH   3   5
BRANCH   1  15
ATOM     15  C   UNL     1       7.111   7.376  17.049  0.00  0.00    +0.000 C 
BRANCH  15  16
ATOM     16  C   UNL     1       8.134   7.920  18.032  0.00  0.00    +0.000 C 
BRANCH  16  17
ATOM     17  C   UNL     1       8.204   9.439  18.036  0.00  0.00    +0.000 C 
BRANCH  17  18
ATOM     18  C   UNL     1       9.093   9.925  19.182  0.00  0.00    +0.000 C 
BRANCH  18  19
ATOM     19  C   UNL     1       9.623  11.326  18.900  0.00  0.00    +0.000 C 
BRANCH  19  20
ATOM     20  C   UNL     1      10.611  11.317  17.738  0.00  0.00    +0.000 C 
BRANCH  20  22
ATOM     21  C   UNL     1      11.493  13.386  16.629  0.00  0.00    +0.000 C 
ATOM     22  C   UNL     1      11.588  12.484  17.847  0.00  0.00    +0.000 C 
ENDBRANCH  20  22
ENDBRANCH  19  20
ENDBRANCH  18  19
ENDBRANCH  17  18
ENDBRANCH  16  17
ENDBRANCH  15  16
ENDBRANCH   1  15
TORSDOF 10
ENDMDL
MODEL 3
REMARK VINA RESULT:      -6.1      1.166      1.541
REMARK  Name = 
REMARK  11 active torsions:
REMARK  status: ('A' for Active; 'I' for Inactive)
REMARK    1  A    between atoms: C_1  and  C_2
REMARK    2  A    between atoms: C_2  and  C_3
REMARK    3  A    between atoms: C_3  and  C_4
REMARK    4  A    between atoms: C_4  and  C_5
REMARK    5  A    between atoms: C_5  and  C_6
REMARK    6  A    between atoms: C_6  and  C_7
REMARK    7  A    between atoms: C_7  and  C_8
REMARK    8  A    between atoms: C_8  and  C_9
REMARK    9  A    between atoms: N_11  and  C_12
REMARK   10  A    between atoms: C_15  and  C_16
REMARK   11  A    between atoms: C_16  and  O_18
REMARK                            x       y       z     vdW  Elec       q    Type
REMARK                         _______ _______ _______ _____ _____    ______ ____
ROOT
ATOM      1  C   UNL     1       3.678   5.735  19.378  0.00  0.00    +0.000 C 
ATOM      2  O   UNL     1       4.791   5.505  19.816  0.00  0.00    +0.000 OA
ATOM      3  N   UNL     1       3.343   5.819  18.031  0.00  0.00    +0.000 N 
ATOM      4  H   UNL     1       2.462   6.250  17.775  0.00  0.00    +0.000 HD
ENDROOT
BRANCH   3   5
ATOM      5  C   UNL     1       4.271   5.556  17.004  0.00  0.00    +0.000 A 
ATOM      6  C   UNL     1       4.632   4.253  16.654  0.00  0.00    +0.000 A 
ATOM      7  C   UNL     1       5.536   4.015  15.624  0.00  0.00    +0.000 A 
ATOM      8  C   UNL     1       6.095   5.070  14.907  0.00  0.00    +0.000 A 
ATOM      9  C   UNL     1       5.758   6.386  15.265  0.00  0.00    +0.000 A 
ATOM     10  C   UNL     1       4.852   6.616  16.312  0.00  0.00    +0.000 A 
BRANCH   8  11
ATOM     11  C   UNL     1       6.975   4.774  13.731  0.00  0.00    +0.000 C 
ATOM     12  O   UNL     1       6.721   3.922  12.920  0.00  0.00    +0.000 OA
BRANCH  11  13
ATOM     13  O   UNL     1       8.097   5.542  13.651  0.00  0.00    +0.000 OA
ATOM     14  H   UNL     1       8.620   5.673  14.458  0.00  0.00    +0.000 HD
ENDBRANCH  11  13
ENDBRANCH   8  11
ENDBRANCH   3   5
BRANCH   1  15
ATOM     15  C   UNL     1       2.541   6.008  20.340  0.00  0.00    +0.000 C 
BRANCH  15  16
ATOM     16  C   UNL     1       2.093   4.712  20.994  0.00  0.00    +0.000 C 
BRANCH  16  17
ATOM     17  C   UNL     1       0.862   4.109  20.335  0.00  0.00    +0.000 C 
BRANCH  17  18
ATOM     18  C   UNL     1       0.992   2.586  20.264  0.00  0.00    +0.000 C 
BRANCH  18  19
ATOM     19  C   UNL     1       0.970   2.107  18.817  0.00  0.00    +0.000 C 
BRANCH  19  20
ATOM     20  C   UNL     1       2.295   2.399  18.121  0.00  0.00    +0.000 C 
BRANCH  20  22
ATOM     21  C   UNL     1       4.314   2.068  19.570  0.00  0.00    +0.000 C 
ATOM     22  C   UNL     1       3.373   1.417  18.573  0.00  0.00    +0.000 C 
ENDBRANCH  20  22
ENDBRANCH  19  20
ENDBRANCH  18  19
ENDBRANCH  17  18
ENDBRANCH  16  17
ENDBRANCH  15  16
ENDBRANCH   1  15
TORSDOF 10
ENDMDL
MODEL 4
REMARK VINA RESULT:      -6.1      1.082      1.357
REMARK  Name = 
REMARK  11 active torsions:
REMARK  status: ('A' for Active; 'I' for Inactive)
REMARK    1  A    between atoms: C_1  and  C_2
REMARK    2  A    between atoms: C_2  and  C_3
REMARK    3  A    between atoms: C_3  and  C_4
REMARK    4  A    between atoms: C_4  and  C_5
REMARK    5  A    between atoms: C_5  and  C_6
REMARK    6  A    between atoms: C_6  and  C_7
REMARK    7  A    between atoms: C_7  and  C_8
REMARK    8  A    between atoms: C_8  and  C_9
REMARK    9  A    between atoms: N_11  and  C_12
REMARK   10  A    between atoms: C_15  and  C_16
REMARK   11  A    between atoms: C_16  and  O_18
REMARK                            x       y       z     vdW  Elec       q    Type
REMARK                         _______ _______ _______ _____ _____    ______ ____
ROOT
ATOM      1  C   UNL     1       3.022   6.228  18.682  0.00  0.00    +0.000 C 
ATOM      2  O   UNL     1       2.858   7.157  17.911  0.00  0.00    +0.000 OA
ATOM      3  N   UNL     1       3.894   5.163  18.489  0.00  0.00    +0.000 N 
ATOM      4  H   UNL     1       3.780   4.332  19.056  0.00  0.00    +0.000 HD
ENDROOT
BRANCH   3   5
ATOM      5  C   UNL     1       4.765   5.093  17.383  0.00  0.00    +0.000 A 
ATOM      6  C   UNL     1       4.504   4.263  16.291  0.00  0.00    +0.000 A 
ATOM      7  C   UNL     1       5.368   4.223  15.202  0.00  0.00    +0.000 A 
ATOM      8  C   UNL     1       6.510   5.020  15.167  0.00  0.00    +0.000 A 
ATOM      9  C   UNL     1       6.796   5.842  16.270  0.00  0.00    +0.000 A 
ATOM     10  C   UNL     1       5.923   5.868  17.369  0.00  0.00    +0.000 A 
BRANCH   8  11
ATOM     11  C   UNL     1       7.356   5.037  13.930  0.00  0.00    +0.000 C 
ATOM     12  O   UNL     1       8.343   5.716  13.821  0.00  0.00    +0.000 OA
BRANCH  11  13
ATOM     13  O   UNL     1       6.915   4.228  12.928  0.00  0.00    +0.000 OA
ATOM     14  H   UNL     1       6.878   3.272  13.093  0.00  0.00    +0.000 HD
ENDBRANCH  11  13
ENDBRANCH   8  11
ENDBRANCH   3   5
BRANCH   1  15
ATOM     15  C   UNL     1       2.194   6.157  19.948  0.00  0.00    +0.000 C 
BRANCH  15  16
ATOM     16  C   UNL     1       2.600   4.943  20.766  0.00  0.00    +0.000 C 
BRANCH  16  17
ATOM     17  C   UNL     1       1.452   3.971  20.996  0.00  0.00    +0.000 C 
BRANCH  17  18
ATOM     18  C   UNL     1       0.822   3.570  19.660  0.00  0.00    +0.000 C 
BRANCH  18  19
ATOM     19  C   UNL     1       1.244   2.160  19.265  0.00  0.00    +0.000 C 
BRANCH  19  20
ATOM     20  C   UNL     1       2.225   2.186  18.097  0.00  0.00    +0.000 C 
BRANCH  20  22
ATOM     21  C   UNL     1       4.286   2.023  19.516  0.00  0.00    +0.000 C 
ATOM     22  C   UNL     1       3.472   1.364  18.418  0.00  0.00    +0.000 C 
ENDBRANCH  20  22
ENDBRANCH  19  20
ENDBRANCH  18  19
ENDBRANCH  17  18
ENDBRANCH  16  17
ENDBRANCH  15  16
ENDBRANCH   1  15
TORSDOF 10
ENDMDL
MODEL 5
REMARK VINA RESULT:      -6.1      4.687      8.124
REMARK  Name = 
REMARK  11 active torsions:
REMARK  status: ('A' for Active; 'I' for Inactive)
REMARK    1  A    between atoms: C_1  and  C_2
REMARK    2  A    between atoms: C_2  and  C_3
REMARK    3  A    between atoms: C_3  and  C_4
REMARK    4  A    between atoms: C_4  and  C_5
REMARK    5  A    between atoms: C_5  and  C_6
REMARK    6  A    between atoms: C_6  and  C_7
REMARK    7  A    between atoms: C_7  and  C_8
REMARK    8  A    between atoms: C_8  and  C_9
REMARK    9  A    between atoms: N_11  and  C_12
REMARK   10  A    between atoms: C_15  and  C_16
REMARK   11  A    between atoms: C_16  and  O_18
REMARK                            x       y       z     vdW  Elec       q    Type
REMARK                         _______ _______ _______ _____ _____    ______ ____
ROOT
ATOM      1  C   UNL     1       7.079   5.834  19.201  0.00  0.00    +0.000 C 
ATOM      2  O   UNL     1       7.402   5.276  20.235  0.00  0.00    +0.000 OA
ATOM      3  N   UNL     1       5.834   5.740  18.589  0.00  0.00    +0.000 N 
ATOM      4  H   UNL     1       5.743   6.034  17.624  0.00  0.00    +0.000 HD
ENDROOT
BRANCH   3   5
ATOM      5  C   UNL     1       4.760   5.033  19.167  0.00  0.00    +0.000 A 
ATOM      6  C   UNL     1       3.727   5.687  19.842  0.00  0.00    +0.000 A 
ATOM      7  C   UNL     1       2.667   4.971  20.388  0.00  0.00    +0.000 A 
ATOM      8  C   UNL     1       2.601   3.586  20.265  0.00  0.00    +0.000 A 
ATOM      9  C   UNL     1       3.647   2.914  19.607  0.00  0.00    +0.000 A 
ATOM     10  C   UNL     1       4.717   3.644  19.068  0.00  0.00    +0.000 A 
BRANCH   8  11
ATOM     11  C   UNL     1       1.389   2.860  20.764  0.00  0.00    +0.000 C 
ATOM     12  O   UNL     1       1.390   2.196  21.767  0.00  0.00    +0.000 OA
BRANCH  11  13
ATOM     13  O   UNL     1       0.281   3.002  19.986  0.00  0.00    +0.000 OA
ATOM     14  H   UNL     1       0.238   3.761  19.383  0.00  0.00    +0.000 HD
ENDBRANCH  11  13
ENDBRANCH   8  11
ENDBRANCH   3   5
BRANCH   1  15
ATOM     15  C   UNL     1       8.098   6.671  18.456  0.00  0.00    +0.000 C 
BRANCH  15  16
ATOM     16  C   UNL     1       7.392   7.717  17.611  0.00  0.00    +0.000 C 
BRANCH  16  17
ATOM     17  C   UNL     1       7.887   9.129  17.880  0.00  0.00    +0.000 C 
BRANCH  17  18
ATOM     18  C   UNL     1       9.091   9.098  18.824  0.00  0.00    +0.000 C 
BRANCH  18  19
ATOM     19  C   UNL     1       9.775  10.460  18.875  0.00  0.00    +0.000 C 
BRANCH  19  20
ATOM     20  C   UNL     1       9.605  11.110  20.244  0.00  0.00    +0.000 C 
BRANCH  20  22
ATOM     21  C   UNL     1      11.954  11.759  19.656  0.00  0.00    +0.000 C 
ATOM     22  C   UNL     1      10.757  12.068  20.536  0.00  0.00    +0.000 C 
ENDBRANCH  20  22
ENDBRANCH  19  20
ENDBRANCH  18  19
ENDBRANCH  17  18
ENDBRANCH  16  17
ENDBRANCH  15  16
ENDBRANCH   1  15
TORSDOF 10
ENDMDL
MODEL 6
REMARK VINA RESULT:      -6.0      1.775      3.186
REMARK  Name = 
REMARK  11 active torsions:
REMARK  status: ('A' for Active; 'I' for Inactive)
REMARK    1  A    between atoms: C_1  and  C_2
REMARK    2  A    between atoms: C_2  and  C_3
REMARK    3  A    between atoms: C_3  and  C_4
REMARK    4  A    between atoms: C_4  and  C_5
REMARK    5  A    between atoms: C_5  and  C_6
REMARK    6  A    between atoms: C_6  and  C_7
REMARK    7  A    between atoms: C_7  and  C_8
REMARK    8  A    between atoms: C_8  and  C_9
REMARK    9  A    between atoms: N_11  and  C_12
REMARK   10  A    between atoms: C_15  and  C_16
REMARK   11  A    between atoms: C_16  and  O_18
REMARK                            x       y       z     vdW  Elec       q    Type
REMARK                         _______ _______ _______ _____ _____    ______ ____
ROOT
ATOM      1  C   UNL     1       4.118   2.306  19.762  0.00  0.00    +0.000 C 
ATOM      2  O   UNL     1       3.992   1.408  18.949  0.00  0.00    +0.000 OA
ATOM      3  N   UNL     1       4.765   3.515  19.534  0.00  0.00    +0.000 N 
ATOM      4  H   UNL     1       5.028   4.084  20.330  0.00  0.00    +0.000 HD
ENDROOT
BRANCH   3   5
ATOM      5  C   UNL     1       5.284   3.867  18.272  0.00  0.00    +0.000 A 
ATOM      6  C   UNL     1       6.587   4.343  18.118  0.00  0.00    +0.000 A 
ATOM      7  C   UNL     1       7.086   4.666  16.860  0.00  0.00    +0.000 A 
ATOM      8  C   UNL     1       6.301   4.513  15.720  0.00  0.00    +0.000 A 
ATOM      9  C   UNL     1       4.979   4.056  15.864  0.00  0.00    +0.000 A 
ATOM     10  C   UNL     1       4.483   3.742  17.139  0.00  0.00    +0.000 A 
BRANCH   8  11
ATOM     11  C   UNL     1       6.906   4.761  14.372  0.00  0.00    +0.000 C 
ATOM     12  O   UNL     1       6.509   4.232  13.367  0.00  0.00    +0.000 OA
BRANCH  11  13
ATOM     13  O   UNL     1       7.954   5.631  14.370  0.00  0.00    +0.000 OA
ATOM     14  H   UNL     1       7.993   6.300  13.668  0.00  0.00    +0.000 HD
ENDBRANCH  11  13
ENDBRANCH   8  11
ENDBRANCH   3   5
BRANCH   1  15
ATOM     15  C   UNL     1       3.586   2.119  21.168  0.00  0.00    +0.000 C 
BRANCH  15  16
ATOM     16  C   UNL     1       2.453   3.096  21.428  0.00  0.00    +0.000 C 
BRANCH  16  17
ATOM     17  C   UNL     1       1.411   3.105  20.320  0.00  0.00    +0.000 C 
BRANCH  17  18
ATOM     18  C   UNL     1       0.966   4.538  20.023  0.00  0.00    +0.000 C 
BRANCH  18  19
ATOM     19  C   UNL     1       1.732   5.106  18.833  0.00  0.00    +0.000 C 
BRANCH  19  20
ATOM     20  C   UNL     1       2.557   6.322  19.240  0.00  0.00    +0.000 C 
BRANCH  20  22
ATOM     21  C   UNL     1       2.429   8.376  17.806  0.00  0.00    +0.000 C 
ATOM     22  C   UNL     1       3.114   7.036  18.010  0.00  0.00    +0.000 C 
ENDBRANCH  20  22
ENDBRANCH  19  20
ENDBRANCH  18  19
ENDBRANCH  17  18
ENDBRANCH  16  17
ENDBRANCH  15  16
ENDBRANCH   1  15
TORSDOF 10
ENDMDL
MODEL 7
REMARK VINA RESULT:      -6.0      4.543      7.899
REMARK  Name = 
REMARK  11 active torsions:
REMARK  status: ('A' for Active; 'I' for Inactive)
REMARK    1  A    between atoms: C_1  and  C_2
REMARK    2  A    between atoms: C_2  and  C_3
REMARK    3  A    between atoms: C_3  and  C_4
REMARK    4  A    between atoms: C_4  and  C_5
REMARK    5  A    between atoms: C_5  and  C_6
REMARK    6  A    between atoms: C_6  and  C_7
REMARK    7  A    between atoms: C_7  and  C_8
REMARK    8  A    between atoms: C_8  and  C_9
REMARK    9  A    between atoms: N_11  and  C_12
REMARK   10  A    between atoms: C_15  and  C_16
REMARK   11  A    between atoms: C_16  and  O_18
REMARK                            x       y       z     vdW  Elec       q    Type
REMARK                         _______ _______ _______ _____ _____    ______ ____
ROOT
ATOM      1  C   UNL     1       6.546   5.846  18.067  0.00  0.00    +0.000 C 
ATOM      2  O   UNL     1       6.586   5.705  19.277  0.00  0.00    +0.000 OA
ATOM      3  N   UNL     1       5.549   5.355  17.231  0.00  0.00    +0.000 N 
ATOM      4  H   UNL     1       5.728   5.311  16.235  0.00  0.00    +0.000 HD
ENDROOT
BRANCH   3   5
ATOM      5  C   UNL     1       4.405   4.697  17.725  0.00  0.00    +0.000 A 
ATOM      6  C   UNL     1       4.475   3.418  18.282  0.00  0.00    +0.000 A 
ATOM      7  C   UNL     1       3.336   2.794  18.782  0.00  0.00    +0.000 A 
ATOM      8  C   UNL     1       2.100   3.434  18.751  0.00  0.00    +0.000 A 
ATOM      9  C   UNL     1       2.013   4.712  18.173  0.00  0.00    +0.000 A 
ATOM     10  C   UNL     1       3.165   5.329  17.663  0.00  0.00    +0.000 A 
BRANCH   8  11
ATOM     11  C   UNL     1       0.918   2.781  19.401  0.00  0.00    +0.000 C 
ATOM     12  O   UNL     1       0.047   2.232  18.778  0.00  0.00    +0.000 OA
BRANCH  11  13
ATOM     13  O   UNL     1       0.899   2.862  20.760  0.00  0.00    +0.000 OA
ATOM     14  H   UNL     1       1.523   2.314  21.261  0.00  0.00    +0.000 HD
ENDBRANCH  11  13
ENDBRANCH   8  11
ENDBRANCH   3   5
BRANCH   1  15
ATOM     15  C   UNL     1       7.677   6.564  17.363  0.00  0.00    +0.000 C 
BRANCH  15  16
ATOM     16  C   UNL     1       7.568   8.061  17.599  0.00  0.00    +0.000 C 
BRANCH  16  17
ATOM     17  C   UNL     1       8.594   8.581  18.594  0.00  0.00    +0.000 C 
BRANCH  17  18
ATOM     18  C   UNL     1       8.773  10.091  18.429  0.00  0.00    +0.000 C 
BRANCH  18  19
ATOM     19  C   UNL     1       9.372  10.706  19.689  0.00  0.00    +0.000 C 
BRANCH  19  20
ATOM     20  C   UNL     1      10.509  11.663  19.347  0.00  0.00    +0.000 C 
BRANCH  20  22
ATOM     21  C   UNL     1      11.232  12.892  17.284  0.00  0.00    +0.000 C 
ATOM     22  C   UNL     1      10.904  11.534  17.878  0.00  0.00    +0.000 C 
ENDBRANCH  20  22
ENDBRANCH  19  20
ENDBRANCH  18  19
ENDBRANCH  17  18
ENDBRANCH  16  17
ENDBRANCH  15  16
ENDBRANCH   1  15
TORSDOF 10
ENDMDL
MODEL 8
REMARK VINA RESULT:      -6.0      3.424      7.344
REMARK  Name = 
REMARK  11 active torsions:
REMARK  status: ('A' for Active; 'I' for Inactive)
REMARK    1  A    between atoms: C_1  and  C_2
REMARK    2  A    between atoms: C_2  and  C_3
REMARK    3  A    between atoms: C_3  and  C_4
REMARK    4  A    between atoms: C_4  and  C_5
REMARK    5  A    between atoms: C_5  and  C_6
REMARK    6  A    between atoms: C_6  and  C_7
REMARK    7  A    between atoms: C_7  and  C_8
REMARK    8  A    between atoms: C_8  and  C_9
REMARK    9  A    between atoms: N_11  and  C_12
REMARK   10  A    between atoms: C_15  and  C_16
REMARK   11  A    between atoms: C_16  and  O_18
REMARK                            x       y       z     vdW  Elec       q    Type
REMARK                         _______ _______ _______ _____ _____    ______ ____
ROOT
ATOM      1  C   UNL     1       5.787   4.818  15.428  0.00  0.00    +0.000 C 
ATOM      2  O   UNL     1       5.326   5.925  15.641  0.00  0.00    +0.000 OA
ATOM      3  N   UNL     1       5.534   3.680  16.185  0.00  0.00    +0.000 N 
ATOM      4  H   UNL     1       6.145   2.878  16.079  0.00  0.00    +0.000 HD
ENDROOT
BRANCH   3   5
ATOM      5  C   UNL     1       4.622   3.675  17.259  0.00  0.00    +0.000 A 
ATOM      6  C   UNL     1       5.031   3.914  18.573  0.00  0.00    +0.000 A 
ATOM      7  C   UNL     1       4.111   3.924  19.616  0.00  0.00    +0.000 A 
ATOM      8  C   UNL     1       2.756   3.708  19.376  0.00  0.00    +0.000 A 
ATOM      9  C   UNL     1       2.335   3.444  18.061  0.00  0.00    +0.000 A 
ATOM     10  C   UNL     1       3.273   3.427  17.016  0.00  0.00    +0.000 A 
BRANCH   8  11
ATOM     11  C   UNL     1       1.779   3.840  20.504  0.00  0.00    +0.000 C 
ATOM     12  O   UNL     1       0.712   4.384  20.388  0.00  0.00    +0.000 OA
BRANCH  11  13
ATOM     13  O   UNL     1       2.196   3.301  21.683  0.00  0.00    +0.000 OA
ATOM     14  H   UNL     1       1.821   2.449  21.955  0.00  0.00    +0.000 HD
ENDBRANCH  11  13
ENDBRANCH   8  11
ENDBRANCH   3   5
BRANCH   1  15
ATOM     15  C   UNL     1       6.762   4.624  14.285  0.00  0.00    +0.000 C 
BRANCH  15  16
ATOM     16  C   UNL     1       6.249   3.549  13.343  0.00  0.00    +0.000 C 
BRANCH  16  17
ATOM     17  C   UNL     1       5.130   4.039  12.437  0.00  0.00    +0.000 C 
BRANCH  17  18
ATOM     18  C   UNL     1       4.634   2.899  11.544  0.00  0.00    +0.000 C 
BRANCH  18  19
ATOM     19  C   UNL     1       3.179   3.118  11.146  0.00  0.00    +0.000 C 
BRANCH  19  20
ATOM     20  C   UNL     1       3.024   3.156   9.629  0.00  0.00    +0.000 C 
BRANCH  20  22
ATOM     21  C   UNL     1       1.844   5.258   8.939  0.00  0.00    +0.000 C 
ATOM     22  C   UNL     1       3.192   4.579   9.103  0.00  0.00    +0.000 C 
ENDBRANCH  20  22
ENDBRANCH  19  20
ENDBRANCH  18  19
ENDBRANCH  17  18
ENDBRANCH  16  17
ENDBRANCH  15  16
ENDBRANCH   1  15
TORSDOF 10
ENDMDL
MODEL 9
REMARK VINA RESULT:      -5.9      2.682      7.220
REMARK  Name = 
REMARK  11 active torsions:
REMARK  status: ('A' for Active; 'I' for Inactive)
REMARK    1  A    between atoms: C_1  and  C_2
REMARK    2  A    between atoms: C_2  and  C_3
REMARK    3  A    between atoms: C_3  and  C_4
REMARK    4  A    between atoms: C_4  and  C_5
REMARK    5  A    between atoms: C_5  and  C_6
REMARK    6  A    between atoms: C_6  and  C_7
REMARK    7  A    between atoms: C_7  and  C_8
REMARK    8  A    between atoms: C_8  and  C_9
REMARK    9  A    between atoms: N_11  and  C_12
REMARK   10  A    between atoms: C_15  and  C_16
REMARK   11  A    between atoms: C_16  and  O_18
REMARK                            x       y       z     vdW  Elec       q    Type
REMARK                         _______ _______ _______ _____ _____    ______ ____
ROOT
ATOM      1  C   UNL     1       5.480   4.761  16.112  0.00  0.00    +0.000 C 
ATOM      2  O   UNL     1       5.314   3.563  15.959  0.00  0.00    +0.000 OA
ATOM      3  N   UNL     1       4.894   5.535  17.107  0.00  0.00    +0.000 N 
ATOM      4  H   UNL     1       4.898   6.543  17.004  0.00  0.00    +0.000 HD
ENDROOT
BRANCH   3   5
ATOM      5  C   UNL     1       4.088   4.979  18.120  0.00  0.00    +0.000 A 
ATOM      6  C   UNL     1       2.740   5.318  18.258  0.00  0.00    +0.000 A 
ATOM      7  C   UNL     1       1.958   4.743  19.254  0.00  0.00    +0.000 A 
ATOM      8  C   UNL     1       2.495   3.804  20.131  0.00  0.00    +0.000 A 
ATOM      9  C   UNL     1       3.856   3.471  20.016  0.00  0.00    +0.000 A 
ATOM     10  C   UNL     1       4.639   4.064  19.015  0.00  0.00    +0.000 A 
BRANCH   8  11
ATOM     11  C   UNL     1       1.596   3.120  21.116  0.00  0.00    +0.000 C 
ATOM     12  O   UNL     1       1.930   2.872  22.245  0.00  0.00    +0.000 OA
BRANCH  11  13
ATOM     13  O   UNL     1       0.367   2.791  20.632  0.00  0.00    +0.000 OA
ATOM     14  H   UNL     1      -0.299   3.492  20.557  0.00  0.00    +0.000 HD
ENDBRANCH  11  13
ENDBRANCH   8  11
ENDBRANCH   3   5
BRANCH   1  15
ATOM     15  C   UNL     1       6.350   5.523  15.135  0.00  0.00    +0.000 C 
BRANCH  15  16
ATOM     16  C   UNL     1       7.196   4.553  14.328  0.00  0.00    +0.000 C 
BRANCH  16  17
ATOM     17  C   UNL     1       7.509   5.061  12.929  0.00  0.00    +0.000 C 
BRANCH  17  18
ATOM     18  C   UNL     1       6.952   4.098  11.879  0.00  0.00    +0.000 C 
BRANCH  18  19
ATOM     19  C   UNL     1       5.731   3.359  12.416  0.00  0.00    +0.000 C 
BRANCH  19  20
ATOM     20  C   UNL     1       4.974   2.658  11.293  0.00  0.00    +0.000 C 
BRANCH  20  22
ATOM     21  C   UNL     1       3.321   3.888   9.863  0.00  0.00    +0.000 C 
ATOM     22  C   UNL     1       3.545   3.185  11.190  0.00  0.00    +0.000 C 
ENDBRANCH  20  22
ENDBRANCH  19  20
ENDBRANCH  18  19
ENDBRANCH  17  18
ENDBRANCH  16  17
ENDBRANCH  15  16
ENDBRANCH   1  15
TORSDOF 10
ENDMDL
