MODEL 1
REMARK VINA RESULT:      -8.0      0.000      0.000
REMARK  Name = 
REMARK  8 active torsions:
REMARK  status: ('A' for Active; 'I' for Inactive)
REMARK    1  A    between atoms: C_1  and  C_2
REMARK    2  A    between atoms: C_5  and  N_6
REMARK    3  A    between atoms: N_7  and  C_8
REMARK    4  A    between atoms: C_13  and  C_14
REMARK    5  A    between atoms: C_14  and  O_16
REMARK    6  A    between atoms: N_18  and  C_19
REMARK    7  A    between atoms: C_21  and  C_22
REMARK    8  A    between atoms: C_22  and  O_24
REMARK                            x       y       z     vdW  Elec       q    Type
REMARK                         _______ _______ _______ _____ _____    ______ ____
ROOT
ATOM      1  C   UNL     1       3.210   2.533  19.417  0.00  0.00    +0.000 C 
ATOM      2  C   UNL     1       3.530   3.869  20.124  0.00  0.00    +0.000 C 
ATOM      3  C   UNL     1       2.351   4.257  20.996  0.00  0.00    +0.000 C 
ATOM      4  C   UNL     1       1.680   5.567  20.678  0.00  0.00    +0.000 C 
ATOM      5  C   UNL     1       2.330   6.480  19.665  0.00  0.00    +0.000 C 
ATOM      6  C   UNL     1       3.407   6.110  18.909  0.00  0.00    +0.000 C 
ATOM      7  N   UNL     1       3.986   6.892  17.858  0.00  0.00    +0.000 N 
ATOM      8  C   UNL     1       3.643   8.283  17.521  0.00  0.00    +0.000 C 
ATOM      9  C   UNL     1       4.870   6.260  16.982  0.00  0.00    +0.000 C 
ATOM     10  C   UNL     1       5.474   5.092  17.213  0.00  0.00    +0.000 C 
ATOM     11  C   UNL     1       5.196   4.486  18.517  0.00  0.00    +0.000 C 
ATOM     12  O   UNL     1       5.952   3.592  18.908  0.00  0.00    +0.000 OA
ATOM     13  N   UNL     1       4.014   4.859  19.170  0.00  0.00    +0.000 N 
ENDROOT
BRANCH   5  14
ATOM     14  N   UNL     1       1.664   7.682  19.494  0.00  0.00    +0.000 NA
ATOM     15  N   UNL     1       1.366   8.323  20.529  0.00  0.00    +0.000 NA
BRANCH  15  16
ATOM     16  C   UNL     1       0.615   9.497  20.249  0.00  0.00    +0.000 A 
ATOM     17  C   UNL     1       0.623  10.063  18.956  0.00  0.00    +0.000 A 
ATOM     18  C   UNL     1      -0.096  11.219  18.657  0.00  0.00    +0.000 A 
ATOM     19  C   UNL     1      -0.864  11.826  19.641  0.00  0.00    +0.000 A 
ATOM     20  C   UNL     1      -0.923  11.265  20.915  0.00  0.00    +0.000 A 
ATOM     21  C   UNL     1      -0.197  10.098  21.235  0.00  0.00    +0.000 A 
BRANCH  21  22
ATOM     22  C   UNL     1      -0.375   9.592  22.631  0.00  0.00    +0.000 C 
ATOM     23  O   UNL     1      -0.101  10.279  23.610  0.00  0.00    +0.000 OA
BRANCH  22  24
ATOM     24  O   UNL     1      -0.867   8.346  22.766  0.00  0.00    +0.000 OA
ATOM     25  H   UNL     1      -1.665   8.159  22.231  0.00  0.00    +0.000 HD
ENDBRANCH  22  24
ENDBRANCH  21  22
ENDBRANCH  15  16
ENDBRANCH   5  14
BRANCH  10  26
ATOM     26  C   UNL     1       6.340   4.460  16.198  0.00  0.00    +0.000 C 
ATOM     27  O   UNL     1       7.287   5.033  15.675  0.00  0.00    +0.000 OA
BRANCH  26  28
ATOM     28  O   UNL     1       5.981   3.204  15.854  0.00  0.00    +0.000 OA
ATOM     29  H   UNL     1       5.102   2.924  16.206  0.00  0.00    +0.000 HD
ENDBRANCH  26  28
ENDBRANCH  10  26
TORSDOF 6
ENDMDL
MODEL 2
REMARK VINA RESULT:      -7.9      1.925      3.657
REMARK  Name = 
REMARK  8 active torsions:
REMARK  status: ('A' for Active; 'I' for Inactive)
REMARK    1  A    between atoms: C_1  and  C_2
REMARK    2  A    between atoms: C_5  and  N_6
REMARK    3  A    between atoms: N_7  and  C_8
REMARK    4  A    between atoms: C_13  and  C_14
REMARK    5  A    between atoms: C_14  and  O_16
REMARK    6  A    between atoms: N_18  and  C_19
REMARK    7  A    between atoms: C_21  and  C_22
REMARK    8  A    between atoms: C_22  and  O_24
REMARK                            x       y       z     vdW  Elec       q    Type
REMARK                         _______ _______ _______ _____ _____    ______ ____
ROOT
ATOM      1  C   UNL     1       6.097   5.588  17.119  0.00  0.00    +0.000 C 
ATOM      2  C   UNL     1       4.569   5.744  16.951  0.00  0.00    +0.000 C 
ATOM      3  C   UNL     1       4.243   7.217  16.783  0.00  0.00    +0.000 C 
ATOM      4  C   UNL     1       3.335   7.828  17.817  0.00  0.00    +0.000 C 
ATOM      5  C   UNL     1       2.665   6.913  18.816  0.00  0.00    +0.000 C 
ATOM      6  C   UNL     1       2.964   5.584  18.929  0.00  0.00    +0.000 C 
ATOM      7  N   UNL     1       2.444   4.704  19.931  0.00  0.00    +0.000 N 
ATOM      8  C   UNL     1       1.382   5.020  20.900  0.00  0.00    +0.000 C 
ATOM      9  C   UNL     1       3.071   3.468  20.106  0.00  0.00    +0.000 C 
ATOM     10  C   UNL     1       3.896   2.896  19.227  0.00  0.00    +0.000 C 
ATOM     11  C   UNL     1       4.094   3.633  17.977  0.00  0.00    +0.000 C 
ATOM     12  O   UNL     1       4.579   3.022  17.021  0.00  0.00    +0.000 OA
ATOM     13  N   UNL     1       3.854   5.012  17.989  0.00  0.00    +0.000 N 
ENDROOT
BRANCH   5  14
ATOM     14  N   UNL     1       1.806   7.571  19.679  0.00  0.00    +0.000 NA
ATOM     15  N   UNL     1       1.768   8.822  19.609  0.00  0.00    +0.000 NA
BRANCH  15  16
ATOM     16  C   UNL     1       0.919   9.401  20.590  0.00  0.00    +0.000 A 
ATOM     17  C   UNL     1       0.973   8.969  21.932  0.00  0.00    +0.000 A 
ATOM     18  C   UNL     1       0.144   9.513  22.912  0.00  0.00    +0.000 A 
ATOM     19  C   UNL     1      -0.746  10.524  22.577  0.00  0.00    +0.000 A 
ATOM     20  C   UNL     1      -0.791  10.999  21.268  0.00  0.00    +0.000 A 
ATOM     21  C   UNL     1       0.038  10.455  20.264  0.00  0.00    +0.000 A 
BRANCH  21  22
ATOM     22  C   UNL     1      -0.097  11.078  18.910  0.00  0.00    +0.000 C 
ATOM     23  O   UNL     1      -0.140  12.295  18.758  0.00  0.00    +0.000 OA
BRANCH  22  24
ATOM     24  O   UNL     1      -0.153  10.238  17.860  0.00  0.00    +0.000 OA
ATOM     25  H   UNL     1       0.378   9.422  17.956  0.00  0.00    +0.000 HD
ENDBRANCH  22  24
ENDBRANCH  21  22
ENDBRANCH  15  16
ENDBRANCH   5  14
BRANCH  10  26
ATOM     26  C   UNL     1       4.573   1.618  19.527  0.00  0.00    +0.000 C 
ATOM     27  O   UNL     1       5.263   1.444  20.523  0.00  0.00    +0.000 OA
BRANCH  26  28
ATOM     28  O   UNL     1       4.409   0.660  18.590  0.00  0.00    +0.000 OA
ATOM     29  H   UNL     1       3.619   0.085  18.733  0.00  0.00    +0.000 HD
ENDBRANCH  26  28
ENDBRANCH  10  26
TORSDOF 6
ENDMDL
MODEL 3
REMARK VINA RESULT:      -7.1      2.967      7.599
REMARK  Name = 
REMARK  8 active torsions:
REMARK  status: ('A' for Active; 'I' for Inactive)
REMARK    1  A    between atoms: C_1  and  C_2
REMARK    2  A    between atoms: C_5  and  N_6
REMARK    3  A    between atoms: N_7  and  C_8
REMARK    4  A    between atoms: C_13  and  C_14
REMARK    5  A    between atoms: C_14  and  O_16
REMARK    6  A    between atoms: N_18  and  C_19
REMARK    7  A    between atoms: C_21  and  C_22
REMARK    8  A    between atoms: C_22  and  O_24
REMARK                            x       y       z     vdW  Elec       q    Type
REMARK                         _______ _______ _______ _____ _____    ______ ____
ROOT
ATOM      1  C   UNL     1      -0.542  11.394  22.756  0.00  0.00    +0.000 C 
ATOM      2  C   UNL     1      -0.813  10.255  21.749  0.00  0.00    +0.000 C 
ATOM      3  C   UNL     1      -0.579   8.924  22.440  0.00  0.00    +0.000 C 
ATOM      4  C   UNL     1       0.489   8.039  21.853  0.00  0.00    +0.000 C 
ATOM      5  C   UNL     1       1.106   8.436  20.532  0.00  0.00    +0.000 C 
ATOM      6  C   UNL     1       0.858   9.634  19.922  0.00  0.00    +0.000 C 
ATOM      7  N   UNL     1       1.503  10.103  18.734  0.00  0.00    +0.000 N 
ATOM      8  C   UNL     1       2.408   9.326  17.871  0.00  0.00    +0.000 C 
ATOM      9  C   UNL     1       1.376  11.456  18.410  0.00  0.00    +0.000 C 
ATOM     10  C   UNL     1       0.458  12.282  18.916  0.00  0.00    +0.000 C 
ATOM     11  C   UNL     1      -0.498  11.670  19.842  0.00  0.00    +0.000 C 
ATOM     12  O   UNL     1      -1.535  12.291  20.090  0.00  0.00    +0.000 OA
ATOM     13  N   UNL     1      -0.110  10.493  20.494  0.00  0.00    +0.000 N 
ENDROOT
BRANCH   5  14
ATOM     14  N   UNL     1       2.030   7.522  20.056  0.00  0.00    +0.000 NA
ATOM     15  N   UNL     1       1.781   6.307  20.239  0.00  0.00    +0.000 NA
BRANCH  15  16
ATOM     16  C   UNL     1       2.828   5.459  19.787  0.00  0.00    +0.000 A 
ATOM     17  C   UNL     1       3.835   5.955  18.933  0.00  0.00    +0.000 A 
ATOM     18  C   UNL     1       4.868   5.142  18.466  0.00  0.00    +0.000 A 
ATOM     19  C   UNL     1       4.931   3.814  18.864  0.00  0.00    +0.000 A 
ATOM     20  C   UNL     1       3.973   3.309  19.740  0.00  0.00    +0.000 A 
ATOM     21  C   UNL     1       2.919   4.117  20.217  0.00  0.00    +0.000 A 
BRANCH  21  22
ATOM     22  C   UNL     1       1.979   3.452  21.171  0.00  0.00    +0.000 C 
ATOM     23  O   UNL     1       2.355   3.016  22.255  0.00  0.00    +0.000 OA
BRANCH  22  24
ATOM     24  O   UNL     1       0.690   3.368  20.791  0.00  0.00    +0.000 OA
ATOM     25  H   UNL     1       0.508   3.677  19.882  0.00  0.00    +0.000 HD
ENDBRANCH  22  24
ENDBRANCH  21  22
ENDBRANCH  15  16
ENDBRANCH   5  14
BRANCH  10  26
ATOM     26  C   UNL     1       0.442  13.718  18.572  0.00  0.00    +0.000 C 
ATOM     27  O   UNL     1       1.449  14.413  18.556  0.00  0.00    +0.000 OA
BRANCH  26  28
ATOM     28  O   UNL     1      -0.784  14.222  18.315  0.00  0.00    +0.000 OA
ATOM     29  H   UNL     1      -1.527  13.611  18.537  0.00  0.00    +0.000 HD
ENDBRANCH  26  28
ENDBRANCH  10  26
TORSDOF 6
ENDMDL
MODEL 4
REMARK VINA RESULT:      -7.1      0.985      1.038
REMARK  Name = 
REMARK  8 active torsions:
REMARK  status: ('A' for Active; 'I' for Inactive)
REMARK    1  A    between atoms: C_1  and  C_2
REMARK    2  A    between atoms: C_5  and  N_6
REMARK    3  A    between atoms: N_7  and  C_8
REMARK    4  A    between atoms: C_13  and  C_14
REMARK    5  A    between atoms: C_14  and  O_16
REMARK    6  A    between atoms: N_18  and  C_19
REMARK    7  A    between atoms: C_21  and  C_22
REMARK    8  A    between atoms: C_22  and  O_24
REMARK                            x       y       z     vdW  Elec       q    Type
REMARK                         _______ _______ _______ _____ _____    ______ ____
ROOT
ATOM      1  C   UNL     1       1.835   2.507  18.479  0.00  0.00    +0.000 C 
ATOM      2  C   UNL     1       2.593   3.477  19.412  0.00  0.00    +0.000 C 
ATOM      3  C   UNL     1       1.629   4.007  20.457  0.00  0.00    +0.000 C 
ATOM      4  C   UNL     1       1.416   5.497  20.483  0.00  0.00    +0.000 C 
ATOM      5  C   UNL     1       2.304   6.365  19.621  0.00  0.00    +0.000 C 
ATOM      6  C   UNL     1       3.180   5.858  18.703  0.00  0.00    +0.000 C 
ATOM      7  N   UNL     1       3.956   6.636  17.785  0.00  0.00    +0.000 N 
ATOM      8  C   UNL     1       4.079   8.103  17.777  0.00  0.00    +0.000 C 
ATOM      9  C   UNL     1       4.561   5.974  16.715  0.00  0.00    +0.000 C 
ATOM     10  C   UNL     1       4.756   4.656  16.640  0.00  0.00    +0.000 C 
ATOM     11  C   UNL     1       4.328   3.888  17.812  0.00  0.00    +0.000 C 
ATOM     12  O   UNL     1       4.758   2.738  17.933  0.00  0.00    +0.000 OA
ATOM     13  N   UNL     1       3.350   4.455  18.640  0.00  0.00    +0.000 N 
ENDROOT
BRANCH   5  14
ATOM     14  N   UNL     1       2.064   7.721  19.768  0.00  0.00    +0.000 NA
ATOM     15  N   UNL     1       0.989   8.056  20.319  0.00  0.00    +0.000 NA
BRANCH  15  16
ATOM     16  C   UNL     1       0.804   9.465  20.347  0.00  0.00    +0.000 A 
ATOM     17  C   UNL     1       1.051  10.244  19.197  0.00  0.00    +0.000 A 
ATOM     18  C   UNL     1       0.887  11.629  19.201  0.00  0.00    +0.000 A 
ATOM     19  C   UNL     1       0.447  12.267  20.351  0.00  0.00    +0.000 A 
ATOM     20  C   UNL     1       0.154  11.517  21.488  0.00  0.00    +0.000 A 
ATOM     21  C   UNL     1       0.320  10.116  21.502  0.00  0.00    +0.000 A 
BRANCH  21  22
ATOM     22  C   UNL     1      -0.056   9.436  22.781  0.00  0.00    +0.000 C 
ATOM     23  O   UNL     1       0.367   9.818  23.867  0.00  0.00    +0.000 OA
BRANCH  22  24
ATOM     24  O   UNL     1      -0.898   8.390  22.686  0.00  0.00    +0.000 OA
ATOM     25  H   UNL     1      -0.618   7.692  22.061  0.00  0.00    +0.000 HD
ENDBRANCH  22  24
ENDBRANCH  21  22
ENDBRANCH  15  16
ENDBRANCH   5  14
BRANCH  10  26
ATOM     26  C   UNL     1       5.340   4.032  15.436  0.00  0.00    +0.000 C 
ATOM     27  O   UNL     1       5.055   4.379  14.297  0.00  0.00    +0.000 OA
BRANCH  26  28
ATOM     28  O   UNL     1       6.187   3.011  15.685  0.00  0.00    +0.000 OA
ATOM     29  H   UNL     1       6.691   3.100  16.530  0.00  0.00    +0.000 HD
ENDBRANCH  26  28
ENDBRANCH  10  26
TORSDOF 6
ENDMDL
MODEL 5
REMARK VINA RESULT:      -6.9      2.452      4.167
REMARK  Name = 
REMARK  8 active torsions:
REMARK  status: ('A' for Active; 'I' for Inactive)
REMARK    1  A    between atoms: C_1  and  C_2
REMARK    2  A    between atoms: C_5  and  N_6
REMARK    3  A    between atoms: N_7  and  C_8
REMARK    4  A    between atoms: C_13  and  C_14
REMARK    5  A    between atoms: C_14  and  O_16
REMARK    6  A    between atoms: N_18  and  C_19
REMARK    7  A    between atoms: C_21  and  C_22
REMARK    8  A    between atoms: C_22  and  O_24
REMARK                            x       y       z     vdW  Elec       q    Type
REMARK                         _______ _______ _______ _____ _____    ______ ____
ROOT
ATOM      1  C   UNL     1       5.405   4.166  17.924  0.00  0.00    +0.000 C 
ATOM      2  C   UNL     1       4.132   4.883  17.420  0.00  0.00    +0.000 C 
ATOM      3  C   UNL     1       4.542   6.066  16.563  0.00  0.00    +0.000 C 
ATOM      4  C   UNL     1       4.093   7.424  17.031  0.00  0.00    +0.000 C 
ATOM      5  C   UNL     1       3.121   7.502  18.184  0.00  0.00    +0.000 C 
ATOM      6  C   UNL     1       2.752   6.414  18.925  0.00  0.00    +0.000 C 
ATOM      7  N   UNL     1       1.928   6.453  20.095  0.00  0.00    +0.000 N 
ATOM      8  C   UNL     1       1.199   7.625  20.606  0.00  0.00    +0.000 C 
ATOM      9  C   UNL     1       1.895   5.321  20.911  0.00  0.00    +0.000 C 
ATOM     10  C   UNL     1       2.298   4.101  20.547  0.00  0.00    +0.000 C 
ATOM     11  C   UNL     1       2.759   3.978  19.162  0.00  0.00    +0.000 C 
ATOM     12  O   UNL     1       2.842   2.843  18.683  0.00  0.00    +0.000 OA
ATOM     13  N   UNL     1       3.210   5.138  18.520  0.00  0.00    +0.000 N 
ENDROOT
BRANCH   5  14
ATOM     14  N   UNL     1       2.727   8.794  18.491  0.00  0.00    +0.000 NA
ATOM     15  N   UNL     1       2.021   9.393  17.647  0.00  0.00    +0.000 NA
BRANCH  15  16
ATOM     16  C   UNL     1       1.741  10.736  18.020  0.00  0.00    +0.000 A 
ATOM     17  C   UNL     1       2.756  11.715  17.990  0.00  0.00    +0.000 A 
ATOM     18  C   UNL     1       2.511  13.037  18.362  0.00  0.00    +0.000 A 
ATOM     19  C   UNL     1       1.234  13.417  18.750  0.00  0.00    +0.000 A 
ATOM     20  C   UNL     1       0.204  12.480  18.748  0.00  0.00    +0.000 A 
ATOM     21  C   UNL     1       0.437  11.137  18.380  0.00  0.00    +0.000 A 
BRANCH  21  22
ATOM     22  C   UNL     1      -0.766  10.247  18.398  0.00  0.00    +0.000 C 
ATOM     23  O   UNL     1      -1.331   9.943  19.444  0.00  0.00    +0.000 OA
BRANCH  22  24
ATOM     24  O   UNL     1      -1.210   9.805  17.207  0.00  0.00    +0.000 OA
ATOM     25  H   UNL     1      -1.983   9.208  17.252  0.00  0.00    +0.000 HD
ENDBRANCH  22  24
ENDBRANCH  21  22
ENDBRANCH  15  16
ENDBRANCH   5  14
BRANCH  10  26
ATOM     26  C   UNL     1       2.296   2.974  21.500  0.00  0.00    +0.000 C 
ATOM     27  O   UNL     1       1.320   2.668  22.173  0.00  0.00    +0.000 OA
BRANCH  26  28
ATOM     28  O   UNL     1       3.475   2.324  21.607  0.00  0.00    +0.000 OA
ATOM     29  H   UNL     1       3.510   1.467  21.117  0.00  0.00    +0.000 HD
ENDBRANCH  26  28
ENDBRANCH  10  26
TORSDOF 6
ENDMDL
MODEL 6
REMARK VINA RESULT:      -6.9      2.509      4.143
REMARK  Name = 
REMARK  8 active torsions:
REMARK  status: ('A' for Active; 'I' for Inactive)
REMARK    1  A    between atoms: C_1  and  C_2
REMARK    2  A    between atoms: C_5  and  N_6
REMARK    3  A    between atoms: N_7  and  C_8
REMARK    4  A    between atoms: C_13  and  C_14
REMARK    5  A    between atoms: C_14  and  O_16
REMARK    6  A    between atoms: N_18  and  C_19
REMARK    7  A    between atoms: C_21  and  C_22
REMARK    8  A    between atoms: C_22  and  O_24
REMARK                            x       y       z     vdW  Elec       q    Type
REMARK                         _______ _______ _______ _____ _____    ______ ____
ROOT
ATOM      1  C   UNL     1       5.828   5.307  17.620  0.00  0.00    +0.000 C 
ATOM      2  C   UNL     1       4.352   5.618  17.286  0.00  0.00    +0.000 C 
ATOM      3  C   UNL     1       4.273   6.995  16.654  0.00  0.00    +0.000 C 
ATOM      4  C   UNL     1       3.438   8.020  17.376  0.00  0.00    +0.000 C 
ATOM      5  C   UNL     1       2.596   7.567  18.545  0.00  0.00    +0.000 C 
ATOM      6  C   UNL     1       2.674   6.311  19.079  0.00  0.00    +0.000 C 
ATOM      7  N   UNL     1       1.985   5.869  20.254  0.00  0.00    +0.000 N 
ATOM      8  C   UNL     1       0.953   6.619  20.989  0.00  0.00    +0.000 C 
ATOM      9  C   UNL     1       2.399   4.675  20.846  0.00  0.00    +0.000 C 
ATOM     10  C   UNL     1       3.152   3.746  20.253  0.00  0.00    +0.000 C 
ATOM     11  C   UNL     1       3.509   4.021  18.859  0.00  0.00    +0.000 C 
ATOM     12  O   UNL     1       3.924   3.080  18.177  0.00  0.00    +0.000 OA
ATOM     13  N   UNL     1       3.493   5.355  18.434  0.00  0.00    +0.000 N 
ENDROOT
BRANCH   5  14
ATOM     14  N   UNL     1       1.823   8.575  19.094  0.00  0.00    +0.000 NA
ATOM     15  N   UNL     1       1.656   9.609  18.406  0.00  0.00    +0.000 NA
BRANCH  15  16
ATOM     16  C   UNL     1       0.919  10.612  19.092  0.00  0.00    +0.000 A 
ATOM     17  C   UNL     1      -0.161  10.262  19.930  0.00  0.00    +0.000 A 
ATOM     18  C   UNL     1      -0.907  11.226  20.606  0.00  0.00    +0.000 A 
ATOM     19  C   UNL     1      -0.574  12.567  20.480  0.00  0.00    +0.000 A 
ATOM     20  C   UNL     1       0.514  12.938  19.693  0.00  0.00    +0.000 A 
ATOM     21  C   UNL     1       1.275  11.974  18.998  0.00  0.00    +0.000 A 
BRANCH  21  22
ATOM     22  C   UNL     1       2.430  12.511  18.212  0.00  0.00    +0.000 C 
ATOM     23  O   UNL     1       3.095  13.464  18.606  0.00  0.00    +0.000 OA
BRANCH  22  24
ATOM     24  O   UNL     1       2.717  11.887  17.055  0.00  0.00    +0.000 OA
ATOM     25  H   UNL     1       1.939  11.587  16.544  0.00  0.00    +0.000 HD
ENDBRANCH  22  24
ENDBRANCH  21  22
ENDBRANCH  15  16
ENDBRANCH   5  14
BRANCH  10  26
ATOM     26  C   UNL     1       3.605   2.543  20.980  0.00  0.00    +0.000 C 
ATOM     27  O   UNL     1       3.019   2.091  21.956  0.00  0.00    +0.000 OA
BRANCH  26  28
ATOM     28  O   UNL     1       4.747   1.998  20.511  0.00  0.00    +0.000 OA
ATOM     29  H   UNL     1       5.124   2.462  19.725  0.00  0.00    +0.000 HD
ENDBRANCH  26  28
ENDBRANCH  10  26
TORSDOF 6
ENDMDL
MODEL 7
REMARK VINA RESULT:      -6.7      2.088      8.511
REMARK  Name = 
REMARK  8 active torsions:
REMARK  status: ('A' for Active; 'I' for Inactive)
REMARK    1  A    between atoms: C_1  and  C_2
REMARK    2  A    between atoms: C_5  and  N_6
REMARK    3  A    between atoms: N_7  and  C_8
REMARK    4  A    between atoms: C_13  and  C_14
REMARK    5  A    between atoms: C_14  and  O_16
REMARK    6  A    between atoms: N_18  and  C_19
REMARK    7  A    between atoms: C_21  and  C_22
REMARK    8  A    between atoms: C_22  and  O_24
REMARK                            x       y       z     vdW  Elec       q    Type
REMARK                         _______ _______ _______ _____ _____    ______ ____
ROOT
ATOM      1  C   UNL     1       0.364  13.173  18.654  0.00  0.00    +0.000 C 
ATOM      2  C   UNL     1       1.546  12.295  19.120  0.00  0.00    +0.000 C 
ATOM      3  C   UNL     1       2.267  11.755  17.899  0.00  0.00    +0.000 C 
ATOM      4  C   UNL     1       2.319  10.258  17.755  0.00  0.00    +0.000 C 
ATOM      5  C   UNL     1       1.836   9.407  18.906  0.00  0.00    +0.000 C 
ATOM      6  C   UNL     1       1.209   9.925  20.005  0.00  0.00    +0.000 C 
ATOM      7  N   UNL     1       0.631   9.155  21.065  0.00  0.00    +0.000 N 
ATOM      8  C   UNL     1       0.755   7.700  21.249  0.00  0.00    +0.000 C 
ATOM      9  C   UNL     1      -0.235   9.802  21.948  0.00  0.00    +0.000 C 
ATOM     10  C   UNL     1      -0.328  11.125  22.099  0.00  0.00    +0.000 C 
ATOM     11  C   UNL     1       0.600  11.918  21.288  0.00  0.00    +0.000 C 
ATOM     12  O   UNL     1       0.777  13.097  21.607  0.00  0.00    +0.000 OA
ATOM     13  N   UNL     1       1.113  11.332  20.125  0.00  0.00    +0.000 N 
ENDROOT
BRANCH   5  14
ATOM     14  N   UNL     1       1.985   8.048  18.692  0.00  0.00    +0.000 NA
ATOM     15  N   UNL     1       3.043   7.668  18.137  0.00  0.00    +0.000 NA
BRANCH  15  16
ATOM     16  C   UNL     1       3.061   6.269  17.890  0.00  0.00    +0.000 A 
ATOM     17  C   UNL     1       1.985   5.454  18.299  0.00  0.00    +0.000 A 
ATOM     18  C   UNL     1       1.982   4.077  18.079  0.00  0.00    +0.000 A 
ATOM     19  C   UNL     1       3.049   3.484  17.420  0.00  0.00    +0.000 A 
ATOM     20  C   UNL     1       4.105   4.271  16.968  0.00  0.00    +0.000 A 
ATOM     21  C   UNL     1       4.126   5.664  17.188  0.00  0.00    +0.000 A 
BRANCH  21  22
ATOM     22  C   UNL     1       5.309   6.388  16.626  0.00  0.00    +0.000 C 
ATOM     23  O   UNL     1       5.534   6.424  15.420  0.00  0.00    +0.000 OA
BRANCH  22  24
ATOM     24  O   UNL     1       6.111   7.013  17.507  0.00  0.00    +0.000 OA
ATOM     25  H   UNL     1       5.646   7.443  18.253  0.00  0.00    +0.000 HD
ENDBRANCH  22  24
ENDBRANCH  21  22
ENDBRANCH  15  16
ENDBRANCH   5  14
BRANCH  10  26
ATOM     26  C   UNL     1      -1.325  11.728  23.006  0.00  0.00    +0.000 C 
ATOM     27  O   UNL     1      -2.251  11.097  23.497  0.00  0.00    +0.000 OA
BRANCH  26  28
ATOM     28  O   UNL     1      -1.163  13.051  23.222  0.00  0.00    +0.000 OA
ATOM     29  H   UNL     1      -0.532  13.268  23.949  0.00  0.00    +0.000 HD
ENDBRANCH  26  28
ENDBRANCH  10  26
TORSDOF 6
ENDMDL
MODEL 8
REMARK VINA RESULT:      -6.6      2.368      4.090
REMARK  Name = 
REMARK  8 active torsions:
REMARK  status: ('A' for Active; 'I' for Inactive)
REMARK    1  A    between atoms: C_1  and  C_2
REMARK    2  A    between atoms: C_5  and  N_6
REMARK    3  A    between atoms: N_7  and  C_8
REMARK    4  A    between atoms: C_13  and  C_14
REMARK    5  A    between atoms: C_14  and  O_16
REMARK    6  A    between atoms: N_18  and  C_19
REMARK    7  A    between atoms: C_21  and  C_22
REMARK    8  A    between atoms: C_22  and  O_24
REMARK                            x       y       z     vdW  Elec       q    Type
REMARK                         _______ _______ _______ _____ _____    ______ ____
ROOT
ATOM      1  C   UNL     1       5.529   5.626  17.605  0.00  0.00    +0.000 C 
ATOM      2  C   UNL     1       4.041   5.951  17.348  0.00  0.00    +0.000 C 
ATOM      3  C   UNL     1       3.938   7.350  16.770  0.00  0.00    +0.000 C 
ATOM      4  C   UNL     1       3.139   8.350  17.563  0.00  0.00    +0.000 C 
ATOM      5  C   UNL     1       2.347   7.857  18.751  0.00  0.00    +0.000 C 
ATOM      6  C   UNL     1       2.444   6.582  19.236  0.00  0.00    +0.000 C 
ATOM      7  N   UNL     1       1.806   6.100  20.424  0.00  0.00    +0.000 N 
ATOM      8  C   UNL     1       0.810   6.825  21.230  0.00  0.00    +0.000 C 
ATOM      9  C   UNL     1       2.242   4.885  20.954  0.00  0.00    +0.000 C 
ATOM     10  C   UNL     1       2.965   3.976  20.296  0.00  0.00    +0.000 C 
ATOM     11  C   UNL     1       3.262   4.300  18.899  0.00  0.00    +0.000 C 
ATOM     12  O   UNL     1       3.643   3.384  18.165  0.00  0.00    +0.000 OA
ATOM     13  N   UNL     1       3.232   5.649  18.522  0.00  0.00    +0.000 N 
ENDROOT
BRANCH   5  14
ATOM     14  N   UNL     1       1.602   8.846  19.370  0.00  0.00    +0.000 NA
ATOM     15  N   UNL     1       0.790   9.482  18.658  0.00  0.00    +0.000 NA
BRANCH  15  16
ATOM     16  C   UNL     1       0.138  10.526  19.368  0.00  0.00    +0.000 A 
ATOM     17  C   UNL     1       0.678  11.019  20.575  0.00  0.00    +0.000 A 
ATOM     18  C   UNL     1       0.053  12.035  21.297  0.00  0.00    +0.000 A 
ATOM     19  C   UNL     1      -1.118  12.602  20.815  0.00  0.00    +0.000 A 
ATOM     20  C   UNL     1      -1.650  12.163  19.605  0.00  0.00    +0.000 A 
ATOM     21  C   UNL     1      -1.033  11.132  18.865  0.00  0.00    +0.000 A 
BRANCH  21  22
ATOM     22  C   UNL     1      -1.698  10.780  17.572  0.00  0.00    +0.000 C 
ATOM     23  O   UNL     1      -2.136   9.655  17.353  0.00  0.00    +0.000 OA
BRANCH  22  24
ATOM     24  O   UNL     1      -1.810  11.765  16.661  0.00  0.00    +0.000 OA
ATOM     25  H   UNL     1      -2.297  12.556  16.967  0.00  0.00    +0.000 HD
ENDBRANCH  22  24
ENDBRANCH  21  22
ENDBRANCH  15  16
ENDBRANCH   5  14
BRANCH  10  26
ATOM     26  C   UNL     1       3.446   2.748  20.959  0.00  0.00    +0.000 C 
ATOM     27  O   UNL     1       2.902   2.262  21.942  0.00  0.00    +0.000 OA
BRANCH  26  28
ATOM     28  O   UNL     1       4.565   2.218  20.421  0.00  0.00    +0.000 OA
ATOM     29  H   UNL     1       5.048   1.599  21.020  0.00  0.00    +0.000 HD
ENDBRANCH  26  28
ENDBRANCH  10  26
TORSDOF 6
ENDMDL
MODEL 9
REMARK VINA RESULT:      -6.5      1.130      1.377
REMARK  Name = 
REMARK  8 active torsions:
REMARK  status: ('A' for Active; 'I' for Inactive)
REMARK    1  A    between atoms: C_1  and  C_2
REMARK    2  A    between atoms: C_5  and  N_6
REMARK    3  A    between atoms: N_7  and  C_8
REMARK    4  A    between atoms: C_13  and  C_14
REMARK    5  A    between atoms: C_14  and  O_16
REMARK    6  A    between atoms: N_18  and  C_19
REMARK    7  A    between atoms: C_21  and  C_22
REMARK    8  A    between atoms: C_22  and  O_24
REMARK                            x       y       z     vdW  Elec       q    Type
REMARK                         _______ _______ _______ _____ _____    ______ ____
ROOT
ATOM      1  C   UNL     1       3.440   2.764  19.731  0.00  0.00    +0.000 C 
ATOM      2  C   UNL     1       3.588   4.211  20.251  0.00  0.00    +0.000 C 
ATOM      3  C   UNL     1       2.305   4.614  20.952  0.00  0.00    +0.000 C 
ATOM      4  C   UNL     1       1.570   5.799  20.383  0.00  0.00    +0.000 C 
ATOM      5  C   UNL     1       2.243   6.610  19.301  0.00  0.00    +0.000 C 
ATOM      6  C   UNL     1       3.412   6.232  18.703  0.00  0.00    +0.000 C 
ATOM      7  N   UNL     1       4.028   6.903  17.598  0.00  0.00    +0.000 N 
ATOM      8  C   UNL     1       3.615   8.194  17.025  0.00  0.00    +0.000 C 
ATOM      9  C   UNL     1       5.038   6.232  16.905  0.00  0.00    +0.000 C 
ATOM     10  C   UNL     1       5.704   5.169  17.360  0.00  0.00    +0.000 C 
ATOM     11  C   UNL     1       5.349   4.736  18.714  0.00  0.00    +0.000 C 
ATOM     12  O   UNL     1       6.129   3.978  19.297  0.00  0.00    +0.000 OA
ATOM     13  N   UNL     1       4.085   5.092  19.201  0.00  0.00    +0.000 N 
ENDROOT
BRANCH   5  14
ATOM     14  N   UNL     1       1.507   7.710  18.895  0.00  0.00    +0.000 NA
ATOM     15  N   UNL     1       1.372   8.646  19.719  0.00  0.00    +0.000 NA
BRANCH  15  16
ATOM     16  C   UNL     1       0.534   9.686  19.234  0.00  0.00    +0.000 A 
ATOM     17  C   UNL     1      -0.235   9.502  18.065  0.00  0.00    +0.000 A 
ATOM     18  C   UNL     1      -1.057  10.511  17.563  0.00  0.00    +0.000 A 
ATOM     19  C   UNL     1      -1.148  11.722  18.233  0.00  0.00    +0.000 A 
ATOM     20  C   UNL     1      -0.432  11.915  19.412  0.00  0.00    +0.000 A 
ATOM     21  C   UNL     1       0.408  10.907  19.930  0.00  0.00    +0.000 A 
BRANCH  21  22
ATOM     22  C   UNL     1       1.096  11.241  21.216  0.00  0.00    +0.000 C 
ATOM     23  O   UNL     1       1.652  12.321  21.393  0.00  0.00    +0.000 OA
BRANCH  22  24
ATOM     24  O   UNL     1       1.063  10.304  22.182  0.00  0.00    +0.000 OA
ATOM     25  H   UNL     1       1.679  10.458  22.926  0.00  0.00    +0.000 HD
ENDBRANCH  22  24
ENDBRANCH  21  22
ENDBRANCH  15  16
ENDBRANCH   5  14
BRANCH  10  26
ATOM     26  C   UNL     1       6.708   4.476  16.529  0.00  0.00    +0.000 C 
ATOM     27  O   UNL     1       6.497   4.130  15.374  0.00  0.00    +0.000 OA
BRANCH  26  28
ATOM     28  O   UNL     1       7.874   4.212  17.156  0.00  0.00    +0.000 OA
ATOM     29  H   UNL     1       8.326   3.391  16.842  0.00  0.00    +0.000 HD
ENDBRANCH  26  28
ENDBRANCH  10  26
TORSDOF 6
ENDMDL
